data_job_02656
_audit_creation_date              2018-12-19
_audit_creation_method            'Materials Studio'
_symmetry_space_group_name_H-M    'P1'
_symmetry_Int_Tables_number       1
_symmetry_cell_setting            triclinic
loop_
_symmetry_equiv_pos_as_xyz
  x,y,z
_cell_length_a                    23.9280
_cell_length_b                    12.3481
_cell_length_c                    22.7647
_cell_angle_alpha                 90.0000
_cell_angle_beta                  153.2956
_cell_angle_gamma                 90.0000
loop_
_atom_site_label
_atom_site_type_symbol
_atom_site_fract_x
_atom_site_fract_y
_atom_site_fract_z
_atom_site_U_iso_or_equiv
_atom_site_adp_type
_atom_site_occupancy
C1     C     0.11921   0.18691   0.22921   0.00000  Uiso   1.00
C2     C     0.22035   0.10077   0.32887   0.00000  Uiso   1.00
C3     C     0.20759   0.00021   0.34342   0.00000  Uiso   1.00
C4     C     0.31108   0.93298   0.44032   0.00000  Uiso   1.00
C5     C     0.45109   0.79435   0.58303   0.00000  Uiso   1.00
C6     C     0.17302   0.28890   0.30768   0.00000  Uiso   1.00
C7     C     0.12045   0.34651   0.30439   0.00000  Uiso   1.00
C8     C     0.18409   0.43766   0.38344   0.00000  Uiso   1.00
C9     C     0.25057   0.59114   0.49317   0.00000  Uiso   1.00
C10    C     0.10577   0.21179   0.15129   0.00000  Uiso   1.00
C11    C     0.99665   0.20459   0.01650   0.00000  Uiso   1.00
C12    C     0.00366   0.23084   0.96388   0.00000  Uiso   1.00
C13    C     0.96572   0.26459   0.83079   0.00000  Uiso   1.00
C14    C     0.32571   0.24635   0.37542   0.00000  Uiso   1.00
C15    C     0.33252   0.13306   0.40829   0.00000  Uiso   1.00
C16    C     0.43605   0.06597   0.50519   0.00000  Uiso   1.00
C17    C     0.42344   0.96532   0.51988   0.00000  Uiso   1.00
C18    C     0.28518   0.32119   0.38709   0.00000  Uiso   1.00
C19    C     0.34891   0.41227   0.46615   0.00000  Uiso   1.00
C20    C     0.29645   0.47000   0.46300   0.00000  Uiso   1.00
C21    C     0.21793   0.24407   0.23070   0.00000  Uiso   1.00
C22    C     0.22512   0.27034   0.17827   0.00000  Uiso   1.00
C23    C     0.11603   0.26318   0.04344   0.00000  Uiso   1.00
H24    H     0.03189   0.16178   0.16739   0.00000  Uiso   1.00
H25    H     0.12078   0.97526   0.28196   0.00000  Uiso   1.00
H26    H     0.03365   0.32152   0.24292   0.00000  Uiso   1.00
H27    H     0.90987   0.17961   0.95508   0.00000  Uiso   1.00
H28    H     0.26880   0.78272   0.44403   0.00000  Uiso   1.00
H29    H     0.08506   0.51284   0.36169   0.00000  Uiso   1.00
H30    H     0.82404   0.21360   0.75472   0.00000  Uiso   1.00
H31    H     0.41303   0.27148   0.43725   0.00000  Uiso   1.00
H32    H     0.52284   0.09097   0.56663   0.00000  Uiso   1.00
H33    H     0.43570   0.43723   0.52759   0.00000  Uiso   1.00
H34    H     0.31193   0.29532   0.23976   0.00000  Uiso   1.00
H35    H     0.59513   0.87664   0.67508   0.00000  Uiso   1.00
H36    H     0.41138   0.60676   0.59273   0.00000  Uiso   1.00
H37    H     0.15037   0.30752   0.98577   0.00000  Uiso   1.00
O38    O     0.49733   0.70897   0.63982   0.00000  Uiso   1.00
O39    O     0.25625   0.66687   0.53177   0.00000  Uiso   1.00
O40    O     0.91381   0.27427   0.73545   0.00000  Uiso   1.00
N41    N     0.33053   0.82958   0.48063   0.00000  Uiso   1.00
N42    N     0.15874   0.51219   0.40366   0.00000  Uiso   1.00
N43    N     0.91471   0.23246   0.83620   0.00000  Uiso   1.00
N44    N     0.50612   0.88012   0.60496   0.00000  Uiso   1.00
N45    N     0.33434   0.56273   0.52799   0.00000  Uiso   1.00
N46    N     0.09031   0.28300   0.96053   0.00000  Uiso   1.00
C47    C     0.88079   0.18691   0.27079   0.00000  Uiso   1.00
C48    C     0.77965   0.10077   0.17113   0.00000  Uiso   1.00
C49    C     0.79241   0.00021   0.15658   0.00000  Uiso   1.00
C50    C     0.68892   0.93298   0.05968   0.00000  Uiso   1.00
C51    C     0.54891   0.79435   0.91697   0.00000  Uiso   1.00
C52    C     0.82698   0.28890   0.19232   0.00000  Uiso   1.00
C53    C     0.87955   0.34651   0.19561   0.00000  Uiso   1.00
C54    C     0.81591   0.43766   0.11656   0.00000  Uiso   1.00
C55    C     0.74943   0.59114   0.00683   0.00000  Uiso   1.00
C56    C     0.89423   0.21179   0.34871   0.00000  Uiso   1.00
C57    C     0.00335   0.20459   0.48350   0.00000  Uiso   1.00
C58    C     0.99634   0.23084   0.53612   0.00000  Uiso   1.00
C59    C     0.03428   0.26459   0.66921   0.00000  Uiso   1.00
C60    C     0.67429   0.24635   0.12458   0.00000  Uiso   1.00
C61    C     0.66748   0.13306   0.09171   0.00000  Uiso   1.00
C62    C     0.56395   0.06597   0.99481   0.00000  Uiso   1.00
C63    C     0.57656   0.96532   0.98012   0.00000  Uiso   1.00
C64    C     0.71482   0.32119   0.11291   0.00000  Uiso   1.00
C65    C     0.65109   0.41227   0.03385   0.00000  Uiso   1.00
C66    C     0.70355   0.47000   0.03700   0.00000  Uiso   1.00
C67    C     0.78207   0.24407   0.26930   0.00000  Uiso   1.00
C68    C     0.77488   0.27034   0.32173   0.00000  Uiso   1.00
C69    C     0.88397   0.26318   0.45656   0.00000  Uiso   1.00
H70    H     0.96811   0.16178   0.33261   0.00000  Uiso   1.00
H71    H     0.87922   0.97526   0.21804   0.00000  Uiso   1.00
H72    H     0.96635   0.32152   0.25708   0.00000  Uiso   1.00
H73    H     0.09013   0.17961   0.54492   0.00000  Uiso   1.00
H74    H     0.73120   0.78272   0.05597   0.00000  Uiso   1.00
H75    H     0.91494   0.51284   0.13831   0.00000  Uiso   1.00
H76    H     0.17596   0.21360   0.74528   0.00000  Uiso   1.00
H77    H     0.58697   0.27148   0.06275   0.00000  Uiso   1.00
H78    H     0.47716   0.09097   0.93337   0.00000  Uiso   1.00
H79    H     0.56430   0.43723   0.97241   0.00000  Uiso   1.00
H80    H     0.68807   0.29532   0.26024   0.00000  Uiso   1.00
H81    H     0.40487   0.87664   0.82492   0.00000  Uiso   1.00
H82    H     0.58862   0.60676   0.90727   0.00000  Uiso   1.00
H83    H     0.84963   0.30752   0.51423   0.00000  Uiso   1.00
O84    O     0.50267   0.70897   0.86018   0.00000  Uiso   1.00
O85    O     0.74375   0.66687   0.96823   0.00000  Uiso   1.00
O86    O     0.08619   0.27427   0.76455   0.00000  Uiso   1.00
N87    N     0.66947   0.82958   0.01937   0.00000  Uiso   1.00
N88    N     0.84126   0.51219   0.09634   0.00000  Uiso   1.00
N89    N     0.08529   0.23246   0.66380   0.00000  Uiso   1.00
N90    N     0.49388   0.88012   0.89504   0.00000  Uiso   1.00
N91    N     0.66566   0.56273   0.97201   0.00000  Uiso   1.00
N92    N     0.90969   0.28300   0.53947   0.00000  Uiso   1.00
C93    C     0.88079   0.81309   0.77079   0.00000  Uiso   1.00
C94    C     0.77965   0.89923   0.67113   0.00000  Uiso   1.00
C95    C     0.79241   0.99979   0.65658   0.00000  Uiso   1.00
C96    C     0.68892   0.06702   0.55968   0.00000  Uiso   1.00
C97    C     0.54891   0.20565   0.41697   0.00000  Uiso   1.00
C98    C     0.82698   0.71110   0.69232   0.00000  Uiso   1.00
C99    C     0.87955   0.65349   0.69561   0.00000  Uiso   1.00
C100   C     0.81591   0.56234   0.61656   0.00000  Uiso   1.00
C101   C     0.74943   0.40886   0.50683   0.00000  Uiso   1.00
C102   C     0.89423   0.78821   0.84871   0.00000  Uiso   1.00
C103   C     0.00335   0.79541   0.98350   0.00000  Uiso   1.00
C104   C     0.99634   0.76916   0.03612   0.00000  Uiso   1.00
C105   C     0.03428   0.73541   0.16921   0.00000  Uiso   1.00
C106   C     0.67429   0.75365   0.62458   0.00000  Uiso   1.00
C107   C     0.66748   0.86694   0.59171   0.00000  Uiso   1.00
C108   C     0.56395   0.93403   0.49481   0.00000  Uiso   1.00
C109   C     0.57656   0.03468   0.48012   0.00000  Uiso   1.00
C110   C     0.71482   0.67881   0.61291   0.00000  Uiso   1.00
C111   C     0.65109   0.58773   0.53385   0.00000  Uiso   1.00
C112   C     0.70355   0.53000   0.53700   0.00000  Uiso   1.00
C113   C     0.78207   0.75593   0.76930   0.00000  Uiso   1.00
C114   C     0.77488   0.72966   0.82173   0.00000  Uiso   1.00
C115   C     0.88397   0.73682   0.95656   0.00000  Uiso   1.00
H116   H     0.96811   0.83822   0.83261   0.00000  Uiso   1.00
H117   H     0.87922   0.02474   0.71804   0.00000  Uiso   1.00
H118   H     0.96635   0.67848   0.75708   0.00000  Uiso   1.00
H119   H     0.09013   0.82039   0.04492   0.00000  Uiso   1.00
H120   H     0.73120   0.21728   0.55597   0.00000  Uiso   1.00
H121   H     0.91494   0.48716   0.63831   0.00000  Uiso   1.00
H122   H     0.17596   0.78640   0.24528   0.00000  Uiso   1.00
H123   H     0.58697   0.72852   0.56275   0.00000  Uiso   1.00
H124   H     0.47716   0.90903   0.43337   0.00000  Uiso   1.00
H125   H     0.56430   0.56277   0.47241   0.00000  Uiso   1.00
H126   H     0.68807   0.70468   0.76024   0.00000  Uiso   1.00
H127   H     0.40487   0.12336   0.32492   0.00000  Uiso   1.00
H128   H     0.58862   0.39324   0.40727   0.00000  Uiso   1.00
H129   H     0.84963   0.69248   0.01423   0.00000  Uiso   1.00
O130   O     0.50267   0.29103   0.36018   0.00000  Uiso   1.00
O131   O     0.74375   0.33313   0.46823   0.00000  Uiso   1.00
O132   O     0.08619   0.72573   0.26455   0.00000  Uiso   1.00
N133   N     0.66947   0.17042   0.51937   0.00000  Uiso   1.00
N134   N     0.84126   0.48781   0.59634   0.00000  Uiso   1.00
N135   N     0.08529   0.76754   0.16380   0.00000  Uiso   1.00
N136   N     0.49388   0.11988   0.39504   0.00000  Uiso   1.00
N137   N     0.66566   0.43727   0.47201   0.00000  Uiso   1.00
N138   N     0.90969   0.71700   0.03947   0.00000  Uiso   1.00
C139   C     0.11921   0.81309   0.72921   0.00000  Uiso   1.00
C140   C     0.22035   0.89923   0.82887   0.00000  Uiso   1.00
C141   C     0.20759   0.99979   0.84342   0.00000  Uiso   1.00
C142   C     0.31108   0.06702   0.94032   0.00000  Uiso   1.00
C143   C     0.45109   0.20565   0.08303   0.00000  Uiso   1.00
C144   C     0.17302   0.71110   0.80768   0.00000  Uiso   1.00
C145   C     0.12045   0.65349   0.80439   0.00000  Uiso   1.00
C146   C     0.18409   0.56234   0.88344   0.00000  Uiso   1.00
C147   C     0.25057   0.40886   0.99317   0.00000  Uiso   1.00
C148   C     0.10577   0.78821   0.65129   0.00000  Uiso   1.00
C149   C     0.99665   0.79541   0.51650   0.00000  Uiso   1.00
C150   C     0.00366   0.76916   0.46388   0.00000  Uiso   1.00
C151   C     0.96572   0.73541   0.33079   0.00000  Uiso   1.00
C152   C     0.32571   0.75365   0.87542   0.00000  Uiso   1.00
C153   C     0.33252   0.86694   0.90829   0.00000  Uiso   1.00
C154   C     0.43605   0.93403   0.00519   0.00000  Uiso   1.00
C155   C     0.42344   0.03468   0.01988   0.00000  Uiso   1.00
C156   C     0.28518   0.67881   0.88709   0.00000  Uiso   1.00
C157   C     0.34891   0.58773   0.96615   0.00000  Uiso   1.00
C158   C     0.29645   0.53000   0.96300   0.00000  Uiso   1.00
C159   C     0.21793   0.75593   0.73070   0.00000  Uiso   1.00
C160   C     0.22512   0.72966   0.67827   0.00000  Uiso   1.00
C161   C     0.11603   0.73682   0.54344   0.00000  Uiso   1.00
H162   H     0.03189   0.83822   0.66739   0.00000  Uiso   1.00
H163   H     0.12078   0.02474   0.78196   0.00000  Uiso   1.00
H164   H     0.03365   0.67848   0.74292   0.00000  Uiso   1.00
H165   H     0.90987   0.82039   0.45508   0.00000  Uiso   1.00
H166   H     0.26880   0.21728   0.94403   0.00000  Uiso   1.00
H167   H     0.08506   0.48716   0.86169   0.00000  Uiso   1.00
H168   H     0.82404   0.78640   0.25472   0.00000  Uiso   1.00
H169   H     0.41303   0.72852   0.93725   0.00000  Uiso   1.00
H170   H     0.52284   0.90903   0.06663   0.00000  Uiso   1.00
H171   H     0.43570   0.56277   0.02759   0.00000  Uiso   1.00
H172   H     0.31193   0.70468   0.73976   0.00000  Uiso   1.00
H173   H     0.59513   0.12336   0.17508   0.00000  Uiso   1.00
H174   H     0.41138   0.39324   0.09273   0.00000  Uiso   1.00
H175   H     0.15037   0.69248   0.48577   0.00000  Uiso   1.00
O176   O     0.49733   0.29103   0.13982   0.00000  Uiso   1.00
O177   O     0.25625   0.33313   0.03177   0.00000  Uiso   1.00
O178   O     0.91381   0.72573   0.23545   0.00000  Uiso   1.00
N179   N     0.33053   0.17042   0.98063   0.00000  Uiso   1.00
N180   N     0.15874   0.48781   0.90366   0.00000  Uiso   1.00
N181   N     0.91471   0.76754   0.33620   0.00000  Uiso   1.00
N182   N     0.50612   0.11988   0.10496   0.00000  Uiso   1.00
N183   N     0.33434   0.43727   0.02799   0.00000  Uiso   1.00
N184   N     0.09031   0.71700   0.46053   0.00000  Uiso   1.00
