data_job_02088
_audit_creation_date              2018-12-19
_audit_creation_method            'Materials Studio'
_symmetry_space_group_name_H-M    'P1'
_symmetry_Int_Tables_number       1
_symmetry_cell_setting            triclinic
loop_
_symmetry_equiv_pos_as_xyz
  x,y,z
_cell_length_a                    30.4470
_cell_length_b                    9.4128
_cell_length_c                    21.3018
_cell_angle_alpha                 90.0000
_cell_angle_beta                  90.0000
_cell_angle_gamma                 90.0000
loop_
_atom_site_label
_atom_site_type_symbol
_atom_site_fract_x
_atom_site_fract_y
_atom_site_fract_z
_atom_site_U_iso_or_equiv
_atom_site_adp_type
_atom_site_occupancy
C1     C     0.11682   0.64940   0.90076   0.00000  Uiso   1.00
C2     C     0.09644   0.68979   0.83785   0.00000  Uiso   1.00
C3     C     0.07779   0.82020   0.82324   0.00000  Uiso   1.00
C4     C     0.06091   0.83611   0.76311   0.00000  Uiso   1.00
C5     C     0.02898   0.91562   0.67212   0.00000  Uiso   1.00
C6     C     0.09253   0.51670   0.92270   0.00000  Uiso   1.00
C7     C     0.07062   0.50158   0.97944   0.00000  Uiso   1.00
C8     C     0.05045   0.37177   0.99073   0.00000  Uiso   1.00
C9     C     0.01249   0.18253   0.03149   0.00000  Uiso   1.00
C10    C     0.16365   0.60215   0.88635   0.00000  Uiso   1.00
C11    C     0.20153   0.65885   0.91253   0.00000  Uiso   1.00
C12    C     0.24124   0.60096   0.89322   0.00000  Uiso   1.00
C13    C     0.31370   0.54439   0.87754   0.00000  Uiso   1.00
C14    C     0.11998   0.44574   0.81994   0.00000  Uiso   1.00
C15    C     0.09815   0.57916   0.79396   0.00000  Uiso   1.00
C16    C     0.08129   0.59488   0.73383   0.00000  Uiso   1.00
C17    C     0.06263   0.72529   0.71913   0.00000  Uiso   1.00
C18    C     0.09425   0.40608   0.87881   0.00000  Uiso   1.00
C19    C     0.07412   0.27626   0.89002   0.00000  Uiso   1.00
C20    C     0.05217   0.26095   0.94676   0.00000  Uiso   1.00
C21    C     0.16537   0.49153   0.84245   0.00000  Uiso   1.00
C22    C     0.20503   0.43353   0.82311   0.00000  Uiso   1.00
C23    C     0.24296   0.49014   0.84925   0.00000  Uiso   1.00
H24    H     0.11548   0.73551   0.93494   0.00000  Uiso   1.00
H25    H     0.07647   0.90578   0.85723   0.00000  Uiso   1.00
H26    H     0.06930   0.58720   0.01340   0.00000  Uiso   1.00
H27    H     0.20019   0.74445   0.94649   0.00000  Uiso   1.00
H28    H     0.03396   0.04574   0.75172   0.00000  Uiso   1.00
H29    H     0.01885   0.37399   0.08103   0.00000  Uiso   1.00
H30    H     0.29486   0.70558   0.93995   0.00000  Uiso   1.00
H31    H     0.12132   0.35961   0.78577   0.00000  Uiso   1.00
H32    H     0.08263   0.50926   0.69987   0.00000  Uiso   1.00
H33    H     0.07546   0.19068   0.85605   0.00000  Uiso   1.00
H34    H     0.20635   0.34793   0.78914   0.00000  Uiso   1.00
H35    H     0.03895   0.72391   0.62401   0.00000  Uiso   1.00
H36    H     0.02385   0.05215   0.95331   0.00000  Uiso   1.00
H37    H     0.29986   0.38375   0.81223   0.00000  Uiso   1.00
O38    O     0.01088   0.99003   0.63405   0.00000  Uiso   1.00
O39    O     0.99107   0.10871   0.06610   0.00000  Uiso   1.00
O40    O     0.35319   0.54375   0.88100   0.00000  Uiso   1.00
N41    N     0.04045   0.94947   0.73345   0.00000  Uiso   1.00
N42    N     0.02632   0.32143   0.04132   0.00000  Uiso   1.00
N43    N     0.28437   0.63141   0.90944   0.00000  Uiso   1.00
N44    N     0.04314   0.77630   0.66472   0.00000  Uiso   1.00
N45    N     0.02901   0.14826   0.97260   0.00000  Uiso   1.00
N46    N     0.28706   0.45824   0.84072   0.00000  Uiso   1.00
C47    C     0.38318   0.35060   0.40076   0.00000  Uiso   1.00
C48    C     0.40356   0.31021   0.33785   0.00000  Uiso   1.00
C49    C     0.42221   0.17980   0.32324   0.00000  Uiso   1.00
C50    C     0.43909   0.16389   0.26311   0.00000  Uiso   1.00
C51    C     0.47102   0.08438   0.17212   0.00000  Uiso   1.00
C52    C     0.40747   0.48330   0.42270   0.00000  Uiso   1.00
C53    C     0.42938   0.49842   0.47944   0.00000  Uiso   1.00
C54    C     0.44955   0.62823   0.49073   0.00000  Uiso   1.00
C55    C     0.48751   0.81747   0.53149   0.00000  Uiso   1.00
C56    C     0.33635   0.39785   0.38635   0.00000  Uiso   1.00
C57    C     0.29847   0.34115   0.41253   0.00000  Uiso   1.00
C58    C     0.25876   0.39904   0.39322   0.00000  Uiso   1.00
C59    C     0.18630   0.45561   0.37754   0.00000  Uiso   1.00
C60    C     0.38002   0.55426   0.31994   0.00000  Uiso   1.00
C61    C     0.40185   0.42084   0.29396   0.00000  Uiso   1.00
C62    C     0.41871   0.40512   0.23383   0.00000  Uiso   1.00
C63    C     0.43737   0.27471   0.21913   0.00000  Uiso   1.00
C64    C     0.40575   0.59392   0.37881   0.00000  Uiso   1.00
C65    C     0.42588   0.72374   0.39002   0.00000  Uiso   1.00
C66    C     0.44783   0.73905   0.44676   0.00000  Uiso   1.00
C67    C     0.33463   0.50847   0.34245   0.00000  Uiso   1.00
C68    C     0.29497   0.56647   0.32311   0.00000  Uiso   1.00
C69    C     0.25704   0.50986   0.34925   0.00000  Uiso   1.00
H70    H     0.38452   0.26449   0.43494   0.00000  Uiso   1.00
H71    H     0.42353   0.09422   0.35723   0.00000  Uiso   1.00
H72    H     0.43070   0.41280   0.51340   0.00000  Uiso   1.00
H73    H     0.29981   0.25555   0.44649   0.00000  Uiso   1.00
H74    H     0.46604   0.95426   0.25172   0.00000  Uiso   1.00
H75    H     0.48115   0.62601   0.58103   0.00000  Uiso   1.00
H76    H     0.20514   0.29442   0.43995   0.00000  Uiso   1.00
H77    H     0.37868   0.64039   0.28577   0.00000  Uiso   1.00
H78    H     0.41737   0.49074   0.19987   0.00000  Uiso   1.00
H79    H     0.42454   0.80932   0.35605   0.00000  Uiso   1.00
H80    H     0.29365   0.65207   0.28914   0.00000  Uiso   1.00
H81    H     0.46105   0.27609   0.12401   0.00000  Uiso   1.00
H82    H     0.47615   0.94785   0.45331   0.00000  Uiso   1.00
H83    H     0.20014   0.61625   0.31223   0.00000  Uiso   1.00
O84    O     0.48912   0.00997   0.13405   0.00000  Uiso   1.00
O85    O     0.50893   0.89129   0.56610   0.00000  Uiso   1.00
O86    O     0.14681   0.45625   0.38100   0.00000  Uiso   1.00
N87    N     0.45955   0.05053   0.23345   0.00000  Uiso   1.00
N88    N     0.47368   0.67857   0.54132   0.00000  Uiso   1.00
N89    N     0.21563   0.36859   0.40944   0.00000  Uiso   1.00
N90    N     0.45686   0.22370   0.16472   0.00000  Uiso   1.00
N91    N     0.47099   0.85174   0.47260   0.00000  Uiso   1.00
N92    N     0.21294   0.54176   0.34072   0.00000  Uiso   1.00
C93    C     0.88318   0.14940   0.59924   0.00000  Uiso   1.00
C94    C     0.90356   0.18979   0.66215   0.00000  Uiso   1.00
C95    C     0.92221   0.32020   0.67676   0.00000  Uiso   1.00
C96    C     0.93909   0.33611   0.73689   0.00000  Uiso   1.00
C97    C     0.97102   0.41562   0.82788   0.00000  Uiso   1.00
C98    C     0.90747   0.01670   0.57730   0.00000  Uiso   1.00
C99    C     0.92938   0.00158   0.52056   0.00000  Uiso   1.00
C100   C     0.94955   0.87177   0.50927   0.00000  Uiso   1.00
C101   C     0.98751   0.68253   0.46851   0.00000  Uiso   1.00
C102   C     0.83635   0.10215   0.61365   0.00000  Uiso   1.00
C103   C     0.79847   0.15885   0.58747   0.00000  Uiso   1.00
C104   C     0.75876   0.10096   0.60678   0.00000  Uiso   1.00
C105   C     0.68630   0.04439   0.62246   0.00000  Uiso   1.00
C106   C     0.88002   0.94574   0.68006   0.00000  Uiso   1.00
C107   C     0.90185   0.07916   0.70604   0.00000  Uiso   1.00
C108   C     0.91871   0.09488   0.76617   0.00000  Uiso   1.00
C109   C     0.93737   0.22529   0.78087   0.00000  Uiso   1.00
C110   C     0.90575   0.90608   0.62119   0.00000  Uiso   1.00
C111   C     0.92588   0.77626   0.60998   0.00000  Uiso   1.00
C112   C     0.94783   0.76095   0.55324   0.00000  Uiso   1.00
C113   C     0.83463   0.99153   0.65755   0.00000  Uiso   1.00
C114   C     0.79497   0.93353   0.67689   0.00000  Uiso   1.00
C115   C     0.75704   0.99014   0.65075   0.00000  Uiso   1.00
H116   H     0.88452   0.23551   0.56506   0.00000  Uiso   1.00
H117   H     0.92353   0.40578   0.64277   0.00000  Uiso   1.00
H118   H     0.93070   0.08720   0.48660   0.00000  Uiso   1.00
H119   H     0.79981   0.24445   0.55351   0.00000  Uiso   1.00
H120   H     0.96604   0.54574   0.74828   0.00000  Uiso   1.00
H121   H     0.98115   0.87399   0.41897   0.00000  Uiso   1.00
H122   H     0.70514   0.20558   0.56005   0.00000  Uiso   1.00
H123   H     0.87868   0.85961   0.71423   0.00000  Uiso   1.00
H124   H     0.91737   0.00926   0.80013   0.00000  Uiso   1.00
H125   H     0.92454   0.69068   0.64395   0.00000  Uiso   1.00
H126   H     0.79365   0.84793   0.71086   0.00000  Uiso   1.00
H127   H     0.96105   0.22391   0.87599   0.00000  Uiso   1.00
H128   H     0.97615   0.55215   0.54669   0.00000  Uiso   1.00
H129   H     0.70014   0.88375   0.68777   0.00000  Uiso   1.00
O130   O     0.98912   0.49003   0.86595   0.00000  Uiso   1.00
O131   O     0.00893   0.60871   0.43390   0.00000  Uiso   1.00
O132   O     0.64681   0.04375   0.61900   0.00000  Uiso   1.00
N133   N     0.95955   0.44947   0.76655   0.00000  Uiso   1.00
N134   N     0.97368   0.82143   0.45868   0.00000  Uiso   1.00
N135   N     0.71563   0.13141   0.59056   0.00000  Uiso   1.00
N136   N     0.95686   0.27630   0.83528   0.00000  Uiso   1.00
N137   N     0.97099   0.64826   0.52740   0.00000  Uiso   1.00
N138   N     0.71294   0.95824   0.65928   0.00000  Uiso   1.00
C139   C     0.61682   0.85060   0.09924   0.00000  Uiso   1.00
C140   C     0.59644   0.81021   0.16215   0.00000  Uiso   1.00
C141   C     0.57779   0.67980   0.17676   0.00000  Uiso   1.00
C142   C     0.56091   0.66389   0.23689   0.00000  Uiso   1.00
C143   C     0.52898   0.58438   0.32788   0.00000  Uiso   1.00
C144   C     0.59253   0.98330   0.07730   0.00000  Uiso   1.00
C145   C     0.57062   0.99842   0.02056   0.00000  Uiso   1.00
C146   C     0.55045   0.12823   0.00927   0.00000  Uiso   1.00
C147   C     0.51249   0.31747   0.96851   0.00000  Uiso   1.00
C148   C     0.66365   0.89785   0.11365   0.00000  Uiso   1.00
C149   C     0.70153   0.84115   0.08747   0.00000  Uiso   1.00
C150   C     0.74124   0.89904   0.10678   0.00000  Uiso   1.00
C151   C     0.81370   0.95561   0.12246   0.00000  Uiso   1.00
C152   C     0.61998   0.05426   0.18006   0.00000  Uiso   1.00
C153   C     0.59815   0.92084   0.20604   0.00000  Uiso   1.00
C154   C     0.58129   0.90512   0.26617   0.00000  Uiso   1.00
C155   C     0.56263   0.77471   0.28087   0.00000  Uiso   1.00
C156   C     0.59425   0.09392   0.12119   0.00000  Uiso   1.00
C157   C     0.57412   0.22374   0.10998   0.00000  Uiso   1.00
C158   C     0.55217   0.23905   0.05324   0.00000  Uiso   1.00
C159   C     0.66537   0.00847   0.15755   0.00000  Uiso   1.00
C160   C     0.70503   0.06647   0.17689   0.00000  Uiso   1.00
C161   C     0.74296   0.00986   0.15075   0.00000  Uiso   1.00
H162   H     0.61548   0.76449   0.06506   0.00000  Uiso   1.00
H163   H     0.57647   0.59422   0.14277   0.00000  Uiso   1.00
H164   H     0.56930   0.91280   0.98660   0.00000  Uiso   1.00
H165   H     0.70019   0.75555   0.05351   0.00000  Uiso   1.00
H166   H     0.53396   0.45426   0.24828   0.00000  Uiso   1.00
H167   H     0.51885   0.12601   0.91897   0.00000  Uiso   1.00
H168   H     0.79486   0.79442   0.06005   0.00000  Uiso   1.00
H169   H     0.62132   0.14039   0.21423   0.00000  Uiso   1.00
H170   H     0.58263   0.99074   0.30013   0.00000  Uiso   1.00
H171   H     0.57546   0.30932   0.14395   0.00000  Uiso   1.00
H172   H     0.70635   0.15207   0.21086   0.00000  Uiso   1.00
H173   H     0.53895   0.77609   0.37599   0.00000  Uiso   1.00
H174   H     0.52385   0.44785   0.04669   0.00000  Uiso   1.00
H175   H     0.79986   0.11625   0.18777   0.00000  Uiso   1.00
O176   O     0.51088   0.50997   0.36595   0.00000  Uiso   1.00
O177   O     0.49107   0.39129   0.93390   0.00000  Uiso   1.00
O178   O     0.85319   0.95625   0.11900   0.00000  Uiso   1.00
N179   N     0.54045   0.55053   0.26655   0.00000  Uiso   1.00
N180   N     0.52632   0.17857   0.95868   0.00000  Uiso   1.00
N181   N     0.78437   0.86859   0.09056   0.00000  Uiso   1.00
N182   N     0.54314   0.72370   0.33528   0.00000  Uiso   1.00
N183   N     0.52901   0.35174   0.02740   0.00000  Uiso   1.00
N184   N     0.78706   0.04176   0.15928   0.00000  Uiso   1.00
C185   C     0.88318   0.35060   0.09924   0.00000  Uiso   1.00
C186   C     0.90356   0.31021   0.16215   0.00000  Uiso   1.00
C187   C     0.92221   0.17980   0.17676   0.00000  Uiso   1.00
C188   C     0.93909   0.16389   0.23689   0.00000  Uiso   1.00
C189   C     0.97102   0.08438   0.32788   0.00000  Uiso   1.00
C190   C     0.90747   0.48330   0.07730   0.00000  Uiso   1.00
C191   C     0.92938   0.49842   0.02056   0.00000  Uiso   1.00
C192   C     0.94955   0.62823   0.00927   0.00000  Uiso   1.00
C193   C     0.98751   0.81747   0.96851   0.00000  Uiso   1.00
C194   C     0.83635   0.39785   0.11365   0.00000  Uiso   1.00
C195   C     0.79847   0.34115   0.08747   0.00000  Uiso   1.00
C196   C     0.75876   0.39904   0.10678   0.00000  Uiso   1.00
C197   C     0.68630   0.45561   0.12246   0.00000  Uiso   1.00
C198   C     0.88002   0.55426   0.18006   0.00000  Uiso   1.00
C199   C     0.90185   0.42084   0.20604   0.00000  Uiso   1.00
C200   C     0.91871   0.40512   0.26617   0.00000  Uiso   1.00
C201   C     0.93737   0.27471   0.28087   0.00000  Uiso   1.00
C202   C     0.90575   0.59392   0.12119   0.00000  Uiso   1.00
C203   C     0.92588   0.72374   0.10998   0.00000  Uiso   1.00
C204   C     0.94783   0.73905   0.05324   0.00000  Uiso   1.00
C205   C     0.83463   0.50847   0.15755   0.00000  Uiso   1.00
C206   C     0.79497   0.56647   0.17689   0.00000  Uiso   1.00
C207   C     0.75704   0.50986   0.15075   0.00000  Uiso   1.00
H208   H     0.88452   0.26449   0.06506   0.00000  Uiso   1.00
H209   H     0.92353   0.09422   0.14277   0.00000  Uiso   1.00
H210   H     0.93070   0.41280   0.98660   0.00000  Uiso   1.00
H211   H     0.79981   0.25555   0.05351   0.00000  Uiso   1.00
H212   H     0.96604   0.95426   0.24828   0.00000  Uiso   1.00
H213   H     0.98115   0.62601   0.91897   0.00000  Uiso   1.00
H214   H     0.70514   0.29442   0.06005   0.00000  Uiso   1.00
H215   H     0.87868   0.64039   0.21423   0.00000  Uiso   1.00
H216   H     0.91737   0.49074   0.30013   0.00000  Uiso   1.00
H217   H     0.92454   0.80932   0.14395   0.00000  Uiso   1.00
H218   H     0.79365   0.65207   0.21086   0.00000  Uiso   1.00
H219   H     0.96105   0.27609   0.37599   0.00000  Uiso   1.00
H220   H     0.97615   0.94785   0.04669   0.00000  Uiso   1.00
H221   H     0.70014   0.61625   0.18777   0.00000  Uiso   1.00
O222   O     0.98912   0.00997   0.36595   0.00000  Uiso   1.00
O223   O     0.00893   0.89129   0.93390   0.00000  Uiso   1.00
O224   O     0.64681   0.45625   0.11900   0.00000  Uiso   1.00
N225   N     0.95955   0.05053   0.26655   0.00000  Uiso   1.00
N226   N     0.97368   0.67857   0.95868   0.00000  Uiso   1.00
N227   N     0.71563   0.36859   0.09056   0.00000  Uiso   1.00
N228   N     0.95686   0.22370   0.33528   0.00000  Uiso   1.00
N229   N     0.97099   0.85174   0.02740   0.00000  Uiso   1.00
N230   N     0.71294   0.54176   0.15928   0.00000  Uiso   1.00
C231   C     0.61682   0.64940   0.59924   0.00000  Uiso   1.00
C232   C     0.59644   0.68979   0.66215   0.00000  Uiso   1.00
C233   C     0.57779   0.82020   0.67676   0.00000  Uiso   1.00
C234   C     0.56091   0.83611   0.73689   0.00000  Uiso   1.00
C235   C     0.52898   0.91562   0.82788   0.00000  Uiso   1.00
C236   C     0.59253   0.51670   0.57730   0.00000  Uiso   1.00
C237   C     0.57062   0.50158   0.52056   0.00000  Uiso   1.00
C238   C     0.55045   0.37177   0.50927   0.00000  Uiso   1.00
C239   C     0.51249   0.18253   0.46851   0.00000  Uiso   1.00
C240   C     0.66365   0.60215   0.61365   0.00000  Uiso   1.00
C241   C     0.70153   0.65885   0.58747   0.00000  Uiso   1.00
C242   C     0.74124   0.60096   0.60678   0.00000  Uiso   1.00
C243   C     0.81370   0.54439   0.62246   0.00000  Uiso   1.00
C244   C     0.61998   0.44574   0.68006   0.00000  Uiso   1.00
C245   C     0.59815   0.57916   0.70604   0.00000  Uiso   1.00
C246   C     0.58129   0.59488   0.76617   0.00000  Uiso   1.00
C247   C     0.56263   0.72529   0.78087   0.00000  Uiso   1.00
C248   C     0.59425   0.40608   0.62119   0.00000  Uiso   1.00
C249   C     0.57412   0.27626   0.60998   0.00000  Uiso   1.00
C250   C     0.55217   0.26095   0.55324   0.00000  Uiso   1.00
C251   C     0.66537   0.49153   0.65755   0.00000  Uiso   1.00
C252   C     0.70503   0.43353   0.67689   0.00000  Uiso   1.00
C253   C     0.74296   0.49014   0.65075   0.00000  Uiso   1.00
H254   H     0.61548   0.73551   0.56506   0.00000  Uiso   1.00
H255   H     0.57647   0.90578   0.64277   0.00000  Uiso   1.00
H256   H     0.56930   0.58720   0.48660   0.00000  Uiso   1.00
H257   H     0.70019   0.74445   0.55351   0.00000  Uiso   1.00
H258   H     0.53396   0.04574   0.74828   0.00000  Uiso   1.00
H259   H     0.51885   0.37399   0.41897   0.00000  Uiso   1.00
H260   H     0.79486   0.70558   0.56005   0.00000  Uiso   1.00
H261   H     0.62132   0.35961   0.71423   0.00000  Uiso   1.00
H262   H     0.58263   0.50926   0.80013   0.00000  Uiso   1.00
H263   H     0.57546   0.19068   0.64395   0.00000  Uiso   1.00
H264   H     0.70635   0.34793   0.71086   0.00000  Uiso   1.00
H265   H     0.53895   0.72391   0.87599   0.00000  Uiso   1.00
H266   H     0.52385   0.05215   0.54669   0.00000  Uiso   1.00
H267   H     0.79986   0.38375   0.68777   0.00000  Uiso   1.00
O268   O     0.51088   0.99003   0.86595   0.00000  Uiso   1.00
O269   O     0.49107   0.10871   0.43390   0.00000  Uiso   1.00
O270   O     0.85319   0.54375   0.61900   0.00000  Uiso   1.00
N271   N     0.54045   0.94947   0.76655   0.00000  Uiso   1.00
N272   N     0.52632   0.32143   0.45868   0.00000  Uiso   1.00
N273   N     0.78437   0.63141   0.59056   0.00000  Uiso   1.00
N274   N     0.54314   0.77630   0.83528   0.00000  Uiso   1.00
N275   N     0.52901   0.14826   0.52740   0.00000  Uiso   1.00
N276   N     0.78706   0.45824   0.65928   0.00000  Uiso   1.00
C277   C     0.11682   0.85060   0.40076   0.00000  Uiso   1.00
C278   C     0.09644   0.81021   0.33785   0.00000  Uiso   1.00
C279   C     0.07779   0.67980   0.32324   0.00000  Uiso   1.00
C280   C     0.06091   0.66389   0.26311   0.00000  Uiso   1.00
C281   C     0.02898   0.58438   0.17212   0.00000  Uiso   1.00
C282   C     0.09253   0.98330   0.42270   0.00000  Uiso   1.00
C283   C     0.07062   0.99842   0.47944   0.00000  Uiso   1.00
C284   C     0.05045   0.12823   0.49073   0.00000  Uiso   1.00
C285   C     0.01249   0.31747   0.53149   0.00000  Uiso   1.00
C286   C     0.16365   0.89785   0.38635   0.00000  Uiso   1.00
C287   C     0.20153   0.84115   0.41253   0.00000  Uiso   1.00
C288   C     0.24124   0.89904   0.39322   0.00000  Uiso   1.00
C289   C     0.31370   0.95561   0.37754   0.00000  Uiso   1.00
C290   C     0.11998   0.05426   0.31994   0.00000  Uiso   1.00
C291   C     0.09815   0.92084   0.29396   0.00000  Uiso   1.00
C292   C     0.08129   0.90512   0.23383   0.00000  Uiso   1.00
C293   C     0.06263   0.77471   0.21913   0.00000  Uiso   1.00
C294   C     0.09425   0.09392   0.37881   0.00000  Uiso   1.00
C295   C     0.07412   0.22374   0.39002   0.00000  Uiso   1.00
C296   C     0.05217   0.23905   0.44676   0.00000  Uiso   1.00
C297   C     0.16537   0.00847   0.34245   0.00000  Uiso   1.00
C298   C     0.20503   0.06647   0.32311   0.00000  Uiso   1.00
C299   C     0.24296   0.00986   0.34925   0.00000  Uiso   1.00
H300   H     0.11548   0.76449   0.43494   0.00000  Uiso   1.00
H301   H     0.07647   0.59422   0.35723   0.00000  Uiso   1.00
H302   H     0.06930   0.91280   0.51340   0.00000  Uiso   1.00
H303   H     0.20019   0.75555   0.44649   0.00000  Uiso   1.00
H304   H     0.03396   0.45426   0.25172   0.00000  Uiso   1.00
H305   H     0.01885   0.12601   0.58103   0.00000  Uiso   1.00
H306   H     0.29486   0.79442   0.43995   0.00000  Uiso   1.00
H307   H     0.12132   0.14039   0.28577   0.00000  Uiso   1.00
H308   H     0.08263   0.99074   0.19987   0.00000  Uiso   1.00
H309   H     0.07546   0.30932   0.35605   0.00000  Uiso   1.00
H310   H     0.20635   0.15207   0.28914   0.00000  Uiso   1.00
H311   H     0.03895   0.77609   0.12401   0.00000  Uiso   1.00
H312   H     0.02385   0.44785   0.45331   0.00000  Uiso   1.00
H313   H     0.29986   0.11625   0.31223   0.00000  Uiso   1.00
O314   O     0.01088   0.50997   0.13405   0.00000  Uiso   1.00
O315   O     0.99107   0.39129   0.56610   0.00000  Uiso   1.00
O316   O     0.35319   0.95625   0.38100   0.00000  Uiso   1.00
N317   N     0.04045   0.55053   0.23345   0.00000  Uiso   1.00
N318   N     0.02632   0.17857   0.54132   0.00000  Uiso   1.00
N319   N     0.28437   0.86859   0.40944   0.00000  Uiso   1.00
N320   N     0.04314   0.72370   0.16472   0.00000  Uiso   1.00
N321   N     0.02901   0.35174   0.47260   0.00000  Uiso   1.00
N322   N     0.28706   0.04176   0.34072   0.00000  Uiso   1.00
C323   C     0.38318   0.14940   0.90076   0.00000  Uiso   1.00
C324   C     0.40356   0.18979   0.83785   0.00000  Uiso   1.00
C325   C     0.42221   0.32020   0.82324   0.00000  Uiso   1.00
C326   C     0.43909   0.33611   0.76311   0.00000  Uiso   1.00
C327   C     0.47102   0.41562   0.67212   0.00000  Uiso   1.00
C328   C     0.40747   0.01670   0.92270   0.00000  Uiso   1.00
C329   C     0.42938   0.00158   0.97944   0.00000  Uiso   1.00
C330   C     0.44955   0.87177   0.99073   0.00000  Uiso   1.00
C331   C     0.48751   0.68253   0.03149   0.00000  Uiso   1.00
C332   C     0.33635   0.10215   0.88635   0.00000  Uiso   1.00
C333   C     0.29847   0.15885   0.91253   0.00000  Uiso   1.00
C334   C     0.25876   0.10096   0.89322   0.00000  Uiso   1.00
C335   C     0.18630   0.04439   0.87754   0.00000  Uiso   1.00
C336   C     0.38002   0.94574   0.81994   0.00000  Uiso   1.00
C337   C     0.40185   0.07916   0.79396   0.00000  Uiso   1.00
C338   C     0.41871   0.09488   0.73383   0.00000  Uiso   1.00
C339   C     0.43737   0.22529   0.71913   0.00000  Uiso   1.00
C340   C     0.40575   0.90608   0.87881   0.00000  Uiso   1.00
C341   C     0.42588   0.77626   0.89002   0.00000  Uiso   1.00
C342   C     0.44783   0.76095   0.94676   0.00000  Uiso   1.00
C343   C     0.33463   0.99153   0.84245   0.00000  Uiso   1.00
C344   C     0.29497   0.93353   0.82311   0.00000  Uiso   1.00
C345   C     0.25704   0.99014   0.84925   0.00000  Uiso   1.00
H346   H     0.38452   0.23551   0.93494   0.00000  Uiso   1.00
H347   H     0.42353   0.40578   0.85723   0.00000  Uiso   1.00
H348   H     0.43070   0.08720   0.01340   0.00000  Uiso   1.00
H349   H     0.29981   0.24445   0.94649   0.00000  Uiso   1.00
H350   H     0.46604   0.54574   0.75172   0.00000  Uiso   1.00
H351   H     0.48115   0.87399   0.08103   0.00000  Uiso   1.00
H352   H     0.20514   0.20558   0.93995   0.00000  Uiso   1.00
H353   H     0.37868   0.85961   0.78577   0.00000  Uiso   1.00
H354   H     0.41737   0.00926   0.69987   0.00000  Uiso   1.00
H355   H     0.42454   0.69068   0.85605   0.00000  Uiso   1.00
H356   H     0.29365   0.84793   0.78914   0.00000  Uiso   1.00
H357   H     0.46105   0.22391   0.62401   0.00000  Uiso   1.00
H358   H     0.47615   0.55215   0.95331   0.00000  Uiso   1.00
H359   H     0.20014   0.88375   0.81223   0.00000  Uiso   1.00
O360   O     0.48912   0.49003   0.63405   0.00000  Uiso   1.00
O361   O     0.50893   0.60871   0.06610   0.00000  Uiso   1.00
O362   O     0.14681   0.04375   0.88100   0.00000  Uiso   1.00
N363   N     0.45955   0.44947   0.73345   0.00000  Uiso   1.00
N364   N     0.47368   0.82143   0.04132   0.00000  Uiso   1.00
N365   N     0.21563   0.13141   0.90944   0.00000  Uiso   1.00
N366   N     0.45686   0.27630   0.66472   0.00000  Uiso   1.00
N367   N     0.47099   0.64826   0.97260   0.00000  Uiso   1.00
N368   N     0.21294   0.95824   0.84072   0.00000  Uiso   1.00
