data_job_03532
_audit_creation_date              2018-12-19
_audit_creation_method            'Materials Studio'
_symmetry_space_group_name_H-M    'P1'
_symmetry_Int_Tables_number       1
_symmetry_cell_setting            triclinic
loop_
_symmetry_equiv_pos_as_xyz
  x,y,z
_cell_length_a                    23.4560
_cell_length_b                    9.9506
_cell_length_c                    30.4327
_cell_angle_alpha                 90.0000
_cell_angle_beta                  125.7666
_cell_angle_gamma                 90.0000
loop_
_atom_site_label
_atom_site_type_symbol
_atom_site_fract_x
_atom_site_fract_y
_atom_site_fract_z
_atom_site_U_iso_or_equiv
_atom_site_adp_type
_atom_site_occupancy
C1     C     0.99841   0.36090   0.16003   0.00000  Uiso   1.00
C2     C     0.99546   0.32051   0.11040   0.00000  Uiso   1.00
C3     C     0.94967   0.22734   0.07157   0.00000  Uiso   1.00
C4     C     0.95531   0.20443   0.02924   0.00000  Uiso   1.00
C5     C     0.94320   0.13134   0.95270   0.00000  Uiso   1.00
C6     C     0.07370   0.33483   0.20883   0.00000  Uiso   1.00
C7     C     0.09368   0.25371   0.25277   0.00000  Uiso   1.00
C8     C     0.16518   0.24286   0.29331   0.00000  Uiso   1.00
C9     C     0.27452   0.19208   0.36960   0.00000  Uiso   1.00
C10    C     0.98875   0.51299   0.15668   0.00000  Uiso   1.00
C11    C     0.93733   0.58168   0.15678   0.00000  Uiso   1.00
C12    C     0.93733   0.72084   0.15342   0.00000  Uiso   1.00
C13    C     0.91478   0.94669   0.14874   0.00000  Uiso   1.00
C14    C     0.08985   0.48588   0.15392   0.00000  Uiso   1.00
C15    C     0.04513   0.38840   0.10708   0.00000  Uiso   1.00
C16    C     0.05084   0.36563   0.06481   0.00000  Uiso   1.00
C17    C     0.00507   0.27244   0.02592   0.00000  Uiso   1.00
C18    C     0.12336   0.40271   0.20552   0.00000  Uiso   1.00
C19    C     0.19485   0.39199   0.24601   0.00000  Uiso   1.00
C20    C     0.21494   0.31087   0.28999   0.00000  Uiso   1.00
C21    C     0.03842   0.58088   0.15336   0.00000  Uiso   1.00
C22    C     0.03850   0.71996   0.15001   0.00000  Uiso   1.00
C23    C     0.98709   0.78885   0.15010   0.00000  Uiso   1.00
H24    H     0.95975   0.30804   0.16262   0.00000  Uiso   1.00
H25    H     0.91125   0.17482   0.07415   0.00000  Uiso   1.00
H26    H     0.05524   0.20119   0.25532   0.00000  Uiso   1.00
H27    H     0.89891   0.52911   0.15935   0.00000  Uiso   1.00
H28    H     0.87940   0.05701   0.97462   0.00000  Uiso   1.00
H29    H     0.18300   0.11267   0.35664   0.00000  Uiso   1.00
H30    H     0.85335   0.80415   0.15425   0.00000  Uiso   1.00
H31    H     0.12852   0.53874   0.15134   0.00000  Uiso   1.00
H32    H     0.08928   0.41818   0.06225   0.00000  Uiso   1.00
H33    H     0.23327   0.44455   0.24342   0.00000  Uiso   1.00
H34    H     0.07694   0.77247   0.14744   0.00000  Uiso   1.00
H35    H     0.02389   0.25453   0.96496   0.00000  Uiso   1.00
H36    H     0.32750   0.31018   0.34698   0.00000  Uiso   1.00
H37    H     0.99785   0.00167   0.14459   0.00000  Uiso   1.00
O38    O     0.92280   0.07226   0.91139   0.00000  Uiso   1.00
O39    O     0.32111   0.14530   0.41260   0.00000  Uiso   1.00
O40    O     0.88862   0.05251   0.14706   0.00000  Uiso   1.00
N41    N     0.91878   0.12007   0.98456   0.00000  Uiso   1.00
N42    N     0.20263   0.17208   0.34173   0.00000  Uiso   1.00
N43    N     0.89445   0.81856   0.15253   0.00000  Uiso   1.00
N44    N     0.99653   0.22635   0.97937   0.00000  Uiso   1.00
N45    N     0.28038   0.27836   0.33653   0.00000  Uiso   1.00
N46    N     0.97220   0.92484   0.14733   0.00000  Uiso   1.00
C47    C     0.49841   0.86090   0.16003   0.00000  Uiso   1.00
C48    C     0.49546   0.82051   0.11040   0.00000  Uiso   1.00
C49    C     0.44967   0.72734   0.07157   0.00000  Uiso   1.00
C50    C     0.45531   0.70443   0.02924   0.00000  Uiso   1.00
C51    C     0.44320   0.63134   0.95270   0.00000  Uiso   1.00
C52    C     0.57370   0.83483   0.20883   0.00000  Uiso   1.00
C53    C     0.59368   0.75371   0.25277   0.00000  Uiso   1.00
C54    C     0.66518   0.74286   0.29331   0.00000  Uiso   1.00
C55    C     0.77452   0.69208   0.36960   0.00000  Uiso   1.00
C56    C     0.48875   0.01299   0.15668   0.00000  Uiso   1.00
C57    C     0.43733   0.08168   0.15678   0.00000  Uiso   1.00
C58    C     0.43733   0.22084   0.15342   0.00000  Uiso   1.00
C59    C     0.41478   0.44669   0.14874   0.00000  Uiso   1.00
C60    C     0.58985   0.98588   0.15392   0.00000  Uiso   1.00
C61    C     0.54513   0.88840   0.10708   0.00000  Uiso   1.00
C62    C     0.55084   0.86563   0.06481   0.00000  Uiso   1.00
C63    C     0.50507   0.77244   0.02592   0.00000  Uiso   1.00
C64    C     0.62336   0.90271   0.20552   0.00000  Uiso   1.00
C65    C     0.69485   0.89199   0.24601   0.00000  Uiso   1.00
C66    C     0.71494   0.81087   0.28999   0.00000  Uiso   1.00
C67    C     0.53842   0.08088   0.15336   0.00000  Uiso   1.00
C68    C     0.53850   0.21996   0.15001   0.00000  Uiso   1.00
C69    C     0.48709   0.28885   0.15010   0.00000  Uiso   1.00
H70    H     0.45975   0.80804   0.16262   0.00000  Uiso   1.00
H71    H     0.41125   0.67482   0.07415   0.00000  Uiso   1.00
H72    H     0.55524   0.70119   0.25532   0.00000  Uiso   1.00
H73    H     0.39891   0.02911   0.15935   0.00000  Uiso   1.00
H74    H     0.37940   0.55701   0.97462   0.00000  Uiso   1.00
H75    H     0.68300   0.61267   0.35664   0.00000  Uiso   1.00
H76    H     0.35335   0.30415   0.15425   0.00000  Uiso   1.00
H77    H     0.62852   0.03874   0.15134   0.00000  Uiso   1.00
H78    H     0.58928   0.91818   0.06225   0.00000  Uiso   1.00
H79    H     0.73327   0.94455   0.24342   0.00000  Uiso   1.00
H80    H     0.57694   0.27247   0.14744   0.00000  Uiso   1.00
H81    H     0.52389   0.75453   0.96496   0.00000  Uiso   1.00
H82    H     0.82750   0.81018   0.34698   0.00000  Uiso   1.00
H83    H     0.49785   0.50167   0.14459   0.00000  Uiso   1.00
O84    O     0.42280   0.57226   0.91139   0.00000  Uiso   1.00
O85    O     0.82111   0.64530   0.41260   0.00000  Uiso   1.00
O86    O     0.38862   0.55251   0.14706   0.00000  Uiso   1.00
N87    N     0.41878   0.62007   0.98456   0.00000  Uiso   1.00
N88    N     0.70263   0.67208   0.34173   0.00000  Uiso   1.00
N89    N     0.39445   0.31856   0.15253   0.00000  Uiso   1.00
N90    N     0.49653   0.72635   0.97937   0.00000  Uiso   1.00
N91    N     0.78038   0.77836   0.33653   0.00000  Uiso   1.00
N92    N     0.47220   0.42484   0.14733   0.00000  Uiso   1.00
C93    C     0.00159   0.36090   0.33997   0.00000  Uiso   1.00
C94    C     0.00454   0.32051   0.38960   0.00000  Uiso   1.00
C95    C     0.05033   0.22734   0.42843   0.00000  Uiso   1.00
C96    C     0.04469   0.20443   0.47076   0.00000  Uiso   1.00
C97    C     0.05680   0.13134   0.54730   0.00000  Uiso   1.00
C98    C     0.92630   0.33483   0.29117   0.00000  Uiso   1.00
C99    C     0.90632   0.25371   0.24723   0.00000  Uiso   1.00
C100   C     0.83482   0.24286   0.20669   0.00000  Uiso   1.00
C101   C     0.72548   0.19208   0.13040   0.00000  Uiso   1.00
C102   C     0.01125   0.51299   0.34332   0.00000  Uiso   1.00
C103   C     0.06267   0.58168   0.34322   0.00000  Uiso   1.00
C104   C     0.06267   0.72084   0.34658   0.00000  Uiso   1.00
C105   C     0.08522   0.94669   0.35126   0.00000  Uiso   1.00
C106   C     0.91015   0.48588   0.34608   0.00000  Uiso   1.00
C107   C     0.95487   0.38840   0.39292   0.00000  Uiso   1.00
C108   C     0.94916   0.36563   0.43519   0.00000  Uiso   1.00
C109   C     0.99493   0.27244   0.47408   0.00000  Uiso   1.00
C110   C     0.87664   0.40271   0.29448   0.00000  Uiso   1.00
C111   C     0.80515   0.39199   0.25399   0.00000  Uiso   1.00
C112   C     0.78506   0.31087   0.21001   0.00000  Uiso   1.00
C113   C     0.96158   0.58088   0.34664   0.00000  Uiso   1.00
C114   C     0.96150   0.71996   0.34999   0.00000  Uiso   1.00
C115   C     0.01291   0.78885   0.34990   0.00000  Uiso   1.00
H116   H     0.04025   0.30804   0.33738   0.00000  Uiso   1.00
H117   H     0.08875   0.17482   0.42585   0.00000  Uiso   1.00
H118   H     0.94476   0.20119   0.24468   0.00000  Uiso   1.00
H119   H     0.10109   0.52911   0.34065   0.00000  Uiso   1.00
H120   H     0.12060   0.05701   0.52538   0.00000  Uiso   1.00
H121   H     0.81700   0.11267   0.14336   0.00000  Uiso   1.00
H122   H     0.14665   0.80415   0.34575   0.00000  Uiso   1.00
H123   H     0.87148   0.53874   0.34866   0.00000  Uiso   1.00
H124   H     0.91072   0.41818   0.43775   0.00000  Uiso   1.00
H125   H     0.76673   0.44455   0.25658   0.00000  Uiso   1.00
H126   H     0.92306   0.77247   0.35256   0.00000  Uiso   1.00
H127   H     0.97611   0.25453   0.53504   0.00000  Uiso   1.00
H128   H     0.67250   0.31018   0.15302   0.00000  Uiso   1.00
H129   H     0.00215   0.00167   0.35541   0.00000  Uiso   1.00
O130   O     0.07720   0.07226   0.58861   0.00000  Uiso   1.00
O131   O     0.67889   0.14530   0.08740   0.00000  Uiso   1.00
O132   O     0.11138   0.05251   0.35294   0.00000  Uiso   1.00
N133   N     0.08122   0.12007   0.51544   0.00000  Uiso   1.00
N134   N     0.79737   0.17208   0.15827   0.00000  Uiso   1.00
N135   N     0.10555   0.81856   0.34747   0.00000  Uiso   1.00
N136   N     0.00347   0.22635   0.52063   0.00000  Uiso   1.00
N137   N     0.71962   0.27836   0.16347   0.00000  Uiso   1.00
N138   N     0.02780   0.92484   0.35267   0.00000  Uiso   1.00
C139   C     0.50159   0.86090   0.33997   0.00000  Uiso   1.00
C140   C     0.50454   0.82051   0.38960   0.00000  Uiso   1.00
C141   C     0.55033   0.72734   0.42843   0.00000  Uiso   1.00
C142   C     0.54469   0.70443   0.47076   0.00000  Uiso   1.00
C143   C     0.55680   0.63134   0.54730   0.00000  Uiso   1.00
C144   C     0.42630   0.83483   0.29117   0.00000  Uiso   1.00
C145   C     0.40632   0.75371   0.24723   0.00000  Uiso   1.00
C146   C     0.33482   0.74286   0.20669   0.00000  Uiso   1.00
C147   C     0.22548   0.69208   0.13040   0.00000  Uiso   1.00
C148   C     0.51125   0.01299   0.34332   0.00000  Uiso   1.00
C149   C     0.56267   0.08168   0.34322   0.00000  Uiso   1.00
C150   C     0.56267   0.22084   0.34658   0.00000  Uiso   1.00
C151   C     0.58522   0.44669   0.35126   0.00000  Uiso   1.00
C152   C     0.41015   0.98588   0.34608   0.00000  Uiso   1.00
C153   C     0.45487   0.88840   0.39292   0.00000  Uiso   1.00
C154   C     0.44916   0.86563   0.43519   0.00000  Uiso   1.00
C155   C     0.49493   0.77244   0.47408   0.00000  Uiso   1.00
C156   C     0.37664   0.90271   0.29448   0.00000  Uiso   1.00
C157   C     0.30515   0.89199   0.25399   0.00000  Uiso   1.00
C158   C     0.28506   0.81087   0.21001   0.00000  Uiso   1.00
C159   C     0.46158   0.08088   0.34664   0.00000  Uiso   1.00
C160   C     0.46150   0.21996   0.34999   0.00000  Uiso   1.00
C161   C     0.51291   0.28885   0.34990   0.00000  Uiso   1.00
H162   H     0.54025   0.80804   0.33738   0.00000  Uiso   1.00
H163   H     0.58875   0.67482   0.42585   0.00000  Uiso   1.00
H164   H     0.44476   0.70119   0.24468   0.00000  Uiso   1.00
H165   H     0.60109   0.02911   0.34065   0.00000  Uiso   1.00
H166   H     0.62060   0.55701   0.52538   0.00000  Uiso   1.00
H167   H     0.31700   0.61267   0.14336   0.00000  Uiso   1.00
H168   H     0.64665   0.30415   0.34575   0.00000  Uiso   1.00
H169   H     0.37148   0.03874   0.34866   0.00000  Uiso   1.00
H170   H     0.41072   0.91818   0.43775   0.00000  Uiso   1.00
H171   H     0.26673   0.94455   0.25658   0.00000  Uiso   1.00
H172   H     0.42306   0.27247   0.35256   0.00000  Uiso   1.00
H173   H     0.47611   0.75453   0.53504   0.00000  Uiso   1.00
H174   H     0.17250   0.81018   0.15302   0.00000  Uiso   1.00
H175   H     0.50215   0.50167   0.35541   0.00000  Uiso   1.00
O176   O     0.57720   0.57226   0.58861   0.00000  Uiso   1.00
O177   O     0.17889   0.64530   0.08740   0.00000  Uiso   1.00
O178   O     0.61138   0.55251   0.35294   0.00000  Uiso   1.00
N179   N     0.58122   0.62007   0.51544   0.00000  Uiso   1.00
N180   N     0.29737   0.67208   0.15827   0.00000  Uiso   1.00
N181   N     0.60555   0.31856   0.34747   0.00000  Uiso   1.00
N182   N     0.50347   0.72635   0.52063   0.00000  Uiso   1.00
N183   N     0.21962   0.77836   0.16347   0.00000  Uiso   1.00
N184   N     0.52780   0.42484   0.35267   0.00000  Uiso   1.00
C185   C     0.00159   0.63910   0.83997   0.00000  Uiso   1.00
C186   C     0.00454   0.67949   0.88960   0.00000  Uiso   1.00
C187   C     0.05033   0.77266   0.92843   0.00000  Uiso   1.00
C188   C     0.04469   0.79557   0.97076   0.00000  Uiso   1.00
C189   C     0.05680   0.86866   0.04730   0.00000  Uiso   1.00
C190   C     0.92630   0.66517   0.79117   0.00000  Uiso   1.00
C191   C     0.90632   0.74629   0.74723   0.00000  Uiso   1.00
C192   C     0.83482   0.75714   0.70669   0.00000  Uiso   1.00
C193   C     0.72548   0.80792   0.63040   0.00000  Uiso   1.00
C194   C     0.01125   0.48701   0.84332   0.00000  Uiso   1.00
C195   C     0.06267   0.41832   0.84322   0.00000  Uiso   1.00
C196   C     0.06267   0.27916   0.84658   0.00000  Uiso   1.00
C197   C     0.08522   0.05331   0.85126   0.00000  Uiso   1.00
C198   C     0.91015   0.51412   0.84608   0.00000  Uiso   1.00
C199   C     0.95487   0.61160   0.89292   0.00000  Uiso   1.00
C200   C     0.94916   0.63437   0.93519   0.00000  Uiso   1.00
C201   C     0.99493   0.72756   0.97408   0.00000  Uiso   1.00
C202   C     0.87664   0.59729   0.79448   0.00000  Uiso   1.00
C203   C     0.80515   0.60801   0.75399   0.00000  Uiso   1.00
C204   C     0.78506   0.68913   0.71001   0.00000  Uiso   1.00
C205   C     0.96158   0.41912   0.84664   0.00000  Uiso   1.00
C206   C     0.96150   0.28004   0.84999   0.00000  Uiso   1.00
C207   C     0.01291   0.21115   0.84990   0.00000  Uiso   1.00
H208   H     0.04025   0.69196   0.83738   0.00000  Uiso   1.00
H209   H     0.08875   0.82518   0.92585   0.00000  Uiso   1.00
H210   H     0.94476   0.79881   0.74468   0.00000  Uiso   1.00
H211   H     0.10109   0.47089   0.84065   0.00000  Uiso   1.00
H212   H     0.12060   0.94299   0.02538   0.00000  Uiso   1.00
H213   H     0.81700   0.88733   0.64336   0.00000  Uiso   1.00
H214   H     0.14665   0.19585   0.84575   0.00000  Uiso   1.00
H215   H     0.87148   0.46126   0.84866   0.00000  Uiso   1.00
H216   H     0.91072   0.58182   0.93775   0.00000  Uiso   1.00
H217   H     0.76673   0.55545   0.75658   0.00000  Uiso   1.00
H218   H     0.92306   0.22753   0.85256   0.00000  Uiso   1.00
H219   H     0.97611   0.74547   0.03504   0.00000  Uiso   1.00
H220   H     0.67250   0.68982   0.65302   0.00000  Uiso   1.00
H221   H     0.00215   0.99833   0.85541   0.00000  Uiso   1.00
O222   O     0.07720   0.92774   0.08861   0.00000  Uiso   1.00
O223   O     0.67889   0.85470   0.58740   0.00000  Uiso   1.00
O224   O     0.11138   0.94749   0.85294   0.00000  Uiso   1.00
N225   N     0.08122   0.87993   0.01544   0.00000  Uiso   1.00
N226   N     0.79737   0.82792   0.65827   0.00000  Uiso   1.00
N227   N     0.10555   0.18144   0.84747   0.00000  Uiso   1.00
N228   N     0.00347   0.77365   0.02063   0.00000  Uiso   1.00
N229   N     0.71962   0.72164   0.66347   0.00000  Uiso   1.00
N230   N     0.02780   0.07516   0.85267   0.00000  Uiso   1.00
C231   C     0.50159   0.13910   0.83997   0.00000  Uiso   1.00
C232   C     0.50454   0.17949   0.88960   0.00000  Uiso   1.00
C233   C     0.55033   0.27266   0.92843   0.00000  Uiso   1.00
C234   C     0.54469   0.29557   0.97076   0.00000  Uiso   1.00
C235   C     0.55680   0.36866   0.04730   0.00000  Uiso   1.00
C236   C     0.42630   0.16517   0.79117   0.00000  Uiso   1.00
C237   C     0.40632   0.24629   0.74723   0.00000  Uiso   1.00
C238   C     0.33482   0.25714   0.70669   0.00000  Uiso   1.00
C239   C     0.22548   0.30792   0.63040   0.00000  Uiso   1.00
C240   C     0.51125   0.98701   0.84332   0.00000  Uiso   1.00
C241   C     0.56267   0.91832   0.84322   0.00000  Uiso   1.00
C242   C     0.56267   0.77916   0.84658   0.00000  Uiso   1.00
C243   C     0.58522   0.55331   0.85126   0.00000  Uiso   1.00
C244   C     0.41015   0.01412   0.84608   0.00000  Uiso   1.00
C245   C     0.45487   0.11160   0.89292   0.00000  Uiso   1.00
C246   C     0.44916   0.13437   0.93519   0.00000  Uiso   1.00
C247   C     0.49493   0.22756   0.97408   0.00000  Uiso   1.00
C248   C     0.37664   0.09729   0.79448   0.00000  Uiso   1.00
C249   C     0.30515   0.10801   0.75399   0.00000  Uiso   1.00
C250   C     0.28506   0.18913   0.71001   0.00000  Uiso   1.00
C251   C     0.46158   0.91912   0.84664   0.00000  Uiso   1.00
C252   C     0.46150   0.78004   0.84999   0.00000  Uiso   1.00
C253   C     0.51291   0.71115   0.84990   0.00000  Uiso   1.00
H254   H     0.54025   0.19196   0.83738   0.00000  Uiso   1.00
H255   H     0.58875   0.32518   0.92585   0.00000  Uiso   1.00
H256   H     0.44476   0.29881   0.74468   0.00000  Uiso   1.00
H257   H     0.60109   0.97089   0.84065   0.00000  Uiso   1.00
H258   H     0.62060   0.44299   0.02538   0.00000  Uiso   1.00
H259   H     0.31700   0.38733   0.64336   0.00000  Uiso   1.00
H260   H     0.64665   0.69585   0.84575   0.00000  Uiso   1.00
H261   H     0.37148   0.96126   0.84866   0.00000  Uiso   1.00
H262   H     0.41072   0.08182   0.93775   0.00000  Uiso   1.00
H263   H     0.26673   0.05545   0.75658   0.00000  Uiso   1.00
H264   H     0.42306   0.72753   0.85256   0.00000  Uiso   1.00
H265   H     0.47611   0.24547   0.03504   0.00000  Uiso   1.00
H266   H     0.17250   0.18982   0.65302   0.00000  Uiso   1.00
H267   H     0.50215   0.49833   0.85541   0.00000  Uiso   1.00
O268   O     0.57720   0.42774   0.08861   0.00000  Uiso   1.00
O269   O     0.17889   0.35470   0.58740   0.00000  Uiso   1.00
O270   O     0.61138   0.44749   0.85294   0.00000  Uiso   1.00
N271   N     0.58122   0.37993   0.01544   0.00000  Uiso   1.00
N272   N     0.29737   0.32792   0.65827   0.00000  Uiso   1.00
N273   N     0.60555   0.68144   0.84747   0.00000  Uiso   1.00
N274   N     0.50347   0.27365   0.02063   0.00000  Uiso   1.00
N275   N     0.21962   0.22164   0.66347   0.00000  Uiso   1.00
N276   N     0.52780   0.57516   0.85267   0.00000  Uiso   1.00
C277   C     0.99841   0.63910   0.66003   0.00000  Uiso   1.00
C278   C     0.99546   0.67949   0.61040   0.00000  Uiso   1.00
C279   C     0.94967   0.77266   0.57157   0.00000  Uiso   1.00
C280   C     0.95531   0.79557   0.52924   0.00000  Uiso   1.00
C281   C     0.94320   0.86866   0.45270   0.00000  Uiso   1.00
C282   C     0.07370   0.66517   0.70883   0.00000  Uiso   1.00
C283   C     0.09368   0.74629   0.75277   0.00000  Uiso   1.00
C284   C     0.16518   0.75714   0.79331   0.00000  Uiso   1.00
C285   C     0.27452   0.80792   0.86960   0.00000  Uiso   1.00
C286   C     0.98875   0.48701   0.65668   0.00000  Uiso   1.00
C287   C     0.93733   0.41832   0.65678   0.00000  Uiso   1.00
C288   C     0.93733   0.27916   0.65342   0.00000  Uiso   1.00
C289   C     0.91478   0.05331   0.64874   0.00000  Uiso   1.00
C290   C     0.08985   0.51412   0.65392   0.00000  Uiso   1.00
C291   C     0.04513   0.61160   0.60708   0.00000  Uiso   1.00
C292   C     0.05084   0.63437   0.56481   0.00000  Uiso   1.00
C293   C     0.00507   0.72756   0.52592   0.00000  Uiso   1.00
C294   C     0.12336   0.59729   0.70552   0.00000  Uiso   1.00
C295   C     0.19485   0.60801   0.74601   0.00000  Uiso   1.00
C296   C     0.21494   0.68913   0.78999   0.00000  Uiso   1.00
C297   C     0.03842   0.41912   0.65336   0.00000  Uiso   1.00
C298   C     0.03850   0.28004   0.65001   0.00000  Uiso   1.00
C299   C     0.98709   0.21115   0.65010   0.00000  Uiso   1.00
H300   H     0.95975   0.69196   0.66262   0.00000  Uiso   1.00
H301   H     0.91125   0.82518   0.57415   0.00000  Uiso   1.00
H302   H     0.05524   0.79881   0.75532   0.00000  Uiso   1.00
H303   H     0.89891   0.47089   0.65935   0.00000  Uiso   1.00
H304   H     0.87940   0.94299   0.47462   0.00000  Uiso   1.00
H305   H     0.18300   0.88733   0.85664   0.00000  Uiso   1.00
H306   H     0.85335   0.19585   0.65425   0.00000  Uiso   1.00
H307   H     0.12852   0.46126   0.65134   0.00000  Uiso   1.00
H308   H     0.08928   0.58182   0.56225   0.00000  Uiso   1.00
H309   H     0.23327   0.55545   0.74342   0.00000  Uiso   1.00
H310   H     0.07694   0.22753   0.64744   0.00000  Uiso   1.00
H311   H     0.02389   0.74547   0.46496   0.00000  Uiso   1.00
H312   H     0.32750   0.68982   0.84698   0.00000  Uiso   1.00
H313   H     0.99785   0.99833   0.64459   0.00000  Uiso   1.00
O314   O     0.92280   0.92774   0.41139   0.00000  Uiso   1.00
O315   O     0.32111   0.85470   0.91260   0.00000  Uiso   1.00
O316   O     0.88862   0.94749   0.64706   0.00000  Uiso   1.00
N317   N     0.91878   0.87993   0.48456   0.00000  Uiso   1.00
N318   N     0.20263   0.82792   0.84173   0.00000  Uiso   1.00
N319   N     0.89445   0.18144   0.65253   0.00000  Uiso   1.00
N320   N     0.99653   0.77365   0.47937   0.00000  Uiso   1.00
N321   N     0.28038   0.72164   0.83653   0.00000  Uiso   1.00
N322   N     0.97220   0.07516   0.64733   0.00000  Uiso   1.00
C323   C     0.49841   0.13910   0.66003   0.00000  Uiso   1.00
C324   C     0.49546   0.17949   0.61040   0.00000  Uiso   1.00
C325   C     0.44967   0.27266   0.57157   0.00000  Uiso   1.00
C326   C     0.45531   0.29557   0.52924   0.00000  Uiso   1.00
C327   C     0.44320   0.36866   0.45270   0.00000  Uiso   1.00
C328   C     0.57370   0.16517   0.70883   0.00000  Uiso   1.00
C329   C     0.59368   0.24629   0.75277   0.00000  Uiso   1.00
C330   C     0.66518   0.25714   0.79331   0.00000  Uiso   1.00
C331   C     0.77452   0.30792   0.86960   0.00000  Uiso   1.00
C332   C     0.48875   0.98701   0.65668   0.00000  Uiso   1.00
C333   C     0.43733   0.91832   0.65678   0.00000  Uiso   1.00
C334   C     0.43733   0.77916   0.65342   0.00000  Uiso   1.00
C335   C     0.41478   0.55331   0.64874   0.00000  Uiso   1.00
C336   C     0.58985   0.01412   0.65392   0.00000  Uiso   1.00
C337   C     0.54513   0.11160   0.60708   0.00000  Uiso   1.00
C338   C     0.55084   0.13437   0.56481   0.00000  Uiso   1.00
C339   C     0.50507   0.22756   0.52592   0.00000  Uiso   1.00
C340   C     0.62336   0.09729   0.70552   0.00000  Uiso   1.00
C341   C     0.69485   0.10801   0.74601   0.00000  Uiso   1.00
C342   C     0.71494   0.18913   0.78999   0.00000  Uiso   1.00
C343   C     0.53842   0.91912   0.65336   0.00000  Uiso   1.00
C344   C     0.53850   0.78004   0.65001   0.00000  Uiso   1.00
C345   C     0.48709   0.71115   0.65010   0.00000  Uiso   1.00
H346   H     0.45975   0.19196   0.66262   0.00000  Uiso   1.00
H347   H     0.41125   0.32518   0.57415   0.00000  Uiso   1.00
H348   H     0.55524   0.29881   0.75532   0.00000  Uiso   1.00
H349   H     0.39891   0.97089   0.65935   0.00000  Uiso   1.00
H350   H     0.37940   0.44299   0.47462   0.00000  Uiso   1.00
H351   H     0.68300   0.38733   0.85664   0.00000  Uiso   1.00
H352   H     0.35335   0.69585   0.65425   0.00000  Uiso   1.00
H353   H     0.62852   0.96126   0.65134   0.00000  Uiso   1.00
H354   H     0.58928   0.08182   0.56225   0.00000  Uiso   1.00
H355   H     0.73327   0.05545   0.74342   0.00000  Uiso   1.00
H356   H     0.57694   0.72753   0.64744   0.00000  Uiso   1.00
H357   H     0.52389   0.24547   0.46496   0.00000  Uiso   1.00
H358   H     0.82750   0.18982   0.84698   0.00000  Uiso   1.00
H359   H     0.49785   0.49833   0.64459   0.00000  Uiso   1.00
O360   O     0.42280   0.42774   0.41139   0.00000  Uiso   1.00
O361   O     0.82111   0.35470   0.91260   0.00000  Uiso   1.00
O362   O     0.38862   0.44749   0.64706   0.00000  Uiso   1.00
N363   N     0.41878   0.37993   0.48456   0.00000  Uiso   1.00
N364   N     0.70263   0.32792   0.84173   0.00000  Uiso   1.00
N365   N     0.39445   0.68144   0.65253   0.00000  Uiso   1.00
N366   N     0.49653   0.27365   0.47937   0.00000  Uiso   1.00
N367   N     0.78038   0.22164   0.83653   0.00000  Uiso   1.00
N368   N     0.47220   0.57516   0.64733   0.00000  Uiso   1.00
