data_job_00874
_audit_creation_date              2018-12-19
_audit_creation_method            'Materials Studio'
_symmetry_space_group_name_H-M    'P1'
_symmetry_Int_Tables_number       1
_symmetry_cell_setting            triclinic
loop_
_symmetry_equiv_pos_as_xyz
  x,y,z
_cell_length_a                    13.6925
_cell_length_b                    12.5607
_cell_length_c                    25.3075
_cell_angle_alpha                 90.0000
_cell_angle_beta                  90.0000
_cell_angle_gamma                 90.0000
loop_
_atom_site_label
_atom_site_type_symbol
_atom_site_fract_x
_atom_site_fract_y
_atom_site_fract_z
_atom_site_U_iso_or_equiv
_atom_site_adp_type
_atom_site_occupancy
C1     C     0.01062   0.21345   0.82630   0.00000  Uiso   1.00
C2     C     0.97534   0.29530   0.86651   0.00000  Uiso   1.00
C3     C     0.92760   0.38987   0.85482   0.00000  Uiso   1.00
C4     C     0.90130   0.45395   0.89720   0.00000  Uiso   1.00
C5     C     0.84341   0.58555   0.95169   0.00000  Uiso   1.00
C6     C     0.11968   0.19953   0.83636   0.00000  Uiso   1.00
C7     C     0.19330   0.21358   0.79931   0.00000  Uiso   1.00
C8     C     0.28851   0.19703   0.81631   0.00000  Uiso   1.00
C9     C     0.45471   0.17987   0.82398   0.00000  Uiso   1.00
C10    C     0.96301   0.10828   0.84186   0.00000  Uiso   1.00
C11    C     0.90492   0.04557   0.80944   0.00000  Uiso   1.00
C12    C     0.86825   0.95218   0.83107   0.00000  Uiso   1.00
C13    C     0.79119   0.79334   0.84729   0.00000  Uiso   1.00
C14    C     0.04880   0.15908   0.92235   0.00000  Uiso   1.00
C15    C     0.99608   0.26576   0.91868   0.00000  Uiso   1.00
C16    C     0.96985   0.32971   0.96108   0.00000  Uiso   1.00
C17    C     0.92208   0.42436   0.94946   0.00000  Uiso   1.00
C18    C     0.14042   0.17000   0.88852   0.00000  Uiso   1.00
C19    C     0.23555   0.15342   0.90557   0.00000  Uiso   1.00
C20    C     0.30929   0.16744   0.86857   0.00000  Uiso   1.00
C21    C     0.98375   0.07874   0.89403   0.00000  Uiso   1.00
C22    C     0.94717   0.98542   0.91571   0.00000  Uiso   1.00
C23    C     0.88903   0.92259   0.88333   0.00000  Uiso   1.00
H24    H     0.99448   0.23645   0.78569   0.00000  Uiso   1.00
H25    H     0.91157   0.41270   0.81444   0.00000  Uiso   1.00
H26    H     0.17723   0.23642   0.75895   0.00000  Uiso   1.00
H27    H     0.88889   0.06845   0.76908   0.00000  Uiso   1.00
H28    H     0.82883   0.59511   0.86933   0.00000  Uiso   1.00
H29    H     0.38898   0.22338   0.75230   0.00000  Uiso   1.00
H30    H     0.78097   0.86918   0.77366   0.00000  Uiso   1.00
H31    H     0.06495   0.13608   0.96296   0.00000  Uiso   1.00
H32    H     0.98591   0.30684   0.00145   0.00000  Uiso   1.00
H33    H     0.25157   0.13056   0.94595   0.00000  Uiso   1.00
H34    H     0.96323   0.96259   0.95608   0.00000  Uiso   1.00
H35    H     0.88917   0.50919   0.02111   0.00000  Uiso   1.00
H36    H     0.44932   0.13745   0.90408   0.00000  Uiso   1.00
H37    H     0.84131   0.78326   0.92544   0.00000  Uiso   1.00
O38    O     0.80576   0.66630   0.96733   0.00000  Uiso   1.00
O39    O     0.54065   0.17858   0.81380   0.00000  Uiso   1.00
O40    O     0.74295   0.71389   0.84182   0.00000  Uiso   1.00
N41    N     0.85386   0.55144   0.89977   0.00000  Uiso   1.00
N42    N     0.37757   0.20391   0.79036   0.00000  Uiso   1.00
N43    N     0.80915   0.87275   0.81033   0.00000  Uiso   1.00
N44    N     0.88633   0.50521   0.98144   0.00000  Uiso   1.00
N45    N     0.41004   0.15768   0.87203   0.00000  Uiso   1.00
N46    N     0.84162   0.82652   0.89200   0.00000  Uiso   1.00
C47    C     0.48938   0.28655   0.32630   0.00000  Uiso   1.00
C48    C     0.52466   0.20470   0.36651   0.00000  Uiso   1.00
C49    C     0.57240   0.11013   0.35482   0.00000  Uiso   1.00
C50    C     0.59870   0.04605   0.39720   0.00000  Uiso   1.00
C51    C     0.65659   0.91445   0.45169   0.00000  Uiso   1.00
C52    C     0.38032   0.30047   0.33636   0.00000  Uiso   1.00
C53    C     0.30670   0.28642   0.29931   0.00000  Uiso   1.00
C54    C     0.21149   0.30297   0.31631   0.00000  Uiso   1.00
C55    C     0.04529   0.32013   0.32398   0.00000  Uiso   1.00
C56    C     0.53699   0.39172   0.34186   0.00000  Uiso   1.00
C57    C     0.59508   0.45443   0.30944   0.00000  Uiso   1.00
C58    C     0.63175   0.54782   0.33107   0.00000  Uiso   1.00
C59    C     0.70881   0.70666   0.34729   0.00000  Uiso   1.00
C60    C     0.45120   0.34092   0.42235   0.00000  Uiso   1.00
C61    C     0.50392   0.23424   0.41868   0.00000  Uiso   1.00
C62    C     0.53015   0.17029   0.46108   0.00000  Uiso   1.00
C63    C     0.57792   0.07564   0.44946   0.00000  Uiso   1.00
C64    C     0.35958   0.33000   0.38852   0.00000  Uiso   1.00
C65    C     0.26445   0.34658   0.40557   0.00000  Uiso   1.00
C66    C     0.19071   0.33256   0.36857   0.00000  Uiso   1.00
C67    C     0.51625   0.42126   0.39403   0.00000  Uiso   1.00
C68    C     0.55283   0.51458   0.41571   0.00000  Uiso   1.00
C69    C     0.61097   0.57741   0.38333   0.00000  Uiso   1.00
H70    H     0.50552   0.26355   0.28569   0.00000  Uiso   1.00
H71    H     0.58843   0.08730   0.31444   0.00000  Uiso   1.00
H72    H     0.32277   0.26358   0.25895   0.00000  Uiso   1.00
H73    H     0.61111   0.43155   0.26908   0.00000  Uiso   1.00
H74    H     0.67117   0.90489   0.36933   0.00000  Uiso   1.00
H75    H     0.11102   0.27662   0.25230   0.00000  Uiso   1.00
H76    H     0.71903   0.63082   0.27366   0.00000  Uiso   1.00
H77    H     0.43505   0.36392   0.46296   0.00000  Uiso   1.00
H78    H     0.51409   0.19316   0.50145   0.00000  Uiso   1.00
H79    H     0.24843   0.36944   0.44595   0.00000  Uiso   1.00
H80    H     0.53677   0.53741   0.45608   0.00000  Uiso   1.00
H81    H     0.61083   0.99081   0.52111   0.00000  Uiso   1.00
H82    H     0.05068   0.36255   0.40408   0.00000  Uiso   1.00
H83    H     0.65869   0.71674   0.42544   0.00000  Uiso   1.00
O84    O     0.69424   0.83370   0.46733   0.00000  Uiso   1.00
O85    O     0.95935   0.32142   0.31380   0.00000  Uiso   1.00
O86    O     0.75705   0.78611   0.34182   0.00000  Uiso   1.00
N87    N     0.64614   0.94856   0.39977   0.00000  Uiso   1.00
N88    N     0.12243   0.29609   0.29036   0.00000  Uiso   1.00
N89    N     0.69085   0.62725   0.31033   0.00000  Uiso   1.00
N90    N     0.61367   0.99479   0.48144   0.00000  Uiso   1.00
N91    N     0.08996   0.34232   0.37203   0.00000  Uiso   1.00
N92    N     0.65838   0.67348   0.39200   0.00000  Uiso   1.00
C93    C     0.98938   0.21345   0.67370   0.00000  Uiso   1.00
C94    C     0.02466   0.29530   0.63349   0.00000  Uiso   1.00
C95    C     0.07240   0.38987   0.64518   0.00000  Uiso   1.00
C96    C     0.09870   0.45395   0.60280   0.00000  Uiso   1.00
C97    C     0.15659   0.58555   0.54831   0.00000  Uiso   1.00
C98    C     0.88032   0.19953   0.66364   0.00000  Uiso   1.00
C99    C     0.80670   0.21358   0.70069   0.00000  Uiso   1.00
C100   C     0.71149   0.19703   0.68369   0.00000  Uiso   1.00
C101   C     0.54529   0.17987   0.67602   0.00000  Uiso   1.00
C102   C     0.03699   0.10828   0.65814   0.00000  Uiso   1.00
C103   C     0.09508   0.04557   0.69056   0.00000  Uiso   1.00
C104   C     0.13175   0.95218   0.66893   0.00000  Uiso   1.00
C105   C     0.20881   0.79334   0.65271   0.00000  Uiso   1.00
C106   C     0.95120   0.15908   0.57765   0.00000  Uiso   1.00
C107   C     0.00392   0.26576   0.58132   0.00000  Uiso   1.00
C108   C     0.03015   0.32971   0.53892   0.00000  Uiso   1.00
C109   C     0.07792   0.42436   0.55054   0.00000  Uiso   1.00
C110   C     0.85958   0.17000   0.61148   0.00000  Uiso   1.00
C111   C     0.76445   0.15342   0.59443   0.00000  Uiso   1.00
C112   C     0.69071   0.16744   0.63143   0.00000  Uiso   1.00
C113   C     0.01625   0.07874   0.60597   0.00000  Uiso   1.00
C114   C     0.05283   0.98542   0.58429   0.00000  Uiso   1.00
C115   C     0.11097   0.92259   0.61667   0.00000  Uiso   1.00
H116   H     0.00552   0.23645   0.71431   0.00000  Uiso   1.00
H117   H     0.08843   0.41270   0.68556   0.00000  Uiso   1.00
H118   H     0.82277   0.23642   0.74105   0.00000  Uiso   1.00
H119   H     0.11111   0.06845   0.73092   0.00000  Uiso   1.00
H120   H     0.17117   0.59511   0.63067   0.00000  Uiso   1.00
H121   H     0.61102   0.22338   0.74770   0.00000  Uiso   1.00
H122   H     0.21903   0.86918   0.72634   0.00000  Uiso   1.00
H123   H     0.93505   0.13608   0.53704   0.00000  Uiso   1.00
H124   H     0.01409   0.30684   0.49855   0.00000  Uiso   1.00
H125   H     0.74843   0.13056   0.55405   0.00000  Uiso   1.00
H126   H     0.03677   0.96259   0.54392   0.00000  Uiso   1.00
H127   H     0.11083   0.50919   0.47889   0.00000  Uiso   1.00
H128   H     0.55068   0.13745   0.59592   0.00000  Uiso   1.00
H129   H     0.15869   0.78326   0.57456   0.00000  Uiso   1.00
O130   O     0.19424   0.66630   0.53267   0.00000  Uiso   1.00
O131   O     0.45935   0.17858   0.68620   0.00000  Uiso   1.00
O132   O     0.25705   0.71389   0.65818   0.00000  Uiso   1.00
N133   N     0.14614   0.55144   0.60023   0.00000  Uiso   1.00
N134   N     0.62243   0.20391   0.70964   0.00000  Uiso   1.00
N135   N     0.19085   0.87275   0.68967   0.00000  Uiso   1.00
N136   N     0.11367   0.50521   0.51856   0.00000  Uiso   1.00
N137   N     0.58996   0.15768   0.62797   0.00000  Uiso   1.00
N138   N     0.15838   0.82652   0.60800   0.00000  Uiso   1.00
C139   C     0.51062   0.28655   0.17370   0.00000  Uiso   1.00
C140   C     0.47534   0.20470   0.13349   0.00000  Uiso   1.00
C141   C     0.42760   0.11013   0.14518   0.00000  Uiso   1.00
C142   C     0.40130   0.04605   0.10280   0.00000  Uiso   1.00
C143   C     0.34341   0.91445   0.04831   0.00000  Uiso   1.00
C144   C     0.61968   0.30047   0.16364   0.00000  Uiso   1.00
C145   C     0.69330   0.28642   0.20069   0.00000  Uiso   1.00
C146   C     0.78851   0.30297   0.18369   0.00000  Uiso   1.00
C147   C     0.95471   0.32013   0.17602   0.00000  Uiso   1.00
C148   C     0.46301   0.39172   0.15814   0.00000  Uiso   1.00
C149   C     0.40492   0.45443   0.19056   0.00000  Uiso   1.00
C150   C     0.36825   0.54782   0.16893   0.00000  Uiso   1.00
C151   C     0.29119   0.70666   0.15271   0.00000  Uiso   1.00
C152   C     0.54880   0.34092   0.07765   0.00000  Uiso   1.00
C153   C     0.49608   0.23424   0.08132   0.00000  Uiso   1.00
C154   C     0.46985   0.17029   0.03892   0.00000  Uiso   1.00
C155   C     0.42208   0.07564   0.05054   0.00000  Uiso   1.00
C156   C     0.64042   0.33000   0.11148   0.00000  Uiso   1.00
C157   C     0.73555   0.34658   0.09443   0.00000  Uiso   1.00
C158   C     0.80929   0.33256   0.13143   0.00000  Uiso   1.00
C159   C     0.48375   0.42126   0.10597   0.00000  Uiso   1.00
C160   C     0.44717   0.51458   0.08429   0.00000  Uiso   1.00
C161   C     0.38903   0.57741   0.11667   0.00000  Uiso   1.00
H162   H     0.49448   0.26355   0.21431   0.00000  Uiso   1.00
H163   H     0.41157   0.08730   0.18556   0.00000  Uiso   1.00
H164   H     0.67723   0.26358   0.24105   0.00000  Uiso   1.00
H165   H     0.38889   0.43155   0.23092   0.00000  Uiso   1.00
H166   H     0.32883   0.90489   0.13067   0.00000  Uiso   1.00
H167   H     0.88898   0.27662   0.24770   0.00000  Uiso   1.00
H168   H     0.28097   0.63082   0.22634   0.00000  Uiso   1.00
H169   H     0.56495   0.36392   0.03704   0.00000  Uiso   1.00
H170   H     0.48591   0.19316   0.99855   0.00000  Uiso   1.00
H171   H     0.75157   0.36944   0.05405   0.00000  Uiso   1.00
H172   H     0.46323   0.53741   0.04392   0.00000  Uiso   1.00
H173   H     0.38917   0.99081   0.97889   0.00000  Uiso   1.00
H174   H     0.94932   0.36255   0.09592   0.00000  Uiso   1.00
H175   H     0.34131   0.71674   0.07456   0.00000  Uiso   1.00
O176   O     0.30576   0.83370   0.03267   0.00000  Uiso   1.00
O177   O     0.04065   0.32142   0.18620   0.00000  Uiso   1.00
O178   O     0.24295   0.78611   0.15818   0.00000  Uiso   1.00
N179   N     0.35386   0.94856   0.10023   0.00000  Uiso   1.00
N180   N     0.87757   0.29609   0.20964   0.00000  Uiso   1.00
N181   N     0.30915   0.62725   0.18967   0.00000  Uiso   1.00
N182   N     0.38633   0.99479   0.01856   0.00000  Uiso   1.00
N183   N     0.91004   0.34232   0.12797   0.00000  Uiso   1.00
N184   N     0.34162   0.67348   0.10800   0.00000  Uiso   1.00
C185   C     0.98938   0.78655   0.17370   0.00000  Uiso   1.00
C186   C     0.02466   0.70470   0.13349   0.00000  Uiso   1.00
C187   C     0.07240   0.61013   0.14518   0.00000  Uiso   1.00
C188   C     0.09870   0.54605   0.10280   0.00000  Uiso   1.00
C189   C     0.15659   0.41445   0.04831   0.00000  Uiso   1.00
C190   C     0.88032   0.80047   0.16364   0.00000  Uiso   1.00
C191   C     0.80670   0.78642   0.20069   0.00000  Uiso   1.00
C192   C     0.71149   0.80297   0.18369   0.00000  Uiso   1.00
C193   C     0.54529   0.82013   0.17602   0.00000  Uiso   1.00
C194   C     0.03699   0.89172   0.15814   0.00000  Uiso   1.00
C195   C     0.09508   0.95443   0.19056   0.00000  Uiso   1.00
C196   C     0.13175   0.04782   0.16893   0.00000  Uiso   1.00
C197   C     0.20881   0.20666   0.15271   0.00000  Uiso   1.00
C198   C     0.95120   0.84092   0.07765   0.00000  Uiso   1.00
C199   C     0.00392   0.73424   0.08132   0.00000  Uiso   1.00
C200   C     0.03015   0.67029   0.03892   0.00000  Uiso   1.00
C201   C     0.07792   0.57564   0.05054   0.00000  Uiso   1.00
C202   C     0.85958   0.83000   0.11148   0.00000  Uiso   1.00
C203   C     0.76445   0.84658   0.09443   0.00000  Uiso   1.00
C204   C     0.69071   0.83256   0.13143   0.00000  Uiso   1.00
C205   C     0.01625   0.92126   0.10597   0.00000  Uiso   1.00
C206   C     0.05283   0.01458   0.08429   0.00000  Uiso   1.00
C207   C     0.11097   0.07741   0.11667   0.00000  Uiso   1.00
H208   H     0.00552   0.76355   0.21431   0.00000  Uiso   1.00
H209   H     0.08843   0.58730   0.18556   0.00000  Uiso   1.00
H210   H     0.82277   0.76358   0.24105   0.00000  Uiso   1.00
H211   H     0.11111   0.93155   0.23092   0.00000  Uiso   1.00
H212   H     0.17117   0.40489   0.13067   0.00000  Uiso   1.00
H213   H     0.61102   0.77662   0.24770   0.00000  Uiso   1.00
H214   H     0.21903   0.13082   0.22634   0.00000  Uiso   1.00
H215   H     0.93505   0.86392   0.03704   0.00000  Uiso   1.00
H216   H     0.01409   0.69316   0.99855   0.00000  Uiso   1.00
H217   H     0.74843   0.86944   0.05405   0.00000  Uiso   1.00
H218   H     0.03677   0.03741   0.04392   0.00000  Uiso   1.00
H219   H     0.11083   0.49081   0.97889   0.00000  Uiso   1.00
H220   H     0.55068   0.86255   0.09592   0.00000  Uiso   1.00
H221   H     0.15869   0.21674   0.07456   0.00000  Uiso   1.00
O222   O     0.19424   0.33370   0.03267   0.00000  Uiso   1.00
O223   O     0.45935   0.82142   0.18620   0.00000  Uiso   1.00
O224   O     0.25705   0.28611   0.15818   0.00000  Uiso   1.00
N225   N     0.14614   0.44856   0.10023   0.00000  Uiso   1.00
N226   N     0.62243   0.79609   0.20964   0.00000  Uiso   1.00
N227   N     0.19085   0.12725   0.18967   0.00000  Uiso   1.00
N228   N     0.11367   0.49479   0.01856   0.00000  Uiso   1.00
N229   N     0.58996   0.84232   0.12797   0.00000  Uiso   1.00
N230   N     0.15838   0.17348   0.10800   0.00000  Uiso   1.00
C231   C     0.51062   0.71345   0.67370   0.00000  Uiso   1.00
C232   C     0.47534   0.79530   0.63349   0.00000  Uiso   1.00
C233   C     0.42760   0.88987   0.64518   0.00000  Uiso   1.00
C234   C     0.40130   0.95395   0.60280   0.00000  Uiso   1.00
C235   C     0.34341   0.08555   0.54831   0.00000  Uiso   1.00
C236   C     0.61968   0.69953   0.66364   0.00000  Uiso   1.00
C237   C     0.69330   0.71358   0.70069   0.00000  Uiso   1.00
C238   C     0.78851   0.69703   0.68369   0.00000  Uiso   1.00
C239   C     0.95471   0.67987   0.67602   0.00000  Uiso   1.00
C240   C     0.46301   0.60828   0.65814   0.00000  Uiso   1.00
C241   C     0.40492   0.54557   0.69056   0.00000  Uiso   1.00
C242   C     0.36825   0.45218   0.66893   0.00000  Uiso   1.00
C243   C     0.29119   0.29334   0.65271   0.00000  Uiso   1.00
C244   C     0.54880   0.65908   0.57765   0.00000  Uiso   1.00
C245   C     0.49608   0.76576   0.58132   0.00000  Uiso   1.00
C246   C     0.46985   0.82971   0.53892   0.00000  Uiso   1.00
C247   C     0.42208   0.92436   0.55054   0.00000  Uiso   1.00
C248   C     0.64042   0.67000   0.61148   0.00000  Uiso   1.00
C249   C     0.73555   0.65342   0.59443   0.00000  Uiso   1.00
C250   C     0.80929   0.66744   0.63143   0.00000  Uiso   1.00
C251   C     0.48375   0.57874   0.60597   0.00000  Uiso   1.00
C252   C     0.44717   0.48542   0.58429   0.00000  Uiso   1.00
C253   C     0.38903   0.42259   0.61667   0.00000  Uiso   1.00
H254   H     0.49448   0.73645   0.71431   0.00000  Uiso   1.00
H255   H     0.41157   0.91270   0.68556   0.00000  Uiso   1.00
H256   H     0.67723   0.73642   0.74105   0.00000  Uiso   1.00
H257   H     0.38889   0.56845   0.73092   0.00000  Uiso   1.00
H258   H     0.32883   0.09511   0.63067   0.00000  Uiso   1.00
H259   H     0.88898   0.72338   0.74770   0.00000  Uiso   1.00
H260   H     0.28097   0.36918   0.72634   0.00000  Uiso   1.00
H261   H     0.56495   0.63608   0.53704   0.00000  Uiso   1.00
H262   H     0.48591   0.80684   0.49855   0.00000  Uiso   1.00
H263   H     0.75157   0.63056   0.55405   0.00000  Uiso   1.00
H264   H     0.46323   0.46259   0.54392   0.00000  Uiso   1.00
H265   H     0.38917   0.00919   0.47889   0.00000  Uiso   1.00
H266   H     0.94932   0.63745   0.59592   0.00000  Uiso   1.00
H267   H     0.34131   0.28326   0.57456   0.00000  Uiso   1.00
O268   O     0.30576   0.16630   0.53267   0.00000  Uiso   1.00
O269   O     0.04065   0.67858   0.68620   0.00000  Uiso   1.00
O270   O     0.24295   0.21389   0.65818   0.00000  Uiso   1.00
N271   N     0.35386   0.05144   0.60023   0.00000  Uiso   1.00
N272   N     0.87757   0.70391   0.70964   0.00000  Uiso   1.00
N273   N     0.30915   0.37275   0.68967   0.00000  Uiso   1.00
N274   N     0.38633   0.00521   0.51856   0.00000  Uiso   1.00
N275   N     0.91004   0.65768   0.62797   0.00000  Uiso   1.00
N276   N     0.34162   0.32652   0.60800   0.00000  Uiso   1.00
C277   C     0.01062   0.78655   0.32630   0.00000  Uiso   1.00
C278   C     0.97534   0.70470   0.36651   0.00000  Uiso   1.00
C279   C     0.92760   0.61013   0.35482   0.00000  Uiso   1.00
C280   C     0.90130   0.54605   0.39720   0.00000  Uiso   1.00
C281   C     0.84341   0.41445   0.45169   0.00000  Uiso   1.00
C282   C     0.11968   0.80047   0.33636   0.00000  Uiso   1.00
C283   C     0.19330   0.78642   0.29931   0.00000  Uiso   1.00
C284   C     0.28851   0.80297   0.31631   0.00000  Uiso   1.00
C285   C     0.45471   0.82013   0.32398   0.00000  Uiso   1.00
C286   C     0.96301   0.89172   0.34186   0.00000  Uiso   1.00
C287   C     0.90492   0.95443   0.30944   0.00000  Uiso   1.00
C288   C     0.86825   0.04782   0.33107   0.00000  Uiso   1.00
C289   C     0.79119   0.20666   0.34729   0.00000  Uiso   1.00
C290   C     0.04880   0.84092   0.42235   0.00000  Uiso   1.00
C291   C     0.99608   0.73424   0.41868   0.00000  Uiso   1.00
C292   C     0.96985   0.67029   0.46108   0.00000  Uiso   1.00
C293   C     0.92208   0.57564   0.44946   0.00000  Uiso   1.00
C294   C     0.14042   0.83000   0.38852   0.00000  Uiso   1.00
C295   C     0.23555   0.84658   0.40557   0.00000  Uiso   1.00
C296   C     0.30929   0.83256   0.36857   0.00000  Uiso   1.00
C297   C     0.98375   0.92126   0.39403   0.00000  Uiso   1.00
C298   C     0.94717   0.01458   0.41571   0.00000  Uiso   1.00
C299   C     0.88903   0.07741   0.38333   0.00000  Uiso   1.00
H300   H     0.99448   0.76355   0.28569   0.00000  Uiso   1.00
H301   H     0.91157   0.58730   0.31444   0.00000  Uiso   1.00
H302   H     0.17723   0.76358   0.25895   0.00000  Uiso   1.00
H303   H     0.88889   0.93155   0.26908   0.00000  Uiso   1.00
H304   H     0.82883   0.40489   0.36933   0.00000  Uiso   1.00
H305   H     0.38898   0.77662   0.25230   0.00000  Uiso   1.00
H306   H     0.78097   0.13082   0.27366   0.00000  Uiso   1.00
H307   H     0.06495   0.86392   0.46296   0.00000  Uiso   1.00
H308   H     0.98591   0.69316   0.50145   0.00000  Uiso   1.00
H309   H     0.25157   0.86944   0.44595   0.00000  Uiso   1.00
H310   H     0.96323   0.03741   0.45608   0.00000  Uiso   1.00
H311   H     0.88917   0.49081   0.52111   0.00000  Uiso   1.00
H312   H     0.44932   0.86255   0.40408   0.00000  Uiso   1.00
H313   H     0.84131   0.21674   0.42544   0.00000  Uiso   1.00
O314   O     0.80576   0.33370   0.46733   0.00000  Uiso   1.00
O315   O     0.54065   0.82142   0.31380   0.00000  Uiso   1.00
O316   O     0.74295   0.28611   0.34182   0.00000  Uiso   1.00
N317   N     0.85386   0.44856   0.39977   0.00000  Uiso   1.00
N318   N     0.37757   0.79609   0.29036   0.00000  Uiso   1.00
N319   N     0.80915   0.12725   0.31033   0.00000  Uiso   1.00
N320   N     0.88633   0.49479   0.48144   0.00000  Uiso   1.00
N321   N     0.41004   0.84232   0.37203   0.00000  Uiso   1.00
N322   N     0.84162   0.17348   0.39200   0.00000  Uiso   1.00
C323   C     0.48938   0.71345   0.82630   0.00000  Uiso   1.00
C324   C     0.52466   0.79530   0.86651   0.00000  Uiso   1.00
C325   C     0.57240   0.88987   0.85482   0.00000  Uiso   1.00
C326   C     0.59870   0.95395   0.89720   0.00000  Uiso   1.00
C327   C     0.65659   0.08555   0.95169   0.00000  Uiso   1.00
C328   C     0.38032   0.69953   0.83636   0.00000  Uiso   1.00
C329   C     0.30670   0.71358   0.79931   0.00000  Uiso   1.00
C330   C     0.21149   0.69703   0.81631   0.00000  Uiso   1.00
C331   C     0.04529   0.67987   0.82398   0.00000  Uiso   1.00
C332   C     0.53699   0.60828   0.84186   0.00000  Uiso   1.00
C333   C     0.59508   0.54557   0.80944   0.00000  Uiso   1.00
C334   C     0.63175   0.45218   0.83107   0.00000  Uiso   1.00
C335   C     0.70881   0.29334   0.84729   0.00000  Uiso   1.00
C336   C     0.45120   0.65908   0.92235   0.00000  Uiso   1.00
C337   C     0.50392   0.76576   0.91868   0.00000  Uiso   1.00
C338   C     0.53015   0.82971   0.96108   0.00000  Uiso   1.00
C339   C     0.57792   0.92436   0.94946   0.00000  Uiso   1.00
C340   C     0.35958   0.67000   0.88852   0.00000  Uiso   1.00
C341   C     0.26445   0.65342   0.90557   0.00000  Uiso   1.00
C342   C     0.19071   0.66744   0.86857   0.00000  Uiso   1.00
C343   C     0.51625   0.57874   0.89403   0.00000  Uiso   1.00
C344   C     0.55283   0.48542   0.91571   0.00000  Uiso   1.00
C345   C     0.61097   0.42259   0.88333   0.00000  Uiso   1.00
H346   H     0.50552   0.73645   0.78569   0.00000  Uiso   1.00
H347   H     0.58843   0.91270   0.81444   0.00000  Uiso   1.00
H348   H     0.32277   0.73642   0.75895   0.00000  Uiso   1.00
H349   H     0.61111   0.56845   0.76908   0.00000  Uiso   1.00
H350   H     0.67117   0.09511   0.86933   0.00000  Uiso   1.00
H351   H     0.11102   0.72338   0.75230   0.00000  Uiso   1.00
H352   H     0.71903   0.36918   0.77366   0.00000  Uiso   1.00
H353   H     0.43505   0.63608   0.96296   0.00000  Uiso   1.00
H354   H     0.51409   0.80684   0.00145   0.00000  Uiso   1.00
H355   H     0.24843   0.63056   0.94595   0.00000  Uiso   1.00
H356   H     0.53677   0.46259   0.95608   0.00000  Uiso   1.00
H357   H     0.61083   0.00919   0.02111   0.00000  Uiso   1.00
H358   H     0.05068   0.63745   0.90408   0.00000  Uiso   1.00
H359   H     0.65869   0.28326   0.92544   0.00000  Uiso   1.00
O360   O     0.69424   0.16630   0.96733   0.00000  Uiso   1.00
O361   O     0.95935   0.67858   0.81380   0.00000  Uiso   1.00
O362   O     0.75705   0.21389   0.84182   0.00000  Uiso   1.00
N363   N     0.64614   0.05144   0.89977   0.00000  Uiso   1.00
N364   N     0.12243   0.70391   0.79036   0.00000  Uiso   1.00
N365   N     0.69085   0.37275   0.81033   0.00000  Uiso   1.00
N366   N     0.61367   0.00521   0.98144   0.00000  Uiso   1.00
N367   N     0.08996   0.65768   0.87203   0.00000  Uiso   1.00
N368   N     0.65838   0.32652   0.89200   0.00000  Uiso   1.00
