data_job_06600
_audit_creation_date              2018-12-19
_audit_creation_method            'Materials Studio'
_symmetry_space_group_name_H-M    'P1'
_symmetry_Int_Tables_number       1
_symmetry_cell_setting            triclinic
loop_
_symmetry_equiv_pos_as_xyz
  x,y,z
_cell_length_a                    22.1898
_cell_length_b                    22.3514
_cell_length_c                    21.8560
_cell_angle_alpha                 106.4060
_cell_angle_beta                  106.9840
_cell_angle_gamma                 110.3130
loop_
_atom_site_label
_atom_site_type_symbol
_atom_site_fract_x
_atom_site_fract_y
_atom_site_fract_z
_atom_site_U_iso_or_equiv
_atom_site_adp_type
_atom_site_occupancy
C1     C     0.38337   0.94856   0.86492   0.00000  Uiso   1.00
C2     C     0.34967   0.86834   0.83572   0.00000  Uiso   1.00
C3     C     0.30953   0.82722   0.86049   0.00000  Uiso   1.00
C4     C     0.28338   0.75475   0.82666   0.00000  Uiso   1.00
C5     C     0.22902   0.63478   0.78994   0.00000  Uiso   1.00
C6     C     0.46278   0.97462   0.88525   0.00000  Uiso   1.00
C7     C     0.51774   0.02288   0.95168   0.00000  Uiso   1.00
C8     C     0.58681   0.03989   0.95954   0.00000  Uiso   1.00
C9     C     0.70805   0.08498   0.99971   0.00000  Uiso   1.00
C10    C     0.35477   0.96462   0.80244   0.00000  Uiso   1.00
C11    C     0.31892   0.00448   0.79924   0.00000  Uiso   1.00
C12    C     0.29707   0.01307   0.73739   0.00000  Uiso   1.00
C13    C     0.25061   0.04262   0.64898   0.00000  Uiso   1.00
C14    C     0.40832   0.89296   0.76078   0.00000  Uiso   1.00
C15    C     0.36323   0.83814   0.77915   0.00000  Uiso   1.00
C16    C     0.33713   0.76571   0.74527   0.00000  Uiso   1.00
C17    C     0.29695   0.72449   0.76999   0.00000  Uiso   1.00
C18    C     0.47634   0.94443   0.82869   0.00000  Uiso   1.00
C19    C     0.54534   0.96137   0.83646   0.00000  Uiso   1.00
C20    C     0.60039   0.00964   0.90288   0.00000  Uiso   1.00
C21    C     0.36832   0.93442   0.74587   0.00000  Uiso   1.00
C22    C     0.34653   0.94296   0.68402   0.00000  Uiso   1.00
C23    C     0.31065   0.98282   0.68073   0.00000  Uiso   1.00
H24    H     0.37283   0.97207   0.90897   0.00000  Uiso   1.00
H25    H     0.29905   0.85061   0.90427   0.00000  Uiso   1.00
H26    H     0.50723   0.04625   0.99544   0.00000  Uiso   1.00
H27    H     0.30845   0.02784   0.84303   0.00000  Uiso   1.00
H28    H     0.22326   0.70263   0.87414   0.00000  Uiso   1.00
H29    H     0.66222   0.11516   0.06637   0.00000  Uiso   1.00
H30    H     0.24304   0.07634   0.74498   0.00000  Uiso   1.00
H31    H     0.41888   0.86945   0.71674   0.00000  Uiso   1.00
H32    H     0.34763   0.74236   0.70150   0.00000  Uiso   1.00
H33    H     0.55581   0.93800   0.79267   0.00000  Uiso   1.00
H34    H     0.35702   0.91958   0.64026   0.00000  Uiso   1.00
H35    H     0.26269   0.61477   0.70957   0.00000  Uiso   1.00
H36    H     0.70165   0.02731   0.90179   0.00000  Uiso   1.00
H37    H     0.28247   0.98848   0.58040   0.00000  Uiso   1.00
O38    O     0.19530   0.57695   0.78531   0.00000  Uiso   1.00
O39    O     0.77119   0.11818   0.03750   0.00000  Uiso   1.00
O40    O     0.22123   0.06725   0.61584   0.00000  Uiso   1.00
N41    N     0.24231   0.69940   0.83749   0.00000  Uiso   1.00
N42    N     0.65271   0.08508   0.01722   0.00000  Uiso   1.00
N43    N     0.26083   0.04880   0.71675   0.00000  Uiso   1.00
N44    N     0.26352   0.65212   0.74893   0.00000  Uiso   1.00
N45    N     0.67392   0.03780   0.92866   0.00000  Uiso   1.00
N46    N     0.28204   0.00152   0.62819   0.00000  Uiso   1.00
C47    C     0.76812   0.55948   0.89224   0.00000  Uiso   1.00
C48    C     0.75091   0.52570   0.81406   0.00000  Uiso   1.00
C49    C     0.78290   0.48913   0.78588   0.00000  Uiso   1.00
C50    C     0.75972   0.46224   0.71302   0.00000  Uiso   1.00
C51    C     0.74112   0.40839   0.59818   0.00000  Uiso   1.00
C52    C     0.78842   0.63707   0.91111   0.00000  Uiso   1.00
C53    C     0.85195   0.69412   0.96454   0.00000  Uiso   1.00
C54    C     0.86033   0.76098   0.97338   0.00000  Uiso   1.00
C55    C     0.89995   0.88003   0.00924   0.00000  Uiso   1.00
C56    C     0.69781   0.52753   0.89722   0.00000  Uiso   1.00
C57    C     0.68517   0.49249   0.93899   0.00000  Uiso   1.00
C58    C     0.61727   0.46713   0.93615   0.00000  Uiso   1.00
C59    C     0.51621   0.41610   0.95045   0.00000  Uiso   1.00
C60    C     0.67003   0.57677   0.81296   0.00000  Uiso   1.00
C61    C     0.69763   0.53510   0.77100   0.00000  Uiso   1.00
C62    C     0.67438   0.50825   0.69816   0.00000  Uiso   1.00
C63    C     0.70634   0.47164   0.66988   0.00000  Uiso   1.00
C64    C     0.73514   0.64646   0.86805   0.00000  Uiso   1.00
C65    C     0.74343   0.71324   0.87682   0.00000  Uiso   1.00
C66    C     0.80696   0.77038   0.93024   0.00000  Uiso   1.00
C67    C     0.64453   0.53691   0.85416   0.00000  Uiso   1.00
C68    C     0.57664   0.51161   0.85126   0.00000  Uiso   1.00
C69    C     0.56390   0.47654   0.89301   0.00000  Uiso   1.00
H70    H     0.80960   0.55218   0.92577   0.00000  Uiso   1.00
H71    H     0.82414   0.48188   0.81923   0.00000  Uiso   1.00
H72    H     0.89317   0.68684   0.99786   0.00000  Uiso   1.00
H73    H     0.72641   0.48524   0.97230   0.00000  Uiso   1.00
H74    H     0.81678   0.40810   0.68211   0.00000  Uiso   1.00
H75    H     0.96232   0.84028   0.05878   0.00000  Uiso   1.00
H76    H     0.61068   0.41515   0.00491   0.00000  Uiso   1.00
H77    H     0.62855   0.58408   0.77943   0.00000  Uiso   1.00
H78    H     0.63315   0.51552   0.66485   0.00000  Uiso   1.00
H79    H     0.70219   0.72049   0.84349   0.00000  Uiso   1.00
H80    H     0.53543   0.51888   0.81793   0.00000  Uiso   1.00
H81    H     0.66178   0.43541   0.55682   0.00000  Uiso   1.00
H82    H     0.80732   0.86759   0.93349   0.00000  Uiso   1.00
H83    H     0.45568   0.44246   0.87961   0.00000  Uiso   1.00
O84    O     0.74559   0.37610   0.54674   0.00000  Uiso   1.00
O85    O     0.93653   0.94310   0.04092   0.00000  Uiso   1.00
O86    O     0.47519   0.38535   0.97023   0.00000  Uiso   1.00
N87    N     0.77966   0.42392   0.66835   0.00000  Uiso   1.00
N88    N     0.91574   0.82798   0.02050   0.00000  Uiso   1.00
N89    N     0.58699   0.43054   0.97015   0.00000  Uiso   1.00
N90    N     0.69625   0.43862   0.60093   0.00000  Uiso   1.00
N91    N     0.83233   0.84268   0.95308   0.00000  Uiso   1.00
N92    N     0.50358   0.44524   0.90273   0.00000  Uiso   1.00
C93    C     0.72131   0.88849   0.42960   0.00000  Uiso   1.00
C94    C     0.64146   0.85594   0.40899   0.00000  Uiso   1.00
C95    C     0.59501   0.87716   0.37519   0.00000  Uiso   1.00
C96    C     0.52391   0.84065   0.36094   0.00000  Uiso   1.00
C97    C     0.40353   0.79860   0.32609   0.00000  Uiso   1.00
C98    C     0.75779   0.91113   0.50906   0.00000  Uiso   1.00
C99    C     0.80915   0.97876   0.55940   0.00000  Uiso   1.00
C100   C     0.83598   0.98870   0.62939   0.00000  Uiso   1.00
C101   C     0.89624   0.03233   0.74990   0.00000  Uiso   1.00
C102   C     0.73476   0.82812   0.39460   0.00000  Uiso   1.00
C103   C     0.76679   0.82595   0.34871   0.00000  Uiso   1.00
C104   C     0.77425   0.76601   0.32235   0.00000  Uiso   1.00
C105   C     0.79876   0.68075   0.26514   0.00000  Uiso   1.00
C106   C     0.67764   0.78591   0.46440   0.00000  Uiso   1.00
C107   C     0.61774   0.80022   0.42789   0.00000  Uiso   1.00
C108   C     0.54669   0.76367   0.41369   0.00000  Uiso   1.00
C109   C     0.50014   0.78483   0.37987   0.00000  Uiso   1.00
C110   C     0.73407   0.85541   0.52796   0.00000  Uiso   1.00
C111   C     0.76083   0.86526   0.59790   0.00000  Uiso   1.00
C112   C     0.81222   0.93288   0.64832   0.00000  Uiso   1.00
C113   C     0.71104   0.77239   0.41350   0.00000  Uiso   1.00
C114   C     0.71846   0.71245   0.38721   0.00000  Uiso   1.00
C115   C     0.75048   0.71019   0.34128   0.00000  Uiso   1.00
H116   H     0.73979   0.93187   0.41489   0.00000  Uiso   1.00
H117   H     0.61339   0.92029   0.36058   0.00000  Uiso   1.00
H118   H     0.82750   0.02186   0.54476   0.00000  Uiso   1.00
H119   H     0.78514   0.86908   0.33410   0.00000  Uiso   1.00
H120   H     0.46280   0.88289   0.30872   0.00000  Uiso   1.00
H121   H     0.91429   0.09706   0.69707   0.00000  Uiso   1.00
H122   H     0.82496   0.77489   0.25286   0.00000  Uiso   1.00
H123   H     0.65917   0.74253   0.47911   0.00000  Uiso   1.00
H124   H     0.52835   0.72055   0.42832   0.00000  Uiso   1.00
H125   H     0.74246   0.82213   0.61250   0.00000  Uiso   1.00
H126   H     0.70010   0.66934   0.40184   0.00000  Uiso   1.00
H127   H     0.39378   0.72078   0.36370   0.00000  Uiso   1.00
H128   H     0.84527   0.93495   0.75205   0.00000  Uiso   1.00
H129   H     0.75593   0.61277   0.30784   0.00000  Uiso   1.00
O130   O     0.34369   0.79081   0.30166   0.00000  Uiso   1.00
O131   O     0.93603   0.07179   0.81115   0.00000  Uiso   1.00
O132   O     0.81883   0.64910   0.22836   0.00000  Uiso   1.00
N133   N     0.46451   0.84774   0.32861   0.00000  Uiso   1.00
N134   N     0.88661   0.04798   0.69170   0.00000  Uiso   1.00
N135   N     0.80311   0.74679   0.27642   0.00000  Uiso   1.00
N136   N     0.42737   0.76051   0.35820   0.00000  Uiso   1.00
N137   N     0.84947   0.96075   0.72129   0.00000  Uiso   1.00
N138   N     0.76597   0.65955   0.30600   0.00000  Uiso   1.00
C139   C     0.88918   0.45363   0.39692   0.00000  Uiso   1.00
C140   C     0.85531   0.43314   0.31770   0.00000  Uiso   1.00
C141   C     0.81359   0.45915   0.28507   0.00000  Uiso   1.00
C142   C     0.78757   0.43380   0.21201   0.00000  Uiso   1.00
C143   C     0.73270   0.40955   0.09493   0.00000  Uiso   1.00
C144   C     0.96890   0.48030   0.41886   0.00000  Uiso   1.00
C145   C     0.02267   0.54596   0.47129   0.00000  Uiso   1.00
C146   C     0.09227   0.56030   0.48339   0.00000  Uiso   1.00
C147   C     0.21375   0.60924   0.52339   0.00000  Uiso   1.00
C148   C     0.86251   0.38492   0.40505   0.00000  Uiso   1.00
C149   C     0.82685   0.37038   0.44589   0.00000  Uiso   1.00
C150   C     0.80690   0.30442   0.44637   0.00000  Uiso   1.00
C151   C     0.76320   0.20527   0.46493   0.00000  Uiso   1.00
C152   C     0.91716   0.36236   0.32518   0.00000  Uiso   1.00
C153   C     0.87052   0.38356   0.27874   0.00000  Uiso   1.00
C154   C     0.84455   0.35817   0.20570   0.00000  Uiso   1.00
C155   C     0.80280   0.38413   0.17297   0.00000  Uiso   1.00
C156   C     0.98410   0.43072   0.37990   0.00000  Uiso   1.00
C157   C     0.05364   0.44497   0.39192   0.00000  Uiso   1.00
C158   C     0.10751   0.51063   0.44435   0.00000  Uiso   1.00
C159   C     0.87771   0.33534   0.36608   0.00000  Uiso   1.00
C160   C     0.85781   0.26939   0.36651   0.00000  Uiso   1.00
C161   C     0.82213   0.25476   0.40733   0.00000  Uiso   1.00
H162   H     0.87735   0.49223   0.42726   0.00000  Uiso   1.00
H163   H     0.80184   0.49752   0.31525   0.00000  Uiso   1.00
H164   H     0.01089   0.58431   0.50144   0.00000  Uiso   1.00
H165   H     0.81510   0.40876   0.47603   0.00000  Uiso   1.00
H166   H     0.72486   0.48154   0.17388   0.00000  Uiso   1.00
H167   H     0.16565   0.66453   0.56649   0.00000  Uiso   1.00
H168   H     0.75279   0.29434   0.51292   0.00000  Uiso   1.00
H169   H     0.92900   0.32376   0.29485   0.00000  Uiso   1.00
H170   H     0.85633   0.31980   0.17556   0.00000  Uiso   1.00
H171   H     0.06538   0.40659   0.36176   0.00000  Uiso   1.00
H172   H     0.86959   0.23104   0.33635   0.00000  Uiso   1.00
H173   H     0.76908   0.33730   0.06050   0.00000  Uiso   1.00
H174   H     0.20988   0.52029   0.45312   0.00000  Uiso   1.00
H175   H     0.79701   0.15010   0.39955   0.00000  Uiso   1.00
O176   O     0.69825   0.40988   0.04111   0.00000  Uiso   1.00
O177   O     0.27656   0.64994   0.55622   0.00000  Uiso   1.00
O178   O     0.73488   0.16427   0.48593   0.00000  Uiso   1.00
N179   N     0.74523   0.44813   0.16356   0.00000  Uiso   1.00
N180   N     0.15735   0.61921   0.53063   0.00000  Uiso   1.00
N181   N     0.77137   0.27313   0.48056   0.00000  Uiso   1.00
N182   N     0.76902   0.37051   0.10256   0.00000  Uiso   1.00
N183   N     0.18114   0.54160   0.46962   0.00000  Uiso   1.00
N184   N     0.79516   0.19551   0.41955   0.00000  Uiso   1.00
C185   C     0.25535   0.45707   0.97380   0.00000  Uiso   1.00
C186   C     0.23720   0.37934   0.94474   0.00000  Uiso   1.00
C187   C     0.27360   0.35074   0.91463   0.00000  Uiso   1.00
C188   C     0.24864   0.27841   0.89124   0.00000  Uiso   1.00
C189   C     0.22949   0.16413   0.84516   0.00000  Uiso   1.00
C190   C     0.26618   0.47884   0.05047   0.00000  Uiso   1.00
C191   C     0.32695   0.53391   0.10926   0.00000  Uiso   1.00
C192   C     0.32638   0.54535   0.17487   0.00000  Uiso   1.00
C193   C     0.35221   0.58558   0.29293   0.00000  Uiso   1.00
C194   C     0.18794   0.45986   0.93443   0.00000  Uiso   1.00
C195   C     0.18292   0.49898   0.89566   0.00000  Uiso   1.00
C196   C     0.11648   0.49445   0.86358   0.00000  Uiso   1.00
C197   C     0.02082   0.50521   0.80147   0.00000  Uiso   1.00
C198   C     0.14628   0.37949   0.98581   0.00000  Uiso   1.00
C199   C     0.17796   0.33720   0.95127   0.00000  Uiso   1.00
C200   C     0.15293   0.26490   0.92792   0.00000  Uiso   1.00
C201   C     0.18929   0.23619   0.89777   0.00000  Uiso   1.00
C202   C     0.20694   0.43671   0.05700   0.00000  Uiso   1.00
C203   C     0.20628   0.44807   0.12254   0.00000  Uiso   1.00
C204   C     0.26704   0.50313   0.18140   0.00000  Uiso   1.00
C205   C     0.12870   0.41772   0.94095   0.00000  Uiso   1.00
C206   C     0.06225   0.41314   0.90894   0.00000  Uiso   1.00
C207   C     0.05713   0.45224   0.87012   0.00000  Uiso   1.00
H208   H     0.30148   0.48988   0.96873   0.00000  Uiso   1.00
H209   H     0.31945   0.38337   0.90960   0.00000  Uiso   1.00
H210   H     0.37279   0.56651   0.10419   0.00000  Uiso   1.00
H211   H     0.22878   0.53158   0.89062   0.00000  Uiso   1.00
H212   H     0.31327   0.24670   0.84694   0.00000  Uiso   1.00
H213   H     0.42572   0.63288   0.25725   0.00000  Uiso   1.00
H214   H     0.12205   0.55923   0.80690   0.00000  Uiso   1.00
H215   H     0.10016   0.34668   0.99089   0.00000  Uiso   1.00
H216   H     0.10709   0.23230   0.93297   0.00000  Uiso   1.00
H217   H     0.16043   0.41545   0.12757   0.00000  Uiso   1.00
H218   H     0.01642   0.38052   0.91400   0.00000  Uiso   1.00
H219   H     0.14091   0.12409   0.86591   0.00000  Uiso   1.00
H220   H     0.25336   0.51028   0.27622   0.00000  Uiso   1.00
H221   H     0.94969   0.43663   0.82587   0.00000  Uiso   1.00
O222   O     0.23529   0.11274   0.81795   0.00000  Uiso   1.00
O223   O     0.38282   0.61941   0.35625   0.00000  Uiso   1.00
O224   O     0.98442   0.52278   0.76540   0.00000  Uiso   1.00
N225   N     0.27174   0.23353   0.85934   0.00000  Uiso   1.00
N226   N     0.37689   0.59459   0.24295   0.00000  Uiso   1.00
N227   N     0.09299   0.52575   0.82193   0.00000  Uiso   1.00
N228   N     0.17900   0.16756   0.86955   0.00000  Uiso   1.00
N229   N     0.28414   0.52862   0.25316   0.00000  Uiso   1.00
N230   N     0.00024   0.45977   0.83214   0.00000  Uiso   1.00
C231   C     0.22413   0.99461   0.33764   0.00000  Uiso   1.00
C232   C     0.14508   0.97446   0.30585   0.00000  Uiso   1.00
C233   C     0.09671   0.94532   0.33069   0.00000  Uiso   1.00
C234   C     0.02677   0.93066   0.29426   0.00000  Uiso   1.00
C235   C     0.90718   0.89728   0.25391   0.00000  Uiso   1.00
C236   C     0.26418   0.07249   0.35465   0.00000  Uiso   1.00
C237   C     0.31595   0.12577   0.42052   0.00000  Uiso   1.00
C238   C     0.34627   0.19362   0.42517   0.00000  Uiso   1.00
C239   C     0.41162   0.31242   0.46057   0.00000  Uiso   1.00
C240   C     0.23697   0.95455   0.27782   0.00000  Uiso   1.00
C241   C     0.26588   0.90868   0.27911   0.00000  Uiso   1.00
C242   C     0.27330   0.87725   0.21908   0.00000  Uiso   1.00
C243   C     0.29640   0.81293   0.13520   0.00000  Uiso   1.00
C244   C     0.18593   0.02038   0.22877   0.00000  Uiso   1.00
C245   C     0.12433   0.98846   0.24671   0.00000  Uiso   1.00
C246   C     0.05444   0.97383   0.21023   0.00000  Uiso   1.00
C247   C     0.00598   0.94468   0.23502   0.00000  Uiso   1.00
C248   C     0.24343   0.08649   0.29551   0.00000  Uiso   1.00
C249   C     0.27368   0.15428   0.30006   0.00000  Uiso   1.00
C250   C     0.32548   0.20765   0.36593   0.00000  Uiso   1.00
C251   C     0.21621   0.96855   0.21869   0.00000  Uiso   1.00
C252   C     0.22360   0.93719   0.15865   0.00000  Uiso   1.00
C253   C     0.25251   0.89127   0.15984   0.00000  Uiso   1.00
H254   H     0.24029   0.98372   0.38368   0.00000  Uiso   1.00
H255   H     0.11279   0.93451   0.37646   0.00000  Uiso   1.00
H256   H     0.33200   0.11492   0.46627   0.00000  Uiso   1.00
H257   H     0.28193   0.89786   0.32488   0.00000  Uiso   1.00
H258   H     0.96229   0.88614   0.34239   0.00000  Uiso   1.00
H259   H     0.42452   0.26655   0.53176   0.00000  Uiso   1.00
H260   H     0.31894   0.80884   0.23361   0.00000  Uiso   1.00
H261   H     0.16978   0.03128   0.18272   0.00000  Uiso   1.00
H262   H     0.03840   0.98467   0.16447   0.00000  Uiso   1.00
H263   H     0.25761   0.16509   0.25429   0.00000  Uiso   1.00
H264   H     0.20754   0.94803   0.11289   0.00000  Uiso   1.00
H265   H     0.90191   0.92686   0.17034   0.00000  Uiso   1.00
H266   H     0.36415   0.30727   0.35970   0.00000  Uiso   1.00
H267   H     0.25856   0.84956   0.06155   0.00000  Uiso   1.00
O268   O     0.84696   0.87501   0.24800   0.00000  Uiso   1.00
O269   O     0.45340   0.37408   0.49644   0.00000  Uiso   1.00
O270   O     0.31486   0.77357   0.10527   0.00000  Uiso   1.00
N271   N     0.96611   0.90211   0.30440   0.00000  Uiso   1.00
N272   N     0.39826   0.25777   0.48144   0.00000  Uiso   1.00
N273   N     0.29956   0.82986   0.20270   0.00000  Uiso   1.00
N274   N     0.93362   0.92402   0.21181   0.00000  Uiso   1.00
N275   N     0.36577   0.27968   0.38886   0.00000  Uiso   1.00
N276   N     0.26707   0.85177   0.11012   0.00000  Uiso   1.00
C277   C     0.28936   0.11208   0.99981   0.00000  Uiso   1.00
C278   C     0.31988   0.19104   0.04352   0.00000  Uiso   1.00
C279   C     0.35541   0.24426   0.02697   0.00000  Uiso   1.00
C280   C     0.37925   0.31319   0.07375   0.00000  Uiso   1.00
C281   C     0.42835   0.43349   0.13230   0.00000  Uiso   1.00
C282   C     0.21048   0.07923   0.98351   0.00000  Uiso   1.00
C283   C     0.15402   0.03844   0.91651   0.00000  Uiso   1.00
C284   C     0.08576   0.01325   0.91278   0.00000  Uiso   1.00
C285   C     0.96500   0.95992   0.87818   0.00000  Uiso   1.00
C286   C     0.32342   0.08503   0.04950   0.00000  Uiso   1.00
C287   C     0.36191   0.04909   0.03797   0.00000  Uiso   1.00
C288   C     0.38873   0.02876   0.08979   0.00000  Uiso   1.00
C289   C     0.44332   0.98443   0.15764   0.00000  Uiso   1.00
C290   C     0.26852   0.13988   0.11232   0.00000  Uiso   1.00
C291   C     0.30856   0.20613   0.10463   0.00000  Uiso   1.00
C292   C     0.33236   0.27501   0.15145   0.00000  Uiso   1.00
C293   C     0.36792   0.32832   0.13497   0.00000  Uiso   1.00
C294   C     0.19915   0.09433   0.04462   0.00000  Uiso   1.00
C295   C     0.13096   0.06919   0.04099   0.00000  Uiso   1.00
C296   C     0.07442   0.02837   0.97401   0.00000  Uiso   1.00
C297   C     0.31210   0.10012   0.11061   0.00000  Uiso   1.00
C298   C     0.33886   0.07984   0.16246   0.00000  Uiso   1.00
C299   C     0.37739   0.04389   0.15101   0.00000  Uiso   1.00
H300   H     0.29816   0.10033   0.95223   0.00000  Uiso   1.00
H301   H     0.36416   0.23255   0.97966   0.00000  Uiso   1.00
H302   H     0.16280   0.02676   0.86923   0.00000  Uiso   1.00
H303   H     0.37066   0.03741   0.99067   0.00000  Uiso   1.00
H304   H     0.43231   0.38580   0.03702   0.00000  Uiso   1.00
H305   H     0.00773   0.95185   0.80416   0.00000  Uiso   1.00
H306   H     0.44604   0.97432   0.06025   0.00000  Uiso   1.00
H307   H     0.25970   0.15163   0.15990   0.00000  Uiso   1.00
H308   H     0.32359   0.28667   0.19874   0.00000  Uiso   1.00
H309   H     0.12222   0.08088   0.08830   0.00000  Uiso   1.00
H310   H     0.33009   0.09153   0.20974   0.00000  Uiso   1.00
H311   H     0.39938   0.42973   0.21482   0.00000  Uiso   1.00
H312   H     0.97480   0.99578   0.98196   0.00000  Uiso   1.00
H313   H     0.41311   0.01825   0.23805   0.00000  Uiso   1.00
O314   O     0.45854   0.49568   0.14771   0.00000  Uiso   1.00
O315   O     0.90151   0.92634   0.84221   0.00000  Uiso   1.00
O316   O     0.47658   0.95582   0.17819   0.00000  Uiso   1.00
N317   N     0.41580   0.37761   0.07354   0.00000  Uiso   1.00
N318   N     0.01885   0.97190   0.85583   0.00000  Uiso   1.00
N319   N     0.42862   0.99289   0.09524   0.00000  Uiso   1.00
N320   N     0.39808   0.40125   0.16922   0.00000  Uiso   1.00
N321   N     0.00113   0.99554   0.95151   0.00000  Uiso   1.00
N322   N     0.41090   0.01653   0.19092   0.00000  Uiso   1.00
C323   C     0.92893   0.49245   0.02439   0.00000  Uiso   1.00
C324   C     0.94957   0.51843   0.10355   0.00000  Uiso   1.00
C325   C     0.91494   0.54524   0.13820   0.00000  Uiso   1.00
C326   C     0.94205   0.56618   0.21082   0.00000  Uiso   1.00
C327   C     0.96501   0.60736   0.32817   0.00000  Uiso   1.00
C328   C     0.91724   0.41665   0.99819   0.00000  Uiso   1.00
C329   C     0.85544   0.35788   0.94424   0.00000  Uiso   1.00
C330   C     0.85534   0.29314   0.92817   0.00000  Uiso   1.00
C331   C     0.82812   0.17631   0.88191   0.00000  Uiso   1.00
C332   C     0.99517   0.53506   0.01759   0.00000  Uiso   1.00
C333   C     0.99889   0.57584   0.97994   0.00000  Uiso   1.00
C334   C     0.06440   0.61078   0.98019   0.00000  Uiso   1.00
C335   C     0.15819   0.67780   0.96405   0.00000  Uiso   1.00
C336   C     0.03865   0.48196   0.09176   0.00000  Uiso   1.00
C337   C     0.00916   0.51273   0.14014   0.00000  Uiso   1.00
C338   C     0.03633   0.53364   0.21274   0.00000  Uiso   1.00
C339   C     0.00176   0.56047   0.24749   0.00000  Uiso   1.00
C340   C     0.97683   0.41095   0.03478   0.00000  Uiso   1.00
C341   C     0.97683   0.34628   0.01878   0.00000  Uiso   1.00
C342   C     0.91504   0.28743   0.96483   0.00000  Uiso   1.00
C343   C     0.05477   0.52937   0.05419   0.00000  Uiso   1.00
C344   C     0.12028   0.56424   0.05449   0.00000  Uiso   1.00
C345   C     0.12410   0.60507   0.01685   0.00000  Uiso   1.00
H346   H     0.88253   0.49688   0.99589   0.00000  Uiso   1.00
H347   H     0.86882   0.54964   0.10985   0.00000  Uiso   1.00
H348   H     0.80933   0.36231   0.91593   0.00000  Uiso   1.00
H349   H     0.95276   0.58024   0.95163   0.00000  Uiso   1.00
H350   H     0.87989   0.60559   0.25234   0.00000  Uiso   1.00
H351   H     0.75445   0.21061   0.84342   0.00000  Uiso   1.00
H352   H     0.05691   0.67015   0.91869   0.00000  Uiso   1.00
H353   H     0.08505   0.47752   0.12025   0.00000  Uiso   1.00
H354   H     0.08245   0.52922   0.24104   0.00000  Uiso   1.00
H355   H     0.02296   0.34189   0.04711   0.00000  Uiso   1.00
H356   H     0.16639   0.55982   0.08281   0.00000  Uiso   1.00
H357   H     0.05327   0.58902   0.35881   0.00000  Uiso   1.00
H358   H     0.92784   0.19403   0.94989   0.00000  Uiso   1.00
H359   H     0.23030   0.65358   0.02516   0.00000  Uiso   1.00
O360   O     0.96120   0.63164   0.38279   0.00000  Uiso   1.00
O361   O     0.79664   0.11344   0.84629   0.00000  Uiso   1.00
O362   O     0.19346   0.71635   0.94505   0.00000  Uiso   1.00
N363   N     0.92106   0.59461   0.26082   0.00000  Uiso   1.00
N364   N     0.80378   0.22532   0.87851   0.00000  Uiso   1.00
N365   N     0.08655   0.65494   0.94887   0.00000  Uiso   1.00
N366   N     0.01436   0.58569   0.31812   0.00000  Uiso   1.00
N367   N     0.89708   0.21641   0.93581   0.00000  Uiso   1.00
N368   N     0.17985   0.64603   0.00616   0.00000  Uiso   1.00
C369   C     0.98801   0.14457   0.47309   0.00000  Uiso   1.00
C370   C     0.06830   0.17780   0.49609   0.00000  Uiso   1.00
C371   C     0.11350   0.15405   0.52722   0.00000  Uiso   1.00
C372   C     0.18527   0.19170   0.54437   0.00000  Uiso   1.00
C373   C     0.30604   0.23425   0.58212   0.00000  Uiso   1.00
C374   C     0.95402   0.12759   0.39472   0.00000  Uiso   1.00
C375   C     0.90314   0.06162   0.34063   0.00000  Uiso   1.00
C376   C     0.87871   0.05701   0.27245   0.00000  Uiso   1.00
C377   C     0.82204   0.02162   0.15283   0.00000  Uiso   1.00
C378   C     0.97397   0.20310   0.51136   0.00000  Uiso   1.00
C379   C     0.93983   0.20062   0.55533   0.00000  Uiso   1.00
C380   C     0.93218   0.25957   0.58534   0.00000  Uiso   1.00
C381   C     0.90647   0.34142   0.64682   0.00000  Uiso   1.00
C382   C     0.03509   0.25368   0.44818   0.00000  Uiso   1.00
C383   C     0.09386   0.23706   0.48256   0.00000  Uiso   1.00
C384   C     0.16559   0.27476   0.49967   0.00000  Uiso   1.00
C385   C     0.21089   0.25107   0.53082   0.00000  Uiso   1.00
C386   C     0.97959   0.18685   0.38120   0.00000  Uiso   1.00
C387   C     0.95523   0.18233   0.31308   0.00000  Uiso   1.00
C388   C     0.90433   0.11638   0.25889   0.00000  Uiso   1.00
C389   C     0.99954   0.26236   0.49784   0.00000  Uiso   1.00
C390   C     0.99193   0.32133   0.52778   0.00000  Uiso   1.00
C391   C     0.95779   0.31894   0.57178   0.00000  Uiso   1.00
H392   H     0.96810   0.09843   0.48361   0.00000  Uiso   1.00
H393   H     0.09369   0.10818   0.53768   0.00000  Uiso   1.00
H394   H     0.88336   0.01577   0.35111   0.00000  Uiso   1.00
H395   H     0.92005   0.15475   0.56578   0.00000  Uiso   1.00
H396   H     0.24420   0.14511   0.59163   0.00000  Uiso   1.00
H397   H     0.80070   0.95027   0.19826   0.00000  Uiso   1.00
H398   H     0.87807   0.24332   0.65093   0.00000  Uiso   1.00
H399   H     0.05499   0.29982   0.43765   0.00000  Uiso   1.00
H400   H     0.18536   0.32062   0.48920   0.00000  Uiso   1.00
H401   H     0.97503   0.22820   0.30263   0.00000  Uiso   1.00
H402   H     0.01172   0.36718   0.51730   0.00000  Uiso   1.00
H403   H     0.31860   0.31752   0.55228   0.00000  Uiso   1.00
H404   H     0.87509   0.12268   0.15890   0.00000  Uiso   1.00
H405   H     0.95247   0.41573   0.61157   0.00000  Uiso   1.00
O406   O     0.36559   0.24135   0.60667   0.00000  Uiso   1.00
O407   O     0.78371   0.98573   0.09058   0.00000  Uiso   1.00
O408   O     0.88523   0.37021   0.68448   0.00000  Uiso   1.00
N409   N     0.24383   0.18284   0.57531   0.00000  Uiso   1.00
N410   N     0.82918   0.00067   0.20752   0.00000  Uiso   1.00
N411   N     0.90150   0.27464   0.63072   0.00000  Uiso   1.00
N412   N     0.28386   0.27562   0.55413   0.00000  Uiso   1.00
N413   N     0.86921   0.09345   0.18635   0.00000  Uiso   1.00
N414   N     0.94153   0.36742   0.60954   0.00000  Uiso   1.00
C415   C     0.80525   0.58772   0.52569   0.00000  Uiso   1.00
C416   C     0.83218   0.61523   0.60579   0.00000  Uiso   1.00
C417   C     0.86984   0.59240   0.64813   0.00000  Uiso   1.00
C418   C     0.88968   0.62416   0.72024   0.00000  Uiso   1.00
C419   C     0.93409   0.65883   0.84025   0.00000  Uiso   1.00
C420   C     0.72507   0.56234   0.49574   0.00000  Uiso   1.00
C421   C     0.67266   0.49506   0.44555   0.00000  Uiso   1.00
C422   C     0.60233   0.48230   0.42502   0.00000  Uiso   1.00
C423   C     0.48044   0.43489   0.37413   0.00000  Uiso   1.00
C424   C     0.83677   0.65207   0.51172   0.00000  Uiso   1.00
C425   C     0.87827   0.66021   0.47494   0.00000  Uiso   1.00
C426   C     0.90198   0.72299   0.46785   0.00000  Uiso   1.00
C427   C     0.95352   0.81488   0.44177   0.00000  Uiso   1.00
C428   C     0.77354   0.68472   0.57847   0.00000  Uiso   1.00
C429   C     0.81495   0.66791   0.63445   0.00000  Uiso   1.00
C430   C     0.83475   0.69972   0.70653   0.00000  Uiso   1.00
C431   C     0.87243   0.67694   0.74897   0.00000  Uiso   1.00
C432   C     0.70784   0.61503   0.52441   0.00000  Uiso   1.00
C433   C     0.63757   0.60238   0.50394   0.00000  Uiso   1.00
C434   C     0.58507   0.53509   0.45374   0.00000  Uiso   1.00
C435   C     0.81954   0.70475   0.54039   0.00000  Uiso   1.00
C436   C     0.84318   0.76753   0.53334   0.00000  Uiso   1.00
C437   C     0.88472   0.77577   0.49657   0.00000  Uiso   1.00
H438   H     0.81866   0.54670   0.50337   0.00000  Uiso   1.00
H439   H     0.88315   0.55162   0.62592   0.00000  Uiso   1.00
H440   H     0.68601   0.45430   0.42337   0.00000  Uiso   1.00
H441   H     0.89159   0.61943   0.45276   0.00000  Uiso   1.00
H442   H     0.94704   0.58029   0.77443   0.00000  Uiso   1.00
H443   H     0.53135   0.37508   0.34732   0.00000  Uiso   1.00
H444   H     0.96486   0.72329   0.40930   0.00000  Uiso   1.00
H445   H     0.76012   0.72574   0.60079   0.00000  Uiso   1.00
H446   H     0.82141   0.74049   0.72870   0.00000  Uiso   1.00
H447   H     0.62426   0.64316   0.52614   0.00000  Uiso   1.00
H448   H     0.82984   0.80829   0.55554   0.00000  Uiso   1.00
H449   H     0.89692   0.73358   0.85785   0.00000  Uiso   1.00
H450   H     0.48123   0.52837   0.43073   0.00000  Uiso   1.00
H451   H     0.91474   0.87658   0.49272   0.00000  Uiso   1.00
O452   O     0.96333   0.66339   0.89852   0.00000  Uiso   1.00
O453   O     0.41796   0.39417   0.33815   0.00000  Uiso   1.00
O454   O     0.98672   0.85101   0.41947   0.00000  Uiso   1.00
N455   N     0.92685   0.61435   0.77651   0.00000  Uiso   1.00
N456   N     0.53820   0.42249   0.37719   0.00000  Uiso   1.00
N457   N     0.94348   0.74803   0.43513   0.00000  Uiso   1.00
N458   N     0.89988   0.69684   0.82140   0.00000  Uiso   1.00
N459   N     0.51123   0.50498   0.42208   0.00000  Uiso   1.00
N460   N     0.91651   0.83052   0.48001   0.00000  Uiso   1.00
C461   C     0.47456   0.66830   0.99502   0.00000  Uiso   1.00
C462   C     0.51888   0.74746   0.02029   0.00000  Uiso   1.00
C463   C     0.50633   0.79970   0.05758   0.00000  Uiso   1.00
C464   C     0.55297   0.86903   0.07584   0.00000  Uiso   1.00
C465   C     0.61308   0.98945   0.11785   0.00000  Uiso   1.00
C466   C     0.45044   0.63523   0.91523   0.00000  Uiso   1.00
C467   C     0.38035   0.59309   0.86420   0.00000  Uiso   1.00
C468   C     0.36939   0.56794   0.79403   0.00000  Uiso   1.00
C469   C     0.32325   0.51407   0.67294   0.00000  Uiso   1.00
C470   C     0.52641   0.64293   0.02629   0.00000  Uiso   1.00
C471   C     0.52019   0.60725   0.06862   0.00000  Uiso   1.00
C472   C     0.57318   0.58856   0.09193   0.00000  Uiso   1.00
C473   C     0.64499   0.54664   0.14328   0.00000  Uiso   1.00
C474   C     0.57971   0.69853   0.96112   0.00000  Uiso   1.00
C475   C     0.57599   0.76388   0.00188   0.00000  Uiso   1.00
C476   C     0.62267   0.83315   0.02008   0.00000  Uiso   1.00
C477   C     0.61019   0.88548   0.05740   0.00000  Uiso   1.00
C478   C     0.50756   0.65165   0.89682   0.00000  Uiso   1.00
C479   C     0.49669   0.62654   0.82671   0.00000  Uiso   1.00
C480   C     0.42661   0.58439   0.77558   0.00000  Uiso   1.00
C481   C     0.58353   0.65935   0.00788   0.00000  Uiso   1.00
C482   C     0.63653   0.64070   0.03113   0.00000  Uiso   1.00
C483   C     0.63039   0.60501   0.07349   0.00000  Uiso   1.00
H484   H     0.43009   0.65551   0.00934   0.00000  Uiso   1.00
H485   H     0.46212   0.78697   0.07181   0.00000  Uiso   1.00
H486   H     0.33617   0.58039   0.87847   0.00000  Uiso   1.00
H487   H     0.47598   0.59455   0.08286   0.00000  Uiso   1.00
H488   H     0.52280   0.93995   0.13293   0.00000  Uiso   1.00
H489   H     0.25722   0.50435   0.72525   0.00000  Uiso   1.00
H490   H     0.55205   0.53420   0.15625   0.00000  Uiso   1.00
H491   H     0.62418   0.71132   0.94679   0.00000  Uiso   1.00
H492   H     0.66686   0.84584   0.00583   0.00000  Uiso   1.00
H493   H     0.54091   0.63926   0.81248   0.00000  Uiso   1.00
H494   H     0.68072   0.65342   0.01687   0.00000  Uiso   1.00
H495   H     0.68898   0.98774   0.07937   0.00000  Uiso   1.00
H496   H     0.42339   0.55213   0.67169   0.00000  Uiso   1.00
H497   H     0.71822   0.58199   0.10269   0.00000  Uiso   1.00
O498   O     0.63045   0.05133   0.14610   0.00000  Uiso   1.00
O499   O     0.28202   0.47982   0.61124   0.00000  Uiso   1.00
O500   O     0.66883   0.51900   0.17670   0.00000  Uiso   1.00
N501   N     0.55606   0.93274   0.11224   0.00000  Uiso   1.00
N502   N     0.30776   0.52548   0.73108   0.00000  Uiso   1.00
N503   N     0.58339   0.55338   0.13401   0.00000  Uiso   1.00
N504   N     0.64548   0.95845   0.08342   0.00000  Uiso   1.00
N505   N     0.39718   0.55119   0.70226   0.00000  Uiso   1.00
N506   N     0.67281   0.57909   0.10519   0.00000  Uiso   1.00
C507   C     0.48533   0.03667   0.56638   0.00000  Uiso   1.00
C508   C     0.56432   0.05661   0.59837   0.00000  Uiso   1.00
C509   C     0.61336   0.08760   0.57500   0.00000  Uiso   1.00
C510   C     0.68311   0.10171   0.61134   0.00000  Uiso   1.00
C511   C     0.80273   0.13513   0.65223   0.00000  Uiso   1.00
C512   C     0.44497   0.95815   0.54674   0.00000  Uiso   1.00
C513   C     0.39365   0.90635   0.47997   0.00000  Uiso   1.00
C514   C     0.36294   0.83757   0.47286   0.00000  Uiso   1.00
C515   C     0.29722   0.71812   0.43361   0.00000  Uiso   1.00
C516   C     0.47183   0.07466   0.62673   0.00000  Uiso   1.00
C517   C     0.44307   0.12081   0.62720   0.00000  Uiso   1.00
C518   C     0.43495   0.15011   0.68743   0.00000  Uiso   1.00
C519   C     0.41094   0.21156   0.77237   0.00000  Uiso   1.00
C520   C     0.52201   0.00663   0.67248   0.00000  Uiso   1.00
C521   C     0.58424   0.04029   0.65599   0.00000  Uiso   1.00
C522   C     0.65394   0.05436   0.69239   0.00000  Uiso   1.00
C523   C     0.70307   0.08537   0.66908   0.00000  Uiso   1.00
C524   C     0.46489   0.94183   0.60437   0.00000  Uiso   1.00
C525   C     0.43424   0.87311   0.59736   0.00000  Uiso   1.00
C526   C     0.38289   0.82122   0.53060   0.00000  Uiso   1.00
C527   C     0.49175   0.05834   0.68436   0.00000  Uiso   1.00
C528   C     0.48366   0.08757   0.74460   0.00000  Uiso   1.00
C529   C     0.45491   0.13376   0.74517   0.00000  Uiso   1.00
H530   H     0.46981   0.04937   0.52151   0.00000  Uiso   1.00
H531   H     0.59792   0.10022   0.53039   0.00000  Uiso   1.00
H532   H     0.37824   0.91900   0.43539   0.00000  Uiso   1.00
H533   H     0.42766   0.13343   0.58260   0.00000  Uiso   1.00
H534   H     0.74872   0.14937   0.56564   0.00000  Uiso   1.00
H535   H     0.28552   0.76726   0.36532   0.00000  Uiso   1.00
H536   H     0.38972   0.21942   0.67574   0.00000  Uiso   1.00
H537   H     0.53752   0.99392   0.71735   0.00000  Uiso   1.00
H538   H     0.66934   0.04173   0.73698   0.00000  Uiso   1.00
H539   H     0.44967   0.86050   0.64197   0.00000  Uiso   1.00
H540   H     0.49909   0.07493   0.78918   0.00000  Uiso   1.00
H541   H     0.80669   0.10189   0.73332   0.00000  Uiso   1.00
H542   H     0.34348   0.71978   0.53299   0.00000  Uiso   1.00
H543   H     0.44769   0.17194   0.84342   0.00000  Uiso   1.00
O544   O     0.86320   0.15806   0.65885   0.00000  Uiso   1.00
O545   O     0.25548   0.65674   0.39603   0.00000  Uiso   1.00
O546   O     0.39220   0.24998   0.80330   0.00000  Uiso   1.00
N547   N     0.74428   0.13165   0.60242   0.00000  Uiso   1.00
N548   N     0.31121   0.77439   0.41513   0.00000  Uiso   1.00
N549   N     0.40862   0.19711   0.70534   0.00000  Uiso   1.00
N550   N     0.77547   0.10610   0.69264   0.00000  Uiso   1.00
N551   N     0.34241   0.74885   0.50535   0.00000  Uiso   1.00
N552   N     0.43981   0.17157   0.79556   0.00000  Uiso   1.00
