data_job_04796
_audit_creation_date              2018-12-19
_audit_creation_method            'Materials Studio'
_symmetry_space_group_name_H-M    'P1'
_symmetry_Int_Tables_number       1
_symmetry_cell_setting            triclinic
loop_
_symmetry_equiv_pos_as_xyz
  x,y,z
_cell_length_a                    22.6943
_cell_length_b                    12.4575
_cell_length_c                    33.7893
_cell_angle_alpha                 90.0000
_cell_angle_beta                  142.5073
_cell_angle_gamma                 90.0000
loop_
_atom_site_label
_atom_site_type_symbol
_atom_site_fract_x
_atom_site_fract_y
_atom_site_fract_z
_atom_site_U_iso_or_equiv
_atom_site_adp_type
_atom_site_occupancy
C1     C     0.40486   0.89802   0.46771   0.00000  Uiso   1.00
C2     C     0.32420   0.98099   0.42101   0.00000  Uiso   1.00
C3     C     0.32991   0.07699   0.40336   0.00000  Uiso   1.00
C4     C     0.24823   0.14193   0.36000   0.00000  Uiso   1.00
C5     C     0.13582   0.27536   0.29128   0.00000  Uiso   1.00
C6     C     0.42141   0.88249   0.52078   0.00000  Uiso   1.00
C7     C     0.50887   0.89567   0.58701   0.00000  Uiso   1.00
C8     C     0.50901   0.87767   0.62764   0.00000  Uiso   1.00
C9     C     0.54755   0.85811   0.71382   0.00000  Uiso   1.00
C10    C     0.36259   0.79262   0.43008   0.00000  Uiso   1.00
C11    C     0.40060   0.73021   0.42007   0.00000  Uiso   1.00
C12    C     0.35124   0.63654   0.38435   0.00000  Uiso   1.00
C13    C     0.29845   0.47743   0.32972   0.00000  Uiso   1.00
C14    C     0.24962   0.84261   0.42210   0.00000  Uiso   1.00
C15    C     0.23988   0.95089   0.39624   0.00000  Uiso   1.00
C16    C     0.15816   0.01569   0.35289   0.00000  Uiso   1.00
C17    C     0.16375   0.11178   0.33518   0.00000  Uiso   1.00
C18    C     0.33709   0.85239   0.49601   0.00000  Uiso   1.00
C19    C     0.33711   0.83437   0.53655   0.00000  Uiso   1.00
C20    C     0.42454   0.84752   0.60282   0.00000  Uiso   1.00
C21    C     0.27827   0.76252   0.40531   0.00000  Uiso   1.00
C22    C     0.22884   0.66892   0.36961   0.00000  Uiso   1.00
C23    C     0.26677   0.60639   0.35954   0.00000  Uiso   1.00
H24    H     0.47051   0.92145   0.48700   0.00000  Uiso   1.00
H25    H     0.39519   0.10026   0.42254   0.00000  Uiso   1.00
H26    H     0.57411   0.91895   0.60617   0.00000  Uiso   1.00
H27    H     0.46585   0.75353   0.43925   0.00000  Uiso   1.00
H28    H     0.27450   0.28526   0.34018   0.00000  Uiso   1.00
H29    H     0.65178   0.90291   0.72736   0.00000  Uiso   1.00
H30    H     0.42351   0.55408   0.37539   0.00000  Uiso   1.00
H31    H     0.18397   0.81918   0.40281   0.00000  Uiso   1.00
H32    H     0.09292   0.99239   0.33373   0.00000  Uiso   1.00
H33    H     0.27185   0.81107   0.51736   0.00000  Uiso   1.00
H34    H     0.16359   0.64565   0.35044   0.00000  Uiso   1.00
H35    H     0.02917   0.19770   0.26810   0.00000  Uiso   1.00
H36    H     0.40646   0.81536   0.65529   0.00000  Uiso   1.00
H37    H     0.17818   0.46653   0.30331   0.00000  Uiso   1.00
O38    O     0.09712   0.35728   0.26023   0.00000  Uiso   1.00
O39    O     0.59210   0.85564   0.76820   0.00000  Uiso   1.00
O40    O     0.29261   0.39800   0.30642   0.00000  Uiso   1.00
N41    N     0.22925   0.24087   0.33268   0.00000  Uiso   1.00
N42    N     0.58198   0.88342   0.69468   0.00000  Uiso   1.00
N43    N     0.36858   0.55728   0.36562   0.00000  Uiso   1.00
N44    N     0.09724   0.19376   0.29390   0.00000  Uiso   1.00
N45    N     0.44997   0.83631   0.65589   0.00000  Uiso   1.00
N46    N     0.23657   0.51017   0.32684   0.00000  Uiso   1.00
C47    C     0.91051   0.34370   0.48430   0.00000  Uiso   1.00
C48    C     0.91641   0.42401   0.52142   0.00000  Uiso   1.00
C49    C     0.86354   0.51836   0.49632   0.00000  Uiso   1.00
C50    C     0.87936   0.58095   0.53813   0.00000  Uiso   1.00
C51    C     0.87846   0.71036   0.58596   0.00000  Uiso   1.00
C52    C     0.01333   0.33236   0.52319   0.00000  Uiso   1.00
C53    C     0.04193   0.34965   0.49958   0.00000  Uiso   1.00
C54    C     0.13934   0.33508   0.54288   0.00000  Uiso   1.00
C55    C     0.28889   0.32212   0.59344   0.00000  Uiso   1.00
C56    C     0.88549   0.23592   0.48976   0.00000  Uiso   1.00
C57    C     0.80663   0.17210   0.43803   0.00000  Uiso   1.00
C58    C     0.79642   0.07631   0.45319   0.00000  Uiso   1.00
C59    C     0.74749   0.91362   0.45183   0.00000  Uiso   1.00
C60    C     0.03263   0.28706   0.60318   0.00000  Uiso   1.00
C61    C     0.98274   0.39324   0.58599   0.00000  Uiso   1.00
C62    C     0.99864   0.45570   0.62785   0.00000  Uiso   1.00
C63    C     0.94580   0.55013   0.60282   0.00000  Uiso   1.00
C64    C     0.07965   0.30160   0.58776   0.00000  Uiso   1.00
C65    C     0.17704   0.28699   0.63110   0.00000  Uiso   1.00
C66    C     0.20579   0.30426   0.60757   0.00000  Uiso   1.00
C67    C     0.95182   0.20515   0.55432   0.00000  Uiso   1.00
C68    C     0.94173   0.10944   0.56956   0.00000  Uiso   1.00
C69    C     0.86287   0.04549   0.51787   0.00000  Uiso   1.00
H70    H     0.85888   0.36765   0.43403   0.00000  Uiso   1.00
H71    H     0.81222   0.54215   0.44635   0.00000  Uiso   1.00
H72    H     0.99059   0.37345   0.44961   0.00000  Uiso   1.00
H73    H     0.75532   0.19593   0.38808   0.00000  Uiso   1.00
H74    H     0.78977   0.72206   0.48850   0.00000  Uiso   1.00
H75    H     0.16585   0.36632   0.49536   0.00000  Uiso   1.00
H76    H     0.66975   0.99199   0.36560   0.00000  Uiso   1.00
H77    H     0.08427   0.26311   0.65345   0.00000  Uiso   1.00
H78    H     0.04998   0.43187   0.67781   0.00000  Uiso   1.00
H79    H     0.22834   0.26317   0.68106   0.00000  Uiso   1.00
H80    H     0.99307   0.08566   0.61953   0.00000  Uiso   1.00
H81    H     0.98275   0.63257   0.67635   0.00000  Uiso   1.00
H82    H     0.35883   0.27681   0.68321   0.00000  Uiso   1.00
H83    H     0.86272   0.90249   0.55345   0.00000  Uiso   1.00
O84    O     0.85966   0.79024   0.59450   0.00000  Uiso   1.00
O85    O     0.35306   0.32349   0.60349   0.00000  Uiso   1.00
O86    O     0.70217   0.83239   0.43325   0.00000  Uiso   1.00
N87    N     0.83988   0.67783   0.52936   0.00000  Uiso   1.00
N88    N     0.19150   0.34524   0.53578   0.00000  Uiso   1.00
N89    N     0.72769   0.99526   0.41446   0.00000  Uiso   1.00
N90    N     0.94372   0.62967   0.63045   0.00000  Uiso   1.00
N91    N     0.29533   0.29708   0.63686   0.00000  Uiso   1.00
N92    N     0.83153   0.94710   0.51555   0.00000  Uiso   1.00
C93    C     0.57042   0.73498   0.98158   0.00000  Uiso   1.00
C94    C     0.65603   0.81136   0.03158   0.00000  Uiso   1.00
C95    C     0.65836   0.90242   0.05647   0.00000  Uiso   1.00
C96    C     0.74347   0.96170   0.10177   0.00000  Uiso   1.00
C97    C     0.86423   0.08501   0.17640   0.00000  Uiso   1.00
C98    C     0.54761   0.73088   0.92529   0.00000  Uiso   1.00
C99    C     0.45879   0.75427   0.86080   0.00000  Uiso   1.00
C100   C     0.45265   0.74579   0.81663   0.00000  Uiso   1.00
C101   C     0.40507   0.74407   0.72623   0.00000  Uiso   1.00
C102   C     0.60837   0.62388   0.01267   0.00000  Uiso   1.00
C103   C     0.57063   0.55728   0.02164   0.00000  Uiso   1.00
C104   C     0.61562   0.45870   0.05103   0.00000  Uiso   1.00
C105   C     0.66238   0.29085   0.09630   0.00000  Uiso   1.00
C106   C     0.71743   0.67833   0.01779   0.00000  Uiso   1.00
C107   C     0.73587   0.78059   0.05125   0.00000  Uiso   1.00
C108   C     0.82101   0.83974   0.09654   0.00000  Uiso   1.00
C109   C     0.82347   0.93087   0.12148   0.00000  Uiso   1.00
C110   C     0.62746   0.70011   0.94496   0.00000  Uiso   1.00
C111   C     0.62144   0.69159   0.90087   0.00000  Uiso   1.00
C112   C     0.53264   0.71496   0.83634   0.00000  Uiso   1.00
C113   C     0.68823   0.59311   0.03235   0.00000  Uiso   1.00
C114   C     0.73328   0.49460   0.06172   0.00000  Uiso   1.00
C115   C     0.69562   0.42787   0.07073   0.00000  Uiso   1.00
H116   H     0.50826   0.75894   0.96626   0.00000  Uiso   1.00
H117   H     0.59654   0.92621   0.04122   0.00000  Uiso   1.00
H118   H     0.39701   0.77807   0.84559   0.00000  Uiso   1.00
H119   H     0.50883   0.58112   0.00641   0.00000  Uiso   1.00
H120   H     0.72963   0.09812   0.13300   0.00000  Uiso   1.00
H121   H     0.30889   0.78572   0.72049   0.00000  Uiso   1.00
H122   H     0.54469   0.37041   0.05961   0.00000  Uiso   1.00
H123   H     0.77960   0.65437   0.03311   0.00000  Uiso   1.00
H124   H     0.88279   0.81591   0.11175   0.00000  Uiso   1.00
H125   H     0.68325   0.66776   0.91612   0.00000  Uiso   1.00
H126   H     0.79507   0.47082   0.07693   0.00000  Uiso   1.00
H127   H     0.96196   0.00860   0.19024   0.00000  Uiso   1.00
H128   H     0.54121   0.69618   0.77773   0.00000  Uiso   1.00
H129   H     0.77701   0.28088   0.11684   0.00000  Uiso   1.00
O130   O     0.90877   0.16153   0.21212   0.00000  Uiso   1.00
O131   O     0.35676   0.75165   0.67094   0.00000  Uiso   1.00
O132   O     0.66613   0.20678   0.11584   0.00000  Uiso   1.00
N133   N     0.77016   0.05487   0.13569   0.00000  Uiso   1.00
N134   N     0.37679   0.76281   0.75002   0.00000  Uiso   1.00
N135   N     0.59723   0.37452   0.06705   0.00000  Uiso   1.00
N136   N     0.89517   0.00670   0.16649   0.00000  Uiso   1.00
N137   N     0.50180   0.71463   0.78082   0.00000  Uiso   1.00
N138   N     0.72224   0.32634   0.09785   0.00000  Uiso   1.00
C139   C     0.89734   0.18587   0.86252   0.00000  Uiso   1.00
C140   C     0.89301   0.26215   0.82496   0.00000  Uiso   1.00
C141   C     0.94910   0.35358   0.84988   0.00000  Uiso   1.00
C142   C     0.93424   0.41270   0.80766   0.00000  Uiso   1.00
C143   C     0.93789   0.53593   0.75919   0.00000  Uiso   1.00
C144   C     0.79484   0.18112   0.82457   0.00000  Uiso   1.00
C145   C     0.76840   0.20440   0.84916   0.00000  Uiso   1.00
C146   C     0.67090   0.19528   0.80661   0.00000  Uiso   1.00
C147   C     0.52216   0.19263   0.75754   0.00000  Uiso   1.00
C148   C     0.91773   0.07487   0.85629   0.00000  Uiso   1.00
C149   C     0.99461   0.00881   0.90755   0.00000  Uiso   1.00
C150   C     0.00056   0.91023   0.89171   0.00000  Uiso   1.00
C151   C     0.04263   0.74262   0.89188   0.00000  Uiso   1.00
C152   C     0.77120   0.12826   0.74322   0.00000  Uiso   1.00
C153   C     0.82449   0.23086   0.76016   0.00000  Uiso   1.00
C154   C     0.80954   0.28985   0.71789   0.00000  Uiso   1.00
C155   C     0.86560   0.38135   0.74275   0.00000  Uiso   1.00
C156   C     0.72632   0.14983   0.75977   0.00000  Uiso   1.00
C157   C     0.62884   0.14066   0.71717   0.00000  Uiso   1.00
C158   C     0.60226   0.16393   0.74170   0.00000  Uiso   1.00
C159   C     0.84922   0.04358   0.79149   0.00000  Uiso   1.00
C160   C     0.85504   0.94508   0.77556   0.00000  Uiso   1.00
C161   C     0.93192   0.87888   0.82679   0.00000  Uiso   1.00
H162   H     0.95068   0.21023   0.91297   0.00000  Uiso   1.00
H163   H     0.00211   0.37778   0.90003   0.00000  Uiso   1.00
H164   H     0.82144   0.22860   0.89931   0.00000  Uiso   1.00
H165   H     0.04761   0.03305   0.95769   0.00000  Uiso   1.00
H166   H     0.02889   0.54976   0.85710   0.00000  Uiso   1.00
H167   H     0.64795   0.23518   0.85559   0.00000  Uiso   1.00
H168   H     0.12487   0.82281   0.97870   0.00000  Uiso   1.00
H169   H     0.71785   0.10390   0.69277   0.00000  Uiso   1.00
H170   H     0.75651   0.26561   0.66775   0.00000  Uiso   1.00
H171   H     0.57584   0.11644   0.66703   0.00000  Uiso   1.00
H172   H     0.80201   0.92089   0.72541   0.00000  Uiso   1.00
H173   H     0.82955   0.45872   0.66857   0.00000  Uiso   1.00
H174   H     0.44860   0.14414   0.66706   0.00000  Uiso   1.00
H175   H     0.92553   0.73178   0.79017   0.00000  Uiso   1.00
O176   O     0.95883   0.61256   0.75035   0.00000  Uiso   1.00
O177   O     0.45905   0.19982   0.74837   0.00000  Uiso   1.00
O178   O     0.08476   0.65882   0.90988   0.00000  Uiso   1.00
N179   N     0.97668   0.50613   0.81617   0.00000  Uiso   1.00
N180   N     0.62052   0.21203   0.81476   0.00000  Uiso   1.00
N181   N     0.06639   0.82649   0.92985   0.00000  Uiso   1.00
N182   N     0.86942   0.45714   0.71472   0.00000  Uiso   1.00
N183   N     0.51326   0.16305   0.71331   0.00000  Uiso   1.00
N184   N     0.95913   0.77751   0.82840   0.00000  Uiso   1.00
C185   C     0.40486   0.10198   0.96771   0.00000  Uiso   1.00
C186   C     0.32420   0.01901   0.92101   0.00000  Uiso   1.00
C187   C     0.32991   0.92301   0.90336   0.00000  Uiso   1.00
C188   C     0.24823   0.85807   0.86000   0.00000  Uiso   1.00
C189   C     0.13582   0.72464   0.79128   0.00000  Uiso   1.00
C190   C     0.42141   0.11751   0.02078   0.00000  Uiso   1.00
C191   C     0.50887   0.10433   0.08701   0.00000  Uiso   1.00
C192   C     0.50901   0.12233   0.12764   0.00000  Uiso   1.00
C193   C     0.54755   0.14189   0.21382   0.00000  Uiso   1.00
C194   C     0.36259   0.20738   0.93008   0.00000  Uiso   1.00
C195   C     0.40060   0.26979   0.92007   0.00000  Uiso   1.00
C196   C     0.35124   0.36346   0.88435   0.00000  Uiso   1.00
C197   C     0.29845   0.52257   0.82972   0.00000  Uiso   1.00
C198   C     0.24962   0.15739   0.92210   0.00000  Uiso   1.00
C199   C     0.23988   0.04911   0.89624   0.00000  Uiso   1.00
C200   C     0.15816   0.98431   0.85289   0.00000  Uiso   1.00
C201   C     0.16375   0.88822   0.83518   0.00000  Uiso   1.00
C202   C     0.33709   0.14761   0.99601   0.00000  Uiso   1.00
C203   C     0.33711   0.16563   0.03655   0.00000  Uiso   1.00
C204   C     0.42454   0.15248   0.10282   0.00000  Uiso   1.00
C205   C     0.27827   0.23748   0.90531   0.00000  Uiso   1.00
C206   C     0.22884   0.33108   0.86961   0.00000  Uiso   1.00
C207   C     0.26677   0.39361   0.85954   0.00000  Uiso   1.00
H208   H     0.47051   0.07855   0.98700   0.00000  Uiso   1.00
H209   H     0.39519   0.89974   0.92254   0.00000  Uiso   1.00
H210   H     0.57411   0.08105   0.10617   0.00000  Uiso   1.00
H211   H     0.46585   0.24647   0.93925   0.00000  Uiso   1.00
H212   H     0.27450   0.71474   0.84018   0.00000  Uiso   1.00
H213   H     0.65178   0.09709   0.22736   0.00000  Uiso   1.00
H214   H     0.42351   0.44592   0.87539   0.00000  Uiso   1.00
H215   H     0.18397   0.18082   0.90281   0.00000  Uiso   1.00
H216   H     0.09292   0.00761   0.83373   0.00000  Uiso   1.00
H217   H     0.27185   0.18893   0.01736   0.00000  Uiso   1.00
H218   H     0.16359   0.35435   0.85044   0.00000  Uiso   1.00
H219   H     0.02917   0.80230   0.76810   0.00000  Uiso   1.00
H220   H     0.40646   0.18464   0.15529   0.00000  Uiso   1.00
H221   H     0.17818   0.53347   0.80331   0.00000  Uiso   1.00
O222   O     0.09712   0.64272   0.76023   0.00000  Uiso   1.00
O223   O     0.59210   0.14436   0.26820   0.00000  Uiso   1.00
O224   O     0.29261   0.60200   0.80642   0.00000  Uiso   1.00
N225   N     0.22925   0.75913   0.83268   0.00000  Uiso   1.00
N226   N     0.58198   0.11658   0.19468   0.00000  Uiso   1.00
N227   N     0.36858   0.44272   0.86562   0.00000  Uiso   1.00
N228   N     0.09724   0.80624   0.79390   0.00000  Uiso   1.00
N229   N     0.44997   0.16369   0.15589   0.00000  Uiso   1.00
N230   N     0.23657   0.48983   0.82684   0.00000  Uiso   1.00
C231   C     0.91051   0.65630   0.98430   0.00000  Uiso   1.00
C232   C     0.91641   0.57599   0.02142   0.00000  Uiso   1.00
C233   C     0.86354   0.48164   0.99632   0.00000  Uiso   1.00
C234   C     0.87936   0.41905   0.03813   0.00000  Uiso   1.00
C235   C     0.87846   0.28964   0.08596   0.00000  Uiso   1.00
C236   C     0.01333   0.66764   0.02319   0.00000  Uiso   1.00
C237   C     0.04193   0.65035   0.99958   0.00000  Uiso   1.00
C238   C     0.13934   0.66492   0.04288   0.00000  Uiso   1.00
C239   C     0.28889   0.67788   0.09344   0.00000  Uiso   1.00
C240   C     0.88549   0.76408   0.98976   0.00000  Uiso   1.00
C241   C     0.80663   0.82790   0.93803   0.00000  Uiso   1.00
C242   C     0.79642   0.92369   0.95319   0.00000  Uiso   1.00
C243   C     0.74749   0.08638   0.95183   0.00000  Uiso   1.00
C244   C     0.03263   0.71294   0.10318   0.00000  Uiso   1.00
C245   C     0.98274   0.60676   0.08599   0.00000  Uiso   1.00
C246   C     0.99864   0.54430   0.12785   0.00000  Uiso   1.00
C247   C     0.94580   0.44987   0.10282   0.00000  Uiso   1.00
C248   C     0.07965   0.69840   0.08776   0.00000  Uiso   1.00
C249   C     0.17704   0.71301   0.13110   0.00000  Uiso   1.00
C250   C     0.20579   0.69574   0.10757   0.00000  Uiso   1.00
C251   C     0.95182   0.79485   0.05432   0.00000  Uiso   1.00
C252   C     0.94173   0.89056   0.06956   0.00000  Uiso   1.00
C253   C     0.86287   0.95451   0.01787   0.00000  Uiso   1.00
H254   H     0.85888   0.63235   0.93403   0.00000  Uiso   1.00
H255   H     0.81222   0.45785   0.94635   0.00000  Uiso   1.00
H256   H     0.99059   0.62655   0.94961   0.00000  Uiso   1.00
H257   H     0.75532   0.80407   0.88808   0.00000  Uiso   1.00
H258   H     0.78977   0.27794   0.98850   0.00000  Uiso   1.00
H259   H     0.16585   0.63368   0.99536   0.00000  Uiso   1.00
H260   H     0.66975   0.00801   0.86560   0.00000  Uiso   1.00
H261   H     0.08427   0.73689   0.15345   0.00000  Uiso   1.00
H262   H     0.04998   0.56813   0.17781   0.00000  Uiso   1.00
H263   H     0.22834   0.73683   0.18106   0.00000  Uiso   1.00
H264   H     0.99307   0.91434   0.11953   0.00000  Uiso   1.00
H265   H     0.98275   0.36743   0.17635   0.00000  Uiso   1.00
H266   H     0.35883   0.72319   0.18321   0.00000  Uiso   1.00
H267   H     0.86272   0.09751   0.05345   0.00000  Uiso   1.00
O268   O     0.85966   0.20976   0.09450   0.00000  Uiso   1.00
O269   O     0.35306   0.67651   0.10349   0.00000  Uiso   1.00
O270   O     0.70217   0.16761   0.93325   0.00000  Uiso   1.00
N271   N     0.83988   0.32217   0.02936   0.00000  Uiso   1.00
N272   N     0.19150   0.65476   0.03578   0.00000  Uiso   1.00
N273   N     0.72769   0.00474   0.91446   0.00000  Uiso   1.00
N274   N     0.94372   0.37033   0.13045   0.00000  Uiso   1.00
N275   N     0.29533   0.70292   0.13686   0.00000  Uiso   1.00
N276   N     0.83153   0.05290   0.01555   0.00000  Uiso   1.00
C277   C     0.57042   0.26502   0.48158   0.00000  Uiso   1.00
C278   C     0.65603   0.18864   0.53158   0.00000  Uiso   1.00
C279   C     0.65836   0.09758   0.55647   0.00000  Uiso   1.00
C280   C     0.74347   0.03830   0.60177   0.00000  Uiso   1.00
C281   C     0.86423   0.91499   0.67640   0.00000  Uiso   1.00
C282   C     0.54761   0.26912   0.42529   0.00000  Uiso   1.00
C283   C     0.45879   0.24573   0.36080   0.00000  Uiso   1.00
C284   C     0.45265   0.25421   0.31663   0.00000  Uiso   1.00
C285   C     0.40507   0.25593   0.22623   0.00000  Uiso   1.00
C286   C     0.60837   0.37612   0.51267   0.00000  Uiso   1.00
C287   C     0.57063   0.44272   0.52164   0.00000  Uiso   1.00
C288   C     0.61562   0.54130   0.55103   0.00000  Uiso   1.00
C289   C     0.66238   0.70915   0.59630   0.00000  Uiso   1.00
C290   C     0.71743   0.32167   0.51779   0.00000  Uiso   1.00
C291   C     0.73587   0.21941   0.55125   0.00000  Uiso   1.00
C292   C     0.82101   0.16026   0.59654   0.00000  Uiso   1.00
C293   C     0.82347   0.06913   0.62148   0.00000  Uiso   1.00
C294   C     0.62746   0.29989   0.44496   0.00000  Uiso   1.00
C295   C     0.62144   0.30841   0.40087   0.00000  Uiso   1.00
C296   C     0.53264   0.28504   0.33634   0.00000  Uiso   1.00
C297   C     0.68823   0.40689   0.53235   0.00000  Uiso   1.00
C298   C     0.73328   0.50540   0.56172   0.00000  Uiso   1.00
C299   C     0.69562   0.57213   0.57073   0.00000  Uiso   1.00
H300   H     0.50826   0.24106   0.46626   0.00000  Uiso   1.00
H301   H     0.59654   0.07379   0.54122   0.00000  Uiso   1.00
H302   H     0.39701   0.22193   0.34559   0.00000  Uiso   1.00
H303   H     0.50883   0.41888   0.50641   0.00000  Uiso   1.00
H304   H     0.72963   0.90188   0.63300   0.00000  Uiso   1.00
H305   H     0.30889   0.21428   0.22049   0.00000  Uiso   1.00
H306   H     0.54469   0.62959   0.55961   0.00000  Uiso   1.00
H307   H     0.77960   0.34563   0.53311   0.00000  Uiso   1.00
H308   H     0.88279   0.18409   0.61175   0.00000  Uiso   1.00
H309   H     0.68325   0.33224   0.41612   0.00000  Uiso   1.00
H310   H     0.79507   0.52918   0.57693   0.00000  Uiso   1.00
H311   H     0.96196   0.99140   0.69024   0.00000  Uiso   1.00
H312   H     0.54121   0.30382   0.27773   0.00000  Uiso   1.00
H313   H     0.77701   0.71912   0.61684   0.00000  Uiso   1.00
O314   O     0.90877   0.83847   0.71212   0.00000  Uiso   1.00
O315   O     0.35676   0.24835   0.17094   0.00000  Uiso   1.00
O316   O     0.66613   0.79322   0.61584   0.00000  Uiso   1.00
N317   N     0.77016   0.94513   0.63569   0.00000  Uiso   1.00
N318   N     0.37679   0.23719   0.25002   0.00000  Uiso   1.00
N319   N     0.59723   0.62548   0.56705   0.00000  Uiso   1.00
N320   N     0.89517   0.99330   0.66649   0.00000  Uiso   1.00
N321   N     0.50180   0.28537   0.28082   0.00000  Uiso   1.00
N322   N     0.72224   0.67366   0.59785   0.00000  Uiso   1.00
C323   C     0.89734   0.81413   0.36252   0.00000  Uiso   1.00
C324   C     0.89301   0.73785   0.32496   0.00000  Uiso   1.00
C325   C     0.94910   0.64642   0.34988   0.00000  Uiso   1.00
C326   C     0.93424   0.58730   0.30766   0.00000  Uiso   1.00
C327   C     0.93789   0.46407   0.25919   0.00000  Uiso   1.00
C328   C     0.79484   0.81888   0.32457   0.00000  Uiso   1.00
C329   C     0.76840   0.79560   0.34916   0.00000  Uiso   1.00
C330   C     0.67090   0.80472   0.30661   0.00000  Uiso   1.00
C331   C     0.52216   0.80737   0.25754   0.00000  Uiso   1.00
C332   C     0.91773   0.92513   0.35629   0.00000  Uiso   1.00
C333   C     0.99461   0.99119   0.40755   0.00000  Uiso   1.00
C334   C     0.00056   0.08977   0.39171   0.00000  Uiso   1.00
C335   C     0.04263   0.25738   0.39188   0.00000  Uiso   1.00
C336   C     0.77120   0.87174   0.24322   0.00000  Uiso   1.00
C337   C     0.82449   0.76914   0.26016   0.00000  Uiso   1.00
C338   C     0.80954   0.71015   0.21789   0.00000  Uiso   1.00
C339   C     0.86560   0.61865   0.24275   0.00000  Uiso   1.00
C340   C     0.72632   0.85017   0.25977   0.00000  Uiso   1.00
C341   C     0.62884   0.85934   0.21717   0.00000  Uiso   1.00
C342   C     0.60226   0.83607   0.24170   0.00000  Uiso   1.00
C343   C     0.84922   0.95642   0.29149   0.00000  Uiso   1.00
C344   C     0.85504   0.05492   0.27556   0.00000  Uiso   1.00
C345   C     0.93192   0.12112   0.32679   0.00000  Uiso   1.00
H346   H     0.95068   0.78977   0.41297   0.00000  Uiso   1.00
H347   H     0.00211   0.62222   0.40003   0.00000  Uiso   1.00
H348   H     0.82144   0.77140   0.39931   0.00000  Uiso   1.00
H349   H     0.04761   0.96695   0.45769   0.00000  Uiso   1.00
H350   H     0.02889   0.45024   0.35710   0.00000  Uiso   1.00
H351   H     0.64795   0.76482   0.35559   0.00000  Uiso   1.00
H352   H     0.12487   0.17719   0.47870   0.00000  Uiso   1.00
H353   H     0.71785   0.89610   0.19277   0.00000  Uiso   1.00
H354   H     0.75651   0.73439   0.16775   0.00000  Uiso   1.00
H355   H     0.57584   0.88356   0.16703   0.00000  Uiso   1.00
H356   H     0.80201   0.07911   0.22541   0.00000  Uiso   1.00
H357   H     0.82955   0.54128   0.16857   0.00000  Uiso   1.00
H358   H     0.44860   0.85586   0.16706   0.00000  Uiso   1.00
H359   H     0.92553   0.26822   0.29017   0.00000  Uiso   1.00
O360   O     0.95883   0.38744   0.25035   0.00000  Uiso   1.00
O361   O     0.45905   0.80018   0.24837   0.00000  Uiso   1.00
O362   O     0.08476   0.34118   0.40988   0.00000  Uiso   1.00
N363   N     0.97668   0.49387   0.31617   0.00000  Uiso   1.00
N364   N     0.62052   0.78797   0.31476   0.00000  Uiso   1.00
N365   N     0.06639   0.17351   0.42985   0.00000  Uiso   1.00
N366   N     0.86942   0.54286   0.21472   0.00000  Uiso   1.00
N367   N     0.51326   0.83695   0.21331   0.00000  Uiso   1.00
N368   N     0.95913   0.22249   0.32840   0.00000  Uiso   1.00
