data_job_00512
_audit_creation_date              2018-12-19
_audit_creation_method            'Materials Studio'
_symmetry_space_group_name_H-M    'P1'
_symmetry_Int_Tables_number       1
_symmetry_cell_setting            triclinic
loop_
_symmetry_equiv_pos_as_xyz
  x,y,z
_cell_length_a                    22.4627
_cell_length_b                    11.3762
_cell_length_c                    28.9720
_cell_angle_alpha                 90.0000
_cell_angle_beta                  144.5624
_cell_angle_gamma                 90.0000
loop_
_atom_site_label
_atom_site_type_symbol
_atom_site_fract_x
_atom_site_fract_y
_atom_site_fract_z
_atom_site_U_iso_or_equiv
_atom_site_adp_type
_atom_site_occupancy
C1     C     0.52692   0.71696   0.87681   0.00000  Uiso   1.00
C2     C     0.51244   0.84846   0.85980   0.00000  Uiso   1.00
C3     C     0.58003   0.92182   0.87923   0.00000  Uiso   1.00
C4     C     0.55289   0.03950   0.85860   0.00000  Uiso   1.00
C5     C     0.54433   0.23721   0.83810   0.00000  Uiso   1.00
C6     C     0.52103   0.69856   0.92516   0.00000  Uiso   1.00
C7     C     0.59585   0.64586   0.99954   0.00000  Uiso   1.00
C8     C     0.57594   0.63735   0.03392   0.00000  Uiso   1.00
C9     C     0.58070   0.60226   0.11487   0.00000  Uiso   1.00
C10    C     0.43190   0.65769   0.79669   0.00000  Uiso   1.00
C11    C     0.43177   0.57061   0.76306   0.00000  Uiso   1.00
C12    C     0.33681   0.52767   0.68928   0.00000  Uiso   1.00
C13    C     0.20318   0.42912   0.57077   0.00000  Uiso   1.00
C14    C     0.35852   0.79550   0.80561   0.00000  Uiso   1.00
C15    C     0.42097   0.89112   0.82113   0.00000  Uiso   1.00
C16    C     0.39371   0.00872   0.80046   0.00000  Uiso   1.00
C17    C     0.46125   0.08225   0.81985   0.00000  Uiso   1.00
C18    C     0.42957   0.74122   0.88649   0.00000  Uiso   1.00
C19    C     0.40954   0.73277   0.92077   0.00000  Uiso   1.00
C20    C     0.48431   0.68009   0.99518   0.00000  Uiso   1.00
C21    C     0.34043   0.70035   0.75801   0.00000  Uiso   1.00
C22    C     0.24545   0.65752   0.68428   0.00000  Uiso   1.00
C23    C     0.24518   0.57041   0.65054   0.00000  Uiso   1.00
H24    H     0.59813   0.68374   0.90692   0.00000  Uiso   1.00
H25    H     0.65081   0.88877   0.90916   0.00000  Uiso   1.00
H26    H     0.66662   0.61285   0.02945   0.00000  Uiso   1.00
H27    H     0.50256   0.53761   0.79300   0.00000  Uiso   1.00
H28    H     0.66889   0.13491   0.89462   0.00000  Uiso   1.00
H29    H     0.70222   0.55308   0.14824   0.00000  Uiso   1.00
H30    H     0.35627   0.39443   0.64964   0.00000  Uiso   1.00
H31    H     0.28731   0.82872   0.77550   0.00000  Uiso   1.00
H32    H     0.32293   0.04172   0.77053   0.00000  Uiso   1.00
H33    H     0.33874   0.76579   0.89082   0.00000  Uiso   1.00
H34    H     0.17469   0.69056   0.65437   0.00000  Uiso   1.00
H35    H     0.40278   0.25905   0.78210   0.00000  Uiso   1.00
H36    H     0.43610   0.67721   0.03572   0.00000  Uiso   1.00
H37    H     0.09015   0.51857   0.53713   0.00000  Uiso   1.00
O38    O     0.56489   0.33448   0.83749   0.00000  Uiso   1.00
O39    O     0.60860   0.57112   0.17022   0.00000  Uiso   1.00
O40    O     0.15473   0.36299   0.51607   0.00000  Uiso   1.00
N41    N     0.60136   0.13489   0.86881   0.00000  Uiso   1.00
N42    N     0.63253   0.59093   0.10593   0.00000  Uiso   1.00
N43    N     0.30910   0.44258   0.63980   0.00000  Uiso   1.00
N44    N     0.45817   0.20169   0.80826   0.00000  Uiso   1.00
N45    N     0.48933   0.65773   0.04539   0.00000  Uiso   1.00
N46    N     0.16590   0.50938   0.57925   0.00000  Uiso   1.00
C47    C     0.02692   0.21696   0.87681   0.00000  Uiso   1.00
C48    C     0.01244   0.34846   0.85980   0.00000  Uiso   1.00
C49    C     0.08003   0.42182   0.87923   0.00000  Uiso   1.00
C50    C     0.05289   0.53950   0.85860   0.00000  Uiso   1.00
C51    C     0.04433   0.73721   0.83810   0.00000  Uiso   1.00
C52    C     0.02103   0.19856   0.92516   0.00000  Uiso   1.00
C53    C     0.09585   0.14586   0.99954   0.00000  Uiso   1.00
C54    C     0.07594   0.13735   0.03392   0.00000  Uiso   1.00
C55    C     0.08070   0.10226   0.11487   0.00000  Uiso   1.00
C56    C     0.93190   0.15769   0.79669   0.00000  Uiso   1.00
C57    C     0.93177   0.07061   0.76306   0.00000  Uiso   1.00
C58    C     0.83681   0.02767   0.68928   0.00000  Uiso   1.00
C59    C     0.70318   0.92912   0.57077   0.00000  Uiso   1.00
C60    C     0.85852   0.29550   0.80561   0.00000  Uiso   1.00
C61    C     0.92097   0.39112   0.82113   0.00000  Uiso   1.00
C62    C     0.89371   0.50872   0.80046   0.00000  Uiso   1.00
C63    C     0.96125   0.58225   0.81985   0.00000  Uiso   1.00
C64    C     0.92957   0.24122   0.88649   0.00000  Uiso   1.00
C65    C     0.90954   0.23277   0.92077   0.00000  Uiso   1.00
C66    C     0.98431   0.18009   0.99518   0.00000  Uiso   1.00
C67    C     0.84043   0.20035   0.75801   0.00000  Uiso   1.00
C68    C     0.74545   0.15752   0.68428   0.00000  Uiso   1.00
C69    C     0.74518   0.07041   0.65054   0.00000  Uiso   1.00
H70    H     0.09813   0.18374   0.90692   0.00000  Uiso   1.00
H71    H     0.15081   0.38877   0.90916   0.00000  Uiso   1.00
H72    H     0.16662   0.11285   0.02945   0.00000  Uiso   1.00
H73    H     0.00256   0.03761   0.79300   0.00000  Uiso   1.00
H74    H     0.16889   0.63491   0.89462   0.00000  Uiso   1.00
H75    H     0.20222   0.05308   0.14824   0.00000  Uiso   1.00
H76    H     0.85627   0.89443   0.64964   0.00000  Uiso   1.00
H77    H     0.78731   0.32872   0.77550   0.00000  Uiso   1.00
H78    H     0.82293   0.54172   0.77053   0.00000  Uiso   1.00
H79    H     0.83874   0.26579   0.89082   0.00000  Uiso   1.00
H80    H     0.67469   0.19056   0.65437   0.00000  Uiso   1.00
H81    H     0.90278   0.75905   0.78210   0.00000  Uiso   1.00
H82    H     0.93610   0.17721   0.03572   0.00000  Uiso   1.00
H83    H     0.59015   0.01857   0.53713   0.00000  Uiso   1.00
O84    O     0.06489   0.83448   0.83749   0.00000  Uiso   1.00
O85    O     0.10860   0.07112   0.17022   0.00000  Uiso   1.00
O86    O     0.65473   0.86299   0.51607   0.00000  Uiso   1.00
N87    N     0.10136   0.63489   0.86881   0.00000  Uiso   1.00
N88    N     0.13253   0.09093   0.10593   0.00000  Uiso   1.00
N89    N     0.80910   0.94258   0.63980   0.00000  Uiso   1.00
N90    N     0.95817   0.70169   0.80826   0.00000  Uiso   1.00
N91    N     0.98933   0.15773   0.04539   0.00000  Uiso   1.00
N92    N     0.66590   0.00938   0.57925   0.00000  Uiso   1.00
C93    C     0.47308   0.71696   0.62319   0.00000  Uiso   1.00
C94    C     0.48756   0.84846   0.64020   0.00000  Uiso   1.00
C95    C     0.41997   0.92182   0.62077   0.00000  Uiso   1.00
C96    C     0.44711   0.03950   0.64140   0.00000  Uiso   1.00
C97    C     0.45567   0.23721   0.66190   0.00000  Uiso   1.00
C98    C     0.47897   0.69856   0.57484   0.00000  Uiso   1.00
C99    C     0.40415   0.64586   0.50046   0.00000  Uiso   1.00
C100   C     0.42406   0.63735   0.46608   0.00000  Uiso   1.00
C101   C     0.41930   0.60226   0.38513   0.00000  Uiso   1.00
C102   C     0.56810   0.65769   0.70331   0.00000  Uiso   1.00
C103   C     0.56823   0.57061   0.73694   0.00000  Uiso   1.00
C104   C     0.66319   0.52767   0.81072   0.00000  Uiso   1.00
C105   C     0.79682   0.42912   0.92923   0.00000  Uiso   1.00
C106   C     0.64148   0.79550   0.69439   0.00000  Uiso   1.00
C107   C     0.57903   0.89112   0.67887   0.00000  Uiso   1.00
C108   C     0.60629   0.00872   0.69954   0.00000  Uiso   1.00
C109   C     0.53875   0.08225   0.68015   0.00000  Uiso   1.00
C110   C     0.57043   0.74122   0.61351   0.00000  Uiso   1.00
C111   C     0.59046   0.73277   0.57923   0.00000  Uiso   1.00
C112   C     0.51569   0.68009   0.50482   0.00000  Uiso   1.00
C113   C     0.65957   0.70035   0.74199   0.00000  Uiso   1.00
C114   C     0.75455   0.65752   0.81572   0.00000  Uiso   1.00
C115   C     0.75482   0.57041   0.84946   0.00000  Uiso   1.00
H116   H     0.40187   0.68374   0.59308   0.00000  Uiso   1.00
H117   H     0.34919   0.88877   0.59084   0.00000  Uiso   1.00
H118   H     0.33338   0.61285   0.47055   0.00000  Uiso   1.00
H119   H     0.49744   0.53761   0.70700   0.00000  Uiso   1.00
H120   H     0.33111   0.13491   0.60538   0.00000  Uiso   1.00
H121   H     0.29778   0.55308   0.35176   0.00000  Uiso   1.00
H122   H     0.64373   0.39443   0.85036   0.00000  Uiso   1.00
H123   H     0.71269   0.82872   0.72450   0.00000  Uiso   1.00
H124   H     0.67707   0.04172   0.72947   0.00000  Uiso   1.00
H125   H     0.66126   0.76579   0.60918   0.00000  Uiso   1.00
H126   H     0.82531   0.69056   0.84563   0.00000  Uiso   1.00
H127   H     0.59722   0.25905   0.71790   0.00000  Uiso   1.00
H128   H     0.56390   0.67721   0.46428   0.00000  Uiso   1.00
H129   H     0.90985   0.51857   0.96287   0.00000  Uiso   1.00
O130   O     0.43511   0.33448   0.66251   0.00000  Uiso   1.00
O131   O     0.39140   0.57112   0.32978   0.00000  Uiso   1.00
O132   O     0.84527   0.36299   0.98393   0.00000  Uiso   1.00
N133   N     0.39864   0.13489   0.63119   0.00000  Uiso   1.00
N134   N     0.36747   0.59093   0.39407   0.00000  Uiso   1.00
N135   N     0.69090   0.44258   0.86020   0.00000  Uiso   1.00
N136   N     0.54183   0.20169   0.69174   0.00000  Uiso   1.00
N137   N     0.51067   0.65773   0.45461   0.00000  Uiso   1.00
N138   N     0.83410   0.50938   0.92075   0.00000  Uiso   1.00
C139   C     0.97308   0.21696   0.62319   0.00000  Uiso   1.00
C140   C     0.98756   0.34846   0.64020   0.00000  Uiso   1.00
C141   C     0.91997   0.42182   0.62077   0.00000  Uiso   1.00
C142   C     0.94711   0.53950   0.64140   0.00000  Uiso   1.00
C143   C     0.95567   0.73721   0.66190   0.00000  Uiso   1.00
C144   C     0.97897   0.19856   0.57484   0.00000  Uiso   1.00
C145   C     0.90415   0.14586   0.50046   0.00000  Uiso   1.00
C146   C     0.92406   0.13735   0.46608   0.00000  Uiso   1.00
C147   C     0.91930   0.10226   0.38513   0.00000  Uiso   1.00
C148   C     0.06810   0.15769   0.70331   0.00000  Uiso   1.00
C149   C     0.06823   0.07061   0.73694   0.00000  Uiso   1.00
C150   C     0.16319   0.02767   0.81072   0.00000  Uiso   1.00
C151   C     0.29682   0.92912   0.92923   0.00000  Uiso   1.00
C152   C     0.14148   0.29550   0.69439   0.00000  Uiso   1.00
C153   C     0.07903   0.39112   0.67887   0.00000  Uiso   1.00
C154   C     0.10629   0.50872   0.69954   0.00000  Uiso   1.00
C155   C     0.03875   0.58225   0.68015   0.00000  Uiso   1.00
C156   C     0.07043   0.24122   0.61351   0.00000  Uiso   1.00
C157   C     0.09046   0.23277   0.57923   0.00000  Uiso   1.00
C158   C     0.01569   0.18009   0.50482   0.00000  Uiso   1.00
C159   C     0.15957   0.20035   0.74199   0.00000  Uiso   1.00
C160   C     0.25455   0.15752   0.81572   0.00000  Uiso   1.00
C161   C     0.25482   0.07041   0.84946   0.00000  Uiso   1.00
H162   H     0.90187   0.18374   0.59308   0.00000  Uiso   1.00
H163   H     0.84919   0.38877   0.59084   0.00000  Uiso   1.00
H164   H     0.83338   0.11285   0.47055   0.00000  Uiso   1.00
H165   H     0.99744   0.03761   0.70700   0.00000  Uiso   1.00
H166   H     0.83111   0.63491   0.60538   0.00000  Uiso   1.00
H167   H     0.79778   0.05308   0.35176   0.00000  Uiso   1.00
H168   H     0.14373   0.89443   0.85036   0.00000  Uiso   1.00
H169   H     0.21269   0.32872   0.72450   0.00000  Uiso   1.00
H170   H     0.17707   0.54172   0.72947   0.00000  Uiso   1.00
H171   H     0.16126   0.26579   0.60918   0.00000  Uiso   1.00
H172   H     0.32531   0.19056   0.84563   0.00000  Uiso   1.00
H173   H     0.09722   0.75905   0.71790   0.00000  Uiso   1.00
H174   H     0.06390   0.17721   0.46428   0.00000  Uiso   1.00
H175   H     0.40985   0.01857   0.96287   0.00000  Uiso   1.00
O176   O     0.93511   0.83448   0.66251   0.00000  Uiso   1.00
O177   O     0.89140   0.07112   0.32978   0.00000  Uiso   1.00
O178   O     0.34527   0.86299   0.98393   0.00000  Uiso   1.00
N179   N     0.89864   0.63489   0.63119   0.00000  Uiso   1.00
N180   N     0.86747   0.09093   0.39407   0.00000  Uiso   1.00
N181   N     0.19090   0.94258   0.86020   0.00000  Uiso   1.00
N182   N     0.04183   0.70169   0.69174   0.00000  Uiso   1.00
N183   N     0.01067   0.15773   0.45461   0.00000  Uiso   1.00
N184   N     0.33410   0.00938   0.92075   0.00000  Uiso   1.00
C185   C     0.47308   0.28304   0.12319   0.00000  Uiso   1.00
C186   C     0.48756   0.15154   0.14020   0.00000  Uiso   1.00
C187   C     0.41997   0.07818   0.12077   0.00000  Uiso   1.00
C188   C     0.44711   0.96050   0.14140   0.00000  Uiso   1.00
C189   C     0.45567   0.76279   0.16190   0.00000  Uiso   1.00
C190   C     0.47897   0.30144   0.07484   0.00000  Uiso   1.00
C191   C     0.40415   0.35414   0.00046   0.00000  Uiso   1.00
C192   C     0.42406   0.36265   0.96608   0.00000  Uiso   1.00
C193   C     0.41930   0.39774   0.88513   0.00000  Uiso   1.00
C194   C     0.56810   0.34231   0.20331   0.00000  Uiso   1.00
C195   C     0.56823   0.42939   0.23694   0.00000  Uiso   1.00
C196   C     0.66319   0.47233   0.31072   0.00000  Uiso   1.00
C197   C     0.79682   0.57088   0.42923   0.00000  Uiso   1.00
C198   C     0.64148   0.20450   0.19439   0.00000  Uiso   1.00
C199   C     0.57903   0.10888   0.17887   0.00000  Uiso   1.00
C200   C     0.60629   0.99128   0.19954   0.00000  Uiso   1.00
C201   C     0.53875   0.91775   0.18015   0.00000  Uiso   1.00
C202   C     0.57043   0.25878   0.11351   0.00000  Uiso   1.00
C203   C     0.59046   0.26723   0.07923   0.00000  Uiso   1.00
C204   C     0.51569   0.31991   0.00482   0.00000  Uiso   1.00
C205   C     0.65957   0.29965   0.24199   0.00000  Uiso   1.00
C206   C     0.75455   0.34248   0.31572   0.00000  Uiso   1.00
C207   C     0.75482   0.42959   0.34946   0.00000  Uiso   1.00
H208   H     0.40187   0.31626   0.09308   0.00000  Uiso   1.00
H209   H     0.34919   0.11123   0.09084   0.00000  Uiso   1.00
H210   H     0.33338   0.38715   0.97055   0.00000  Uiso   1.00
H211   H     0.49744   0.46239   0.20700   0.00000  Uiso   1.00
H212   H     0.33111   0.86509   0.10538   0.00000  Uiso   1.00
H213   H     0.29778   0.44692   0.85176   0.00000  Uiso   1.00
H214   H     0.64373   0.60557   0.35036   0.00000  Uiso   1.00
H215   H     0.71269   0.17128   0.22450   0.00000  Uiso   1.00
H216   H     0.67707   0.95828   0.22947   0.00000  Uiso   1.00
H217   H     0.66126   0.23421   0.10918   0.00000  Uiso   1.00
H218   H     0.82531   0.30944   0.34563   0.00000  Uiso   1.00
H219   H     0.59722   0.74095   0.21790   0.00000  Uiso   1.00
H220   H     0.56390   0.32279   0.96428   0.00000  Uiso   1.00
H221   H     0.90985   0.48143   0.46287   0.00000  Uiso   1.00
O222   O     0.43511   0.66552   0.16251   0.00000  Uiso   1.00
O223   O     0.39140   0.42888   0.82978   0.00000  Uiso   1.00
O224   O     0.84527   0.63701   0.48393   0.00000  Uiso   1.00
N225   N     0.39864   0.86511   0.13119   0.00000  Uiso   1.00
N226   N     0.36747   0.40907   0.89407   0.00000  Uiso   1.00
N227   N     0.69090   0.55742   0.36020   0.00000  Uiso   1.00
N228   N     0.54183   0.79831   0.19174   0.00000  Uiso   1.00
N229   N     0.51067   0.34227   0.95461   0.00000  Uiso   1.00
N230   N     0.83410   0.49062   0.42075   0.00000  Uiso   1.00
C231   C     0.97308   0.78304   0.12319   0.00000  Uiso   1.00
C232   C     0.98756   0.65154   0.14020   0.00000  Uiso   1.00
C233   C     0.91997   0.57818   0.12077   0.00000  Uiso   1.00
C234   C     0.94711   0.46050   0.14140   0.00000  Uiso   1.00
C235   C     0.95567   0.26279   0.16190   0.00000  Uiso   1.00
C236   C     0.97897   0.80144   0.07484   0.00000  Uiso   1.00
C237   C     0.90415   0.85414   0.00046   0.00000  Uiso   1.00
C238   C     0.92406   0.86265   0.96608   0.00000  Uiso   1.00
C239   C     0.91930   0.89774   0.88513   0.00000  Uiso   1.00
C240   C     0.06810   0.84231   0.20331   0.00000  Uiso   1.00
C241   C     0.06823   0.92939   0.23694   0.00000  Uiso   1.00
C242   C     0.16319   0.97233   0.31072   0.00000  Uiso   1.00
C243   C     0.29682   0.07088   0.42923   0.00000  Uiso   1.00
C244   C     0.14148   0.70450   0.19439   0.00000  Uiso   1.00
C245   C     0.07903   0.60888   0.17887   0.00000  Uiso   1.00
C246   C     0.10629   0.49128   0.19954   0.00000  Uiso   1.00
C247   C     0.03875   0.41775   0.18015   0.00000  Uiso   1.00
C248   C     0.07043   0.75878   0.11351   0.00000  Uiso   1.00
C249   C     0.09046   0.76723   0.07923   0.00000  Uiso   1.00
C250   C     0.01569   0.81991   0.00482   0.00000  Uiso   1.00
C251   C     0.15957   0.79965   0.24199   0.00000  Uiso   1.00
C252   C     0.25455   0.84248   0.31572   0.00000  Uiso   1.00
C253   C     0.25482   0.92959   0.34946   0.00000  Uiso   1.00
H254   H     0.90187   0.81626   0.09308   0.00000  Uiso   1.00
H255   H     0.84919   0.61123   0.09084   0.00000  Uiso   1.00
H256   H     0.83338   0.88715   0.97055   0.00000  Uiso   1.00
H257   H     0.99744   0.96239   0.20700   0.00000  Uiso   1.00
H258   H     0.83111   0.36509   0.10538   0.00000  Uiso   1.00
H259   H     0.79778   0.94692   0.85176   0.00000  Uiso   1.00
H260   H     0.14373   0.10557   0.35036   0.00000  Uiso   1.00
H261   H     0.21269   0.67128   0.22450   0.00000  Uiso   1.00
H262   H     0.17707   0.45828   0.22947   0.00000  Uiso   1.00
H263   H     0.16126   0.73421   0.10918   0.00000  Uiso   1.00
H264   H     0.32531   0.80944   0.34563   0.00000  Uiso   1.00
H265   H     0.09722   0.24095   0.21790   0.00000  Uiso   1.00
H266   H     0.06390   0.82279   0.96428   0.00000  Uiso   1.00
H267   H     0.40985   0.98143   0.46287   0.00000  Uiso   1.00
O268   O     0.93511   0.16552   0.16251   0.00000  Uiso   1.00
O269   O     0.89140   0.92888   0.82978   0.00000  Uiso   1.00
O270   O     0.34527   0.13701   0.48393   0.00000  Uiso   1.00
N271   N     0.89864   0.36511   0.13119   0.00000  Uiso   1.00
N272   N     0.86747   0.90907   0.89407   0.00000  Uiso   1.00
N273   N     0.19090   0.05742   0.36020   0.00000  Uiso   1.00
N274   N     0.04183   0.29831   0.19174   0.00000  Uiso   1.00
N275   N     0.01067   0.84227   0.95461   0.00000  Uiso   1.00
N276   N     0.33410   0.99062   0.42075   0.00000  Uiso   1.00
C277   C     0.52692   0.28304   0.37681   0.00000  Uiso   1.00
C278   C     0.51244   0.15154   0.35980   0.00000  Uiso   1.00
C279   C     0.58003   0.07818   0.37923   0.00000  Uiso   1.00
C280   C     0.55289   0.96050   0.35860   0.00000  Uiso   1.00
C281   C     0.54433   0.76279   0.33810   0.00000  Uiso   1.00
C282   C     0.52103   0.30144   0.42516   0.00000  Uiso   1.00
C283   C     0.59585   0.35414   0.49954   0.00000  Uiso   1.00
C284   C     0.57594   0.36265   0.53392   0.00000  Uiso   1.00
C285   C     0.58070   0.39774   0.61487   0.00000  Uiso   1.00
C286   C     0.43190   0.34231   0.29669   0.00000  Uiso   1.00
C287   C     0.43177   0.42939   0.26306   0.00000  Uiso   1.00
C288   C     0.33681   0.47233   0.18928   0.00000  Uiso   1.00
C289   C     0.20318   0.57088   0.07077   0.00000  Uiso   1.00
C290   C     0.35852   0.20450   0.30561   0.00000  Uiso   1.00
C291   C     0.42097   0.10888   0.32113   0.00000  Uiso   1.00
C292   C     0.39371   0.99128   0.30046   0.00000  Uiso   1.00
C293   C     0.46125   0.91775   0.31985   0.00000  Uiso   1.00
C294   C     0.42957   0.25878   0.38649   0.00000  Uiso   1.00
C295   C     0.40954   0.26723   0.42077   0.00000  Uiso   1.00
C296   C     0.48431   0.31991   0.49518   0.00000  Uiso   1.00
C297   C     0.34043   0.29965   0.25801   0.00000  Uiso   1.00
C298   C     0.24545   0.34248   0.18428   0.00000  Uiso   1.00
C299   C     0.24518   0.42959   0.15054   0.00000  Uiso   1.00
H300   H     0.59813   0.31626   0.40692   0.00000  Uiso   1.00
H301   H     0.65081   0.11123   0.40916   0.00000  Uiso   1.00
H302   H     0.66662   0.38715   0.52945   0.00000  Uiso   1.00
H303   H     0.50256   0.46239   0.29300   0.00000  Uiso   1.00
H304   H     0.66889   0.86509   0.39462   0.00000  Uiso   1.00
H305   H     0.70222   0.44692   0.64824   0.00000  Uiso   1.00
H306   H     0.35627   0.60557   0.14964   0.00000  Uiso   1.00
H307   H     0.28731   0.17128   0.27550   0.00000  Uiso   1.00
H308   H     0.32293   0.95828   0.27053   0.00000  Uiso   1.00
H309   H     0.33874   0.23421   0.39082   0.00000  Uiso   1.00
H310   H     0.17469   0.30944   0.15437   0.00000  Uiso   1.00
H311   H     0.40278   0.74095   0.28210   0.00000  Uiso   1.00
H312   H     0.43610   0.32279   0.53572   0.00000  Uiso   1.00
H313   H     0.09015   0.48143   0.03713   0.00000  Uiso   1.00
O314   O     0.56489   0.66552   0.33749   0.00000  Uiso   1.00
O315   O     0.60860   0.42888   0.67022   0.00000  Uiso   1.00
O316   O     0.15473   0.63701   0.01607   0.00000  Uiso   1.00
N317   N     0.60136   0.86511   0.36881   0.00000  Uiso   1.00
N318   N     0.63253   0.40907   0.60593   0.00000  Uiso   1.00
N319   N     0.30910   0.55742   0.13980   0.00000  Uiso   1.00
N320   N     0.45817   0.79831   0.30826   0.00000  Uiso   1.00
N321   N     0.48933   0.34227   0.54539   0.00000  Uiso   1.00
N322   N     0.16590   0.49062   0.07925   0.00000  Uiso   1.00
C323   C     0.02692   0.78304   0.37681   0.00000  Uiso   1.00
C324   C     0.01244   0.65154   0.35980   0.00000  Uiso   1.00
C325   C     0.08003   0.57818   0.37923   0.00000  Uiso   1.00
C326   C     0.05289   0.46050   0.35860   0.00000  Uiso   1.00
C327   C     0.04433   0.26279   0.33810   0.00000  Uiso   1.00
C328   C     0.02103   0.80144   0.42516   0.00000  Uiso   1.00
C329   C     0.09585   0.85414   0.49954   0.00000  Uiso   1.00
C330   C     0.07594   0.86265   0.53392   0.00000  Uiso   1.00
C331   C     0.08070   0.89774   0.61487   0.00000  Uiso   1.00
C332   C     0.93190   0.84231   0.29669   0.00000  Uiso   1.00
C333   C     0.93177   0.92939   0.26306   0.00000  Uiso   1.00
C334   C     0.83681   0.97233   0.18928   0.00000  Uiso   1.00
C335   C     0.70318   0.07088   0.07077   0.00000  Uiso   1.00
C336   C     0.85852   0.70450   0.30561   0.00000  Uiso   1.00
C337   C     0.92097   0.60888   0.32113   0.00000  Uiso   1.00
C338   C     0.89371   0.49128   0.30046   0.00000  Uiso   1.00
C339   C     0.96125   0.41775   0.31985   0.00000  Uiso   1.00
C340   C     0.92957   0.75878   0.38649   0.00000  Uiso   1.00
C341   C     0.90954   0.76723   0.42077   0.00000  Uiso   1.00
C342   C     0.98431   0.81991   0.49518   0.00000  Uiso   1.00
C343   C     0.84043   0.79965   0.25801   0.00000  Uiso   1.00
C344   C     0.74545   0.84248   0.18428   0.00000  Uiso   1.00
C345   C     0.74518   0.92959   0.15054   0.00000  Uiso   1.00
H346   H     0.09813   0.81626   0.40692   0.00000  Uiso   1.00
H347   H     0.15081   0.61123   0.40916   0.00000  Uiso   1.00
H348   H     0.16662   0.88715   0.52945   0.00000  Uiso   1.00
H349   H     0.00256   0.96239   0.29300   0.00000  Uiso   1.00
H350   H     0.16889   0.36509   0.39462   0.00000  Uiso   1.00
H351   H     0.20222   0.94692   0.64824   0.00000  Uiso   1.00
H352   H     0.85627   0.10557   0.14964   0.00000  Uiso   1.00
H353   H     0.78731   0.67128   0.27550   0.00000  Uiso   1.00
H354   H     0.82293   0.45828   0.27053   0.00000  Uiso   1.00
H355   H     0.83874   0.73421   0.39082   0.00000  Uiso   1.00
H356   H     0.67469   0.80944   0.15437   0.00000  Uiso   1.00
H357   H     0.90278   0.24095   0.28210   0.00000  Uiso   1.00
H358   H     0.93610   0.82279   0.53572   0.00000  Uiso   1.00
H359   H     0.59015   0.98143   0.03713   0.00000  Uiso   1.00
O360   O     0.06489   0.16552   0.33749   0.00000  Uiso   1.00
O361   O     0.10860   0.92888   0.67022   0.00000  Uiso   1.00
O362   O     0.65473   0.13701   0.01607   0.00000  Uiso   1.00
N363   N     0.10136   0.36511   0.36881   0.00000  Uiso   1.00
N364   N     0.13253   0.90907   0.60593   0.00000  Uiso   1.00
N365   N     0.80910   0.05742   0.13980   0.00000  Uiso   1.00
N366   N     0.95817   0.29831   0.30826   0.00000  Uiso   1.00
N367   N     0.98933   0.84227   0.54539   0.00000  Uiso   1.00
N368   N     0.66590   0.99062   0.07925   0.00000  Uiso   1.00
