data_job_00787
_audit_creation_date              2018-12-19
_audit_creation_method            'Materials Studio'
_symmetry_space_group_name_H-M    'P1'
_symmetry_Int_Tables_number       1
_symmetry_cell_setting            triclinic
loop_
_symmetry_equiv_pos_as_xyz
  x,y,z
_cell_length_a                    11.5830
_cell_length_b                    11.7659
_cell_length_c                    24.3646
_cell_angle_alpha                 90.0000
_cell_angle_beta                  133.2195
_cell_angle_gamma                 90.0000
loop_
_atom_site_label
_atom_site_type_symbol
_atom_site_fract_x
_atom_site_fract_y
_atom_site_fract_z
_atom_site_U_iso_or_equiv
_atom_site_adp_type
_atom_site_occupancy
C1     C     0.84135   0.36391   0.02907   0.00000  Uiso   1.00
C2     C     0.98438   0.28863   0.06378   0.00000  Uiso   1.00
C3     C     0.12062   0.32186   0.08059   0.00000  Uiso   1.00
C4     C     0.23802   0.24039   0.11212   0.00000  Uiso   1.00
C5     C     0.46287   0.14032   0.16382   0.00000  Uiso   1.00
C6     C     0.69886   0.30291   0.95793   0.00000  Uiso   1.00
C7     C     0.59503   0.34816   0.88575   0.00000  Uiso   1.00
C8     C     0.47207   0.27871   0.82817   0.00000  Uiso   1.00
C9     C     0.25356   0.20085   0.71555   0.00000  Uiso   1.00
C10    C     0.81767   0.36053   0.08338   0.00000  Uiso   1.00
C11    C     0.81369   0.45422   0.11667   0.00000  Uiso   1.00
C12    C     0.79071   0.43327   0.16470   0.00000  Uiso   1.00
C13    C     0.75668   0.44486   0.24686   0.00000  Uiso   1.00
C14    C     0.80757   0.16012   0.05518   0.00000  Uiso   1.00
C15    C     0.96603   0.17794   0.07796   0.00000  Uiso   1.00
C16    C     0.08325   0.09640   0.10947   0.00000  Uiso   1.00
C17    C     0.21965   0.12950   0.12633   0.00000  Uiso   1.00
C18    C     0.68051   0.19223   0.97211   0.00000  Uiso   1.00
C19    C     0.55766   0.12270   0.91463   0.00000  Uiso   1.00
C20    C     0.45368   0.16782   0.84237   0.00000  Uiso   1.00
C21    C     0.79932   0.24984   0.09756   0.00000  Uiso   1.00
C22    C     0.77633   0.22875   0.14555   0.00000  Uiso   1.00
C23    C     0.77233   0.32238   0.17890   0.00000  Uiso   1.00
H24    H     0.85563   0.45008   0.01803   0.00000  Uiso   1.00
H25    H     0.13477   0.40753   0.06960   0.00000  Uiso   1.00
H26    H     0.60925   0.43383   0.87479   0.00000  Uiso   1.00
H27    H     0.82789   0.53986   0.10568   0.00000  Uiso   1.00
H28    H     0.43614   0.31152   0.13301   0.00000  Uiso   1.00
H29    H     0.32802   0.36699   0.72224   0.00000  Uiso   1.00
H30    H     0.78905   0.59058   0.20912   0.00000  Uiso   1.00
H31    H     0.79329   0.07394   0.06621   0.00000  Uiso   1.00
H32    H     0.06902   0.01074   0.12044   0.00000  Uiso   1.00
H33    H     0.54350   0.03705   0.92562   0.00000  Uiso   1.00
H34    H     0.76214   0.14308   0.15651   0.00000  Uiso   1.00
H35    H     0.38277   0.98948   0.17426   0.00000  Uiso   1.00
H36    H     0.27464   0.04495   0.76350   0.00000  Uiso   1.00
H37    H     0.73569   0.26854   0.25037   0.00000  Uiso   1.00
O38    O     0.59194   0.11570   0.18841   0.00000  Uiso   1.00
O39    O     0.13812   0.18848   0.64951   0.00000  Uiso   1.00
O40    O     0.74300   0.48183   0.28827   0.00000  Uiso   1.00
N41    N     0.38575   0.24441   0.13529   0.00000  Uiso   1.00
N42    N     0.34974   0.29626   0.75125   0.00000  Uiso   1.00
N43    N     0.78073   0.50530   0.20642   0.00000  Uiso   1.00
N44    N     0.35704   0.07112   0.15749   0.00000  Uiso   1.00
N45    N     0.32102   0.12297   0.77345   0.00000  Uiso   1.00
N46    N     0.75201   0.33201   0.22862   0.00000  Uiso   1.00
C47    C     0.15865   0.36391   0.47093   0.00000  Uiso   1.00
C48    C     0.01562   0.28863   0.43622   0.00000  Uiso   1.00
C49    C     0.87938   0.32186   0.41941   0.00000  Uiso   1.00
C50    C     0.76198   0.24039   0.38788   0.00000  Uiso   1.00
C51    C     0.53713   0.14032   0.33618   0.00000  Uiso   1.00
C52    C     0.30114   0.30291   0.54207   0.00000  Uiso   1.00
C53    C     0.40497   0.34816   0.61425   0.00000  Uiso   1.00
C54    C     0.52793   0.27871   0.67183   0.00000  Uiso   1.00
C55    C     0.74644   0.20085   0.78445   0.00000  Uiso   1.00
C56    C     0.18233   0.36053   0.41662   0.00000  Uiso   1.00
C57    C     0.18631   0.45422   0.38333   0.00000  Uiso   1.00
C58    C     0.20929   0.43327   0.33530   0.00000  Uiso   1.00
C59    C     0.24332   0.44486   0.25314   0.00000  Uiso   1.00
C60    C     0.19243   0.16012   0.44482   0.00000  Uiso   1.00
C61    C     0.03397   0.17794   0.42204   0.00000  Uiso   1.00
C62    C     0.91675   0.09640   0.39053   0.00000  Uiso   1.00
C63    C     0.78035   0.12950   0.37367   0.00000  Uiso   1.00
C64    C     0.31949   0.19223   0.52789   0.00000  Uiso   1.00
C65    C     0.44234   0.12270   0.58537   0.00000  Uiso   1.00
C66    C     0.54632   0.16782   0.65763   0.00000  Uiso   1.00
C67    C     0.20068   0.24984   0.40244   0.00000  Uiso   1.00
C68    C     0.22367   0.22875   0.35445   0.00000  Uiso   1.00
C69    C     0.22767   0.32238   0.32110   0.00000  Uiso   1.00
H70    H     0.14437   0.45008   0.48197   0.00000  Uiso   1.00
H71    H     0.86523   0.40753   0.43040   0.00000  Uiso   1.00
H72    H     0.39075   0.43383   0.62521   0.00000  Uiso   1.00
H73    H     0.17211   0.53986   0.39432   0.00000  Uiso   1.00
H74    H     0.56386   0.31152   0.36699   0.00000  Uiso   1.00
H75    H     0.67198   0.36699   0.77776   0.00000  Uiso   1.00
H76    H     0.21095   0.59058   0.29088   0.00000  Uiso   1.00
H77    H     0.20671   0.07394   0.43379   0.00000  Uiso   1.00
H78    H     0.93098   0.01074   0.37956   0.00000  Uiso   1.00
H79    H     0.45650   0.03705   0.57438   0.00000  Uiso   1.00
H80    H     0.23786   0.14308   0.34349   0.00000  Uiso   1.00
H81    H     0.61723   0.98948   0.32574   0.00000  Uiso   1.00
H82    H     0.72536   0.04495   0.73650   0.00000  Uiso   1.00
H83    H     0.26431   0.26854   0.24963   0.00000  Uiso   1.00
O84    O     0.40806   0.11570   0.31159   0.00000  Uiso   1.00
O85    O     0.86188   0.18848   0.85049   0.00000  Uiso   1.00
O86    O     0.25700   0.48183   0.21173   0.00000  Uiso   1.00
N87    N     0.61425   0.24441   0.36471   0.00000  Uiso   1.00
N88    N     0.65026   0.29626   0.74875   0.00000  Uiso   1.00
N89    N     0.21927   0.50530   0.29358   0.00000  Uiso   1.00
N90    N     0.64296   0.07112   0.34251   0.00000  Uiso   1.00
N91    N     0.67898   0.12297   0.72655   0.00000  Uiso   1.00
N92    N     0.24799   0.33201   0.27138   0.00000  Uiso   1.00
C93    C     0.15865   0.63609   0.97093   0.00000  Uiso   1.00
C94    C     0.01562   0.71137   0.93622   0.00000  Uiso   1.00
C95    C     0.87938   0.67814   0.91941   0.00000  Uiso   1.00
C96    C     0.76198   0.75961   0.88788   0.00000  Uiso   1.00
C97    C     0.53713   0.85968   0.83618   0.00000  Uiso   1.00
C98    C     0.30114   0.69709   0.04207   0.00000  Uiso   1.00
C99    C     0.40497   0.65184   0.11425   0.00000  Uiso   1.00
C100   C     0.52793   0.72129   0.17183   0.00000  Uiso   1.00
C101   C     0.74644   0.79915   0.28445   0.00000  Uiso   1.00
C102   C     0.18233   0.63947   0.91662   0.00000  Uiso   1.00
C103   C     0.18631   0.54578   0.88333   0.00000  Uiso   1.00
C104   C     0.20929   0.56673   0.83530   0.00000  Uiso   1.00
C105   C     0.24332   0.55514   0.75314   0.00000  Uiso   1.00
C106   C     0.19243   0.83988   0.94482   0.00000  Uiso   1.00
C107   C     0.03397   0.82206   0.92204   0.00000  Uiso   1.00
C108   C     0.91675   0.90360   0.89053   0.00000  Uiso   1.00
C109   C     0.78035   0.87050   0.87367   0.00000  Uiso   1.00
C110   C     0.31949   0.80777   0.02789   0.00000  Uiso   1.00
C111   C     0.44234   0.87730   0.08537   0.00000  Uiso   1.00
C112   C     0.54632   0.83218   0.15763   0.00000  Uiso   1.00
C113   C     0.20068   0.75016   0.90244   0.00000  Uiso   1.00
C114   C     0.22367   0.77125   0.85445   0.00000  Uiso   1.00
C115   C     0.22767   0.67762   0.82110   0.00000  Uiso   1.00
H116   H     0.14437   0.54992   0.98197   0.00000  Uiso   1.00
H117   H     0.86523   0.59247   0.93040   0.00000  Uiso   1.00
H118   H     0.39075   0.56617   0.12521   0.00000  Uiso   1.00
H119   H     0.17211   0.46014   0.89432   0.00000  Uiso   1.00
H120   H     0.56386   0.68848   0.86699   0.00000  Uiso   1.00
H121   H     0.67198   0.63301   0.27776   0.00000  Uiso   1.00
H122   H     0.21095   0.40942   0.79088   0.00000  Uiso   1.00
H123   H     0.20671   0.92606   0.93379   0.00000  Uiso   1.00
H124   H     0.93098   0.98926   0.87956   0.00000  Uiso   1.00
H125   H     0.45650   0.96295   0.07438   0.00000  Uiso   1.00
H126   H     0.23786   0.85692   0.84349   0.00000  Uiso   1.00
H127   H     0.61723   0.01052   0.82574   0.00000  Uiso   1.00
H128   H     0.72536   0.95505   0.23650   0.00000  Uiso   1.00
H129   H     0.26431   0.73146   0.74963   0.00000  Uiso   1.00
O130   O     0.40806   0.88430   0.81159   0.00000  Uiso   1.00
O131   O     0.86188   0.81152   0.35049   0.00000  Uiso   1.00
O132   O     0.25700   0.51817   0.71173   0.00000  Uiso   1.00
N133   N     0.61425   0.75559   0.86471   0.00000  Uiso   1.00
N134   N     0.65026   0.70374   0.24875   0.00000  Uiso   1.00
N135   N     0.21927   0.49470   0.79358   0.00000  Uiso   1.00
N136   N     0.64296   0.92888   0.84251   0.00000  Uiso   1.00
N137   N     0.67898   0.87703   0.22655   0.00000  Uiso   1.00
N138   N     0.24799   0.66799   0.77138   0.00000  Uiso   1.00
C139   C     0.84135   0.63609   0.52907   0.00000  Uiso   1.00
C140   C     0.98438   0.71137   0.56378   0.00000  Uiso   1.00
C141   C     0.12062   0.67814   0.58059   0.00000  Uiso   1.00
C142   C     0.23802   0.75961   0.61212   0.00000  Uiso   1.00
C143   C     0.46287   0.85968   0.66382   0.00000  Uiso   1.00
C144   C     0.69886   0.69709   0.45793   0.00000  Uiso   1.00
C145   C     0.59503   0.65184   0.38575   0.00000  Uiso   1.00
C146   C     0.47207   0.72129   0.32817   0.00000  Uiso   1.00
C147   C     0.25356   0.79915   0.21555   0.00000  Uiso   1.00
C148   C     0.81767   0.63947   0.58338   0.00000  Uiso   1.00
C149   C     0.81369   0.54578   0.61667   0.00000  Uiso   1.00
C150   C     0.79071   0.56673   0.66470   0.00000  Uiso   1.00
C151   C     0.75668   0.55514   0.74686   0.00000  Uiso   1.00
C152   C     0.80757   0.83988   0.55518   0.00000  Uiso   1.00
C153   C     0.96603   0.82206   0.57796   0.00000  Uiso   1.00
C154   C     0.08325   0.90360   0.60947   0.00000  Uiso   1.00
C155   C     0.21965   0.87050   0.62633   0.00000  Uiso   1.00
C156   C     0.68051   0.80777   0.47211   0.00000  Uiso   1.00
C157   C     0.55766   0.87730   0.41463   0.00000  Uiso   1.00
C158   C     0.45368   0.83218   0.34237   0.00000  Uiso   1.00
C159   C     0.79932   0.75016   0.59756   0.00000  Uiso   1.00
C160   C     0.77633   0.77125   0.64555   0.00000  Uiso   1.00
C161   C     0.77233   0.67762   0.67890   0.00000  Uiso   1.00
H162   H     0.85563   0.54992   0.51803   0.00000  Uiso   1.00
H163   H     0.13477   0.59247   0.56960   0.00000  Uiso   1.00
H164   H     0.60925   0.56617   0.37479   0.00000  Uiso   1.00
H165   H     0.82789   0.46014   0.60568   0.00000  Uiso   1.00
H166   H     0.43614   0.68848   0.63301   0.00000  Uiso   1.00
H167   H     0.32802   0.63301   0.22224   0.00000  Uiso   1.00
H168   H     0.78905   0.40942   0.70912   0.00000  Uiso   1.00
H169   H     0.79329   0.92606   0.56621   0.00000  Uiso   1.00
H170   H     0.06902   0.98926   0.62044   0.00000  Uiso   1.00
H171   H     0.54350   0.96295   0.42562   0.00000  Uiso   1.00
H172   H     0.76214   0.85692   0.65651   0.00000  Uiso   1.00
H173   H     0.38277   0.01052   0.67426   0.00000  Uiso   1.00
H174   H     0.27464   0.95505   0.26350   0.00000  Uiso   1.00
H175   H     0.73569   0.73146   0.75037   0.00000  Uiso   1.00
O176   O     0.59194   0.88430   0.68841   0.00000  Uiso   1.00
O177   O     0.13812   0.81152   0.14951   0.00000  Uiso   1.00
O178   O     0.74300   0.51817   0.78827   0.00000  Uiso   1.00
N179   N     0.38575   0.75559   0.63529   0.00000  Uiso   1.00
N180   N     0.34974   0.70374   0.25125   0.00000  Uiso   1.00
N181   N     0.78073   0.49470   0.70642   0.00000  Uiso   1.00
N182   N     0.35704   0.92888   0.65749   0.00000  Uiso   1.00
N183   N     0.32102   0.87703   0.27345   0.00000  Uiso   1.00
N184   N     0.75201   0.66799   0.72862   0.00000  Uiso   1.00
