data_job_02862
_audit_creation_date              2018-12-19
_audit_creation_method            'Materials Studio'
_symmetry_space_group_name_H-M    'P1'
_symmetry_Int_Tables_number       1
_symmetry_cell_setting            triclinic
loop_
_symmetry_equiv_pos_as_xyz
  x,y,z
_cell_length_a                    27.6565
_cell_length_b                    9.8180
_cell_length_c                    12.4465
_cell_angle_alpha                 90.0000
_cell_angle_beta                  90.0000
_cell_angle_gamma                 90.0000
loop_
_atom_site_label
_atom_site_type_symbol
_atom_site_fract_x
_atom_site_fract_y
_atom_site_fract_z
_atom_site_U_iso_or_equiv
_atom_site_adp_type
_atom_site_occupancy
C1     C     0.78816   0.54117   0.73281   0.00000  Uiso   1.00
C2     C     0.78253   0.46177   0.62825   0.00000  Uiso   1.00
C3     C     0.74079   0.45412   0.56666   0.00000  Uiso   1.00
C4     C     0.74299   0.37617   0.47372   0.00000  Uiso   1.00
C5     C     0.72778   0.26314   0.31599   0.00000  Uiso   1.00
C6     C     0.80491   0.43823   0.81666   0.00000  Uiso   1.00
C7     C     0.78200   0.41080   0.91347   0.00000  Uiso   1.00
C8     C     0.80305   0.31305   0.97913   0.00000  Uiso   1.00
C9     C     0.82262   0.16354   0.11393   0.00000  Uiso   1.00
C10    C     0.83057   0.63796   0.71547   0.00000  Uiso   1.00
C11    C     0.82923   0.77848   0.72723   0.00000  Uiso   1.00
C12    C     0.87187   0.84889   0.70772   0.00000  Uiso   1.00
C13    C     0.93127   0.00950   0.68541   0.00000  Uiso   1.00
C14    C     0.86628   0.41635   0.67728   0.00000  Uiso   1.00
C15    C     0.82496   0.39397   0.59810   0.00000  Uiso   1.00
C16    C     0.82722   0.31602   0.50522   0.00000  Uiso   1.00
C17    C     0.78549   0.30825   0.44349   0.00000  Uiso   1.00
C18    C     0.84735   0.37043   0.78650   0.00000  Uiso   1.00
C19    C     0.86843   0.27270   0.85203   0.00000  Uiso   1.00
C20    C     0.84555   0.24512   0.94891   0.00000  Uiso   1.00
C21    C     0.87300   0.57017   0.68530   0.00000  Uiso   1.00
C22    C     0.91566   0.64037   0.66578   0.00000  Uiso   1.00
C23    C     0.91438   0.78096   0.67751   0.00000  Uiso   1.00
H24    H     0.75512   0.59395   0.75630   0.00000  Uiso   1.00
H25    H     0.70796   0.50660   0.59003   0.00000  Uiso   1.00
H26    H     0.74917   0.46330   0.93679   0.00000  Uiso   1.00
H27    H     0.79638   0.83091   0.75057   0.00000  Uiso   1.00
H28    H     0.67438   0.37980   0.39242   0.00000  Uiso   1.00
H29    H     0.76127   0.28853   0.12359   0.00000  Uiso   1.00
H30    H     0.86084   0.06373   0.73092   0.00000  Uiso   1.00
H31    H     0.89932   0.36356   0.65380   0.00000  Uiso   1.00
H32    H     0.86006   0.26356   0.48190   0.00000  Uiso   1.00
H33    H     0.90127   0.22026   0.82867   0.00000  Uiso   1.00
H34    H     0.94849   0.58787   0.64244   0.00000  Uiso   1.00
H35    H     0.79783   0.18254   0.30466   0.00000  Uiso   1.00
H36    H     0.88472   0.09127   0.03584   0.00000  Uiso   1.00
H37    H     0.98429   0.86646   0.64316   0.00000  Uiso   1.00
O38    O     0.70767   0.21951   0.23733   0.00000  Uiso   1.00
O39    O     0.82168   0.09979   0.19661   0.00000  Uiso   1.00
O40    O     0.95231   0.11682   0.68142   0.00000  Uiso   1.00
N41    N     0.70882   0.34712   0.39534   0.00000  Uiso   1.00
N42    N     0.79006   0.26178   0.07894   0.00000  Uiso   1.00
N43    N     0.88315   0.98651   0.71185   0.00000  Uiso   1.00
N44    N     0.77525   0.24098   0.34812   0.00000  Uiso   1.00
N45    N     0.85649   0.15563   0.03172   0.00000  Uiso   1.00
N46    N     0.94958   0.88037   0.66463   0.00000  Uiso   1.00
C47    C     0.21184   0.45883   0.73281   0.00000  Uiso   1.00
C48    C     0.21747   0.53823   0.62825   0.00000  Uiso   1.00
C49    C     0.25921   0.54588   0.56666   0.00000  Uiso   1.00
C50    C     0.25701   0.62383   0.47372   0.00000  Uiso   1.00
C51    C     0.27222   0.73686   0.31599   0.00000  Uiso   1.00
C52    C     0.19509   0.56177   0.81666   0.00000  Uiso   1.00
C53    C     0.21800   0.58920   0.91347   0.00000  Uiso   1.00
C54    C     0.19695   0.68695   0.97913   0.00000  Uiso   1.00
C55    C     0.17738   0.83646   0.11393   0.00000  Uiso   1.00
C56    C     0.16943   0.36204   0.71547   0.00000  Uiso   1.00
C57    C     0.17077   0.22152   0.72723   0.00000  Uiso   1.00
C58    C     0.12813   0.15111   0.70772   0.00000  Uiso   1.00
C59    C     0.06873   0.99050   0.68541   0.00000  Uiso   1.00
C60    C     0.13372   0.58365   0.67728   0.00000  Uiso   1.00
C61    C     0.17504   0.60603   0.59810   0.00000  Uiso   1.00
C62    C     0.17278   0.68398   0.50522   0.00000  Uiso   1.00
C63    C     0.21451   0.69175   0.44349   0.00000  Uiso   1.00
C64    C     0.15265   0.62957   0.78650   0.00000  Uiso   1.00
C65    C     0.13157   0.72730   0.85203   0.00000  Uiso   1.00
C66    C     0.15445   0.75488   0.94891   0.00000  Uiso   1.00
C67    C     0.12700   0.42983   0.68530   0.00000  Uiso   1.00
C68    C     0.08434   0.35963   0.66578   0.00000  Uiso   1.00
C69    C     0.08562   0.21904   0.67751   0.00000  Uiso   1.00
H70    H     0.24488   0.40605   0.75630   0.00000  Uiso   1.00
H71    H     0.29204   0.49340   0.59003   0.00000  Uiso   1.00
H72    H     0.25083   0.53670   0.93679   0.00000  Uiso   1.00
H73    H     0.20362   0.16909   0.75057   0.00000  Uiso   1.00
H74    H     0.32562   0.62020   0.39242   0.00000  Uiso   1.00
H75    H     0.23873   0.71147   0.12359   0.00000  Uiso   1.00
H76    H     0.13916   0.93627   0.73092   0.00000  Uiso   1.00
H77    H     0.10068   0.63644   0.65380   0.00000  Uiso   1.00
H78    H     0.13994   0.73644   0.48190   0.00000  Uiso   1.00
H79    H     0.09873   0.77974   0.82867   0.00000  Uiso   1.00
H80    H     0.05151   0.41213   0.64244   0.00000  Uiso   1.00
H81    H     0.20217   0.81746   0.30466   0.00000  Uiso   1.00
H82    H     0.11528   0.90873   0.03584   0.00000  Uiso   1.00
H83    H     0.01571   0.13354   0.64316   0.00000  Uiso   1.00
O84    O     0.29233   0.78049   0.23733   0.00000  Uiso   1.00
O85    O     0.17832   0.90021   0.19661   0.00000  Uiso   1.00
O86    O     0.04769   0.88318   0.68142   0.00000  Uiso   1.00
N87    N     0.29118   0.65288   0.39534   0.00000  Uiso   1.00
N88    N     0.20994   0.73822   0.07894   0.00000  Uiso   1.00
N89    N     0.11685   0.01349   0.71185   0.00000  Uiso   1.00
N90    N     0.22475   0.75902   0.34812   0.00000  Uiso   1.00
N91    N     0.14351   0.84437   0.03172   0.00000  Uiso   1.00
N92    N     0.05042   0.11963   0.66463   0.00000  Uiso   1.00
C93    C     0.28816   0.95883   0.73281   0.00000  Uiso   1.00
C94    C     0.28253   0.03823   0.62825   0.00000  Uiso   1.00
C95    C     0.24079   0.04588   0.56666   0.00000  Uiso   1.00
C96    C     0.24299   0.12383   0.47372   0.00000  Uiso   1.00
C97    C     0.22778   0.23686   0.31599   0.00000  Uiso   1.00
C98    C     0.30491   0.06177   0.81666   0.00000  Uiso   1.00
C99    C     0.28200   0.08920   0.91347   0.00000  Uiso   1.00
C100   C     0.30305   0.18695   0.97913   0.00000  Uiso   1.00
C101   C     0.32262   0.33646   0.11393   0.00000  Uiso   1.00
C102   C     0.33057   0.86204   0.71547   0.00000  Uiso   1.00
C103   C     0.32923   0.72152   0.72723   0.00000  Uiso   1.00
C104   C     0.37187   0.65111   0.70772   0.00000  Uiso   1.00
C105   C     0.43127   0.49050   0.68541   0.00000  Uiso   1.00
C106   C     0.36628   0.08365   0.67728   0.00000  Uiso   1.00
C107   C     0.32496   0.10603   0.59810   0.00000  Uiso   1.00
C108   C     0.32722   0.18398   0.50522   0.00000  Uiso   1.00
C109   C     0.28549   0.19175   0.44349   0.00000  Uiso   1.00
C110   C     0.34735   0.12957   0.78650   0.00000  Uiso   1.00
C111   C     0.36843   0.22730   0.85203   0.00000  Uiso   1.00
C112   C     0.34555   0.25488   0.94891   0.00000  Uiso   1.00
C113   C     0.37300   0.92983   0.68530   0.00000  Uiso   1.00
C114   C     0.41566   0.85963   0.66578   0.00000  Uiso   1.00
C115   C     0.41438   0.71904   0.67751   0.00000  Uiso   1.00
H116   H     0.25512   0.90605   0.75630   0.00000  Uiso   1.00
H117   H     0.20796   0.99340   0.59003   0.00000  Uiso   1.00
H118   H     0.24917   0.03670   0.93679   0.00000  Uiso   1.00
H119   H     0.29638   0.66909   0.75057   0.00000  Uiso   1.00
H120   H     0.17438   0.12020   0.39242   0.00000  Uiso   1.00
H121   H     0.26127   0.21147   0.12359   0.00000  Uiso   1.00
H122   H     0.36084   0.43627   0.73092   0.00000  Uiso   1.00
H123   H     0.39932   0.13644   0.65380   0.00000  Uiso   1.00
H124   H     0.36006   0.23644   0.48190   0.00000  Uiso   1.00
H125   H     0.40127   0.27974   0.82867   0.00000  Uiso   1.00
H126   H     0.44849   0.91213   0.64244   0.00000  Uiso   1.00
H127   H     0.29783   0.31746   0.30466   0.00000  Uiso   1.00
H128   H     0.38472   0.40873   0.03584   0.00000  Uiso   1.00
H129   H     0.48429   0.63354   0.64316   0.00000  Uiso   1.00
O130   O     0.20767   0.28049   0.23733   0.00000  Uiso   1.00
O131   O     0.32168   0.40021   0.19661   0.00000  Uiso   1.00
O132   O     0.45231   0.38318   0.68142   0.00000  Uiso   1.00
N133   N     0.20882   0.15288   0.39534   0.00000  Uiso   1.00
N134   N     0.29006   0.23822   0.07894   0.00000  Uiso   1.00
N135   N     0.38315   0.51349   0.71185   0.00000  Uiso   1.00
N136   N     0.27525   0.25902   0.34812   0.00000  Uiso   1.00
N137   N     0.35649   0.34437   0.03172   0.00000  Uiso   1.00
N138   N     0.44958   0.61963   0.66463   0.00000  Uiso   1.00
C139   C     0.71184   0.04117   0.73281   0.00000  Uiso   1.00
C140   C     0.71747   0.96177   0.62825   0.00000  Uiso   1.00
C141   C     0.75921   0.95412   0.56666   0.00000  Uiso   1.00
C142   C     0.75701   0.87617   0.47372   0.00000  Uiso   1.00
C143   C     0.77222   0.76314   0.31599   0.00000  Uiso   1.00
C144   C     0.69509   0.93823   0.81666   0.00000  Uiso   1.00
C145   C     0.71800   0.91080   0.91347   0.00000  Uiso   1.00
C146   C     0.69695   0.81305   0.97913   0.00000  Uiso   1.00
C147   C     0.67738   0.66354   0.11393   0.00000  Uiso   1.00
C148   C     0.66943   0.13796   0.71547   0.00000  Uiso   1.00
C149   C     0.67077   0.27848   0.72723   0.00000  Uiso   1.00
C150   C     0.62813   0.34889   0.70772   0.00000  Uiso   1.00
C151   C     0.56873   0.50950   0.68541   0.00000  Uiso   1.00
C152   C     0.63372   0.91635   0.67728   0.00000  Uiso   1.00
C153   C     0.67504   0.89397   0.59810   0.00000  Uiso   1.00
C154   C     0.67278   0.81602   0.50522   0.00000  Uiso   1.00
C155   C     0.71451   0.80825   0.44349   0.00000  Uiso   1.00
C156   C     0.65265   0.87043   0.78650   0.00000  Uiso   1.00
C157   C     0.63157   0.77270   0.85203   0.00000  Uiso   1.00
C158   C     0.65445   0.74512   0.94891   0.00000  Uiso   1.00
C159   C     0.62700   0.07017   0.68530   0.00000  Uiso   1.00
C160   C     0.58434   0.14037   0.66578   0.00000  Uiso   1.00
C161   C     0.58562   0.28096   0.67751   0.00000  Uiso   1.00
H162   H     0.74488   0.09395   0.75630   0.00000  Uiso   1.00
H163   H     0.79204   0.00660   0.59003   0.00000  Uiso   1.00
H164   H     0.75083   0.96330   0.93679   0.00000  Uiso   1.00
H165   H     0.70362   0.33091   0.75057   0.00000  Uiso   1.00
H166   H     0.82562   0.87980   0.39242   0.00000  Uiso   1.00
H167   H     0.73873   0.78853   0.12359   0.00000  Uiso   1.00
H168   H     0.63916   0.56373   0.73092   0.00000  Uiso   1.00
H169   H     0.60068   0.86356   0.65380   0.00000  Uiso   1.00
H170   H     0.63994   0.76356   0.48190   0.00000  Uiso   1.00
H171   H     0.59873   0.72026   0.82867   0.00000  Uiso   1.00
H172   H     0.55151   0.08787   0.64244   0.00000  Uiso   1.00
H173   H     0.70217   0.68254   0.30466   0.00000  Uiso   1.00
H174   H     0.61528   0.59127   0.03584   0.00000  Uiso   1.00
H175   H     0.51571   0.36646   0.64316   0.00000  Uiso   1.00
O176   O     0.79233   0.71951   0.23733   0.00000  Uiso   1.00
O177   O     0.67832   0.59979   0.19661   0.00000  Uiso   1.00
O178   O     0.54769   0.61682   0.68142   0.00000  Uiso   1.00
N179   N     0.79118   0.84712   0.39534   0.00000  Uiso   1.00
N180   N     0.70994   0.76178   0.07894   0.00000  Uiso   1.00
N181   N     0.61685   0.48651   0.71185   0.00000  Uiso   1.00
N182   N     0.72475   0.74098   0.34812   0.00000  Uiso   1.00
N183   N     0.64351   0.65563   0.03172   0.00000  Uiso   1.00
N184   N     0.55042   0.38037   0.66463   0.00000  Uiso   1.00
