data_job_01445
_audit_creation_date              2018-12-19
_audit_creation_method            'Materials Studio'
_symmetry_space_group_name_H-M    'P1'
_symmetry_Int_Tables_number       1
_symmetry_cell_setting            triclinic
loop_
_symmetry_equiv_pos_as_xyz
  x,y,z
_cell_length_a                    25.0740
_cell_length_b                    17.0131
_cell_length_c                    11.3438
_cell_angle_alpha                 90.0000
_cell_angle_beta                  90.0000
_cell_angle_gamma                 90.0000
loop_
_atom_site_label
_atom_site_type_symbol
_atom_site_fract_x
_atom_site_fract_y
_atom_site_fract_z
_atom_site_U_iso_or_equiv
_atom_site_adp_type
_atom_site_occupancy
C1     C     0.07803   0.40314   0.55648   0.00000  Uiso   1.00
C2     C     0.12516   0.39760   0.64103   0.00000  Uiso   1.00
C3     C     0.12428   0.41690   0.75988   0.00000  Uiso   1.00
C4     C     0.17156   0.40776   0.82210   0.00000  Uiso   1.00
C5     C     0.23768   0.40337   0.96170   0.00000  Uiso   1.00
C6     C     0.09627   0.45589   0.45555   0.00000  Uiso   1.00
C7     C     0.07109   0.52419   0.41844   0.00000  Uiso   1.00
C8     C     0.09404   0.56410   0.32450   0.00000  Uiso   1.00
C9     C     0.11528   0.65018   0.17608   0.00000  Uiso   1.00
C10    C     0.07127   0.32129   0.50376   0.00000  Uiso   1.00
C11    C     0.02507   0.27643   0.50715   0.00000  Uiso   1.00
C12    C     0.02698   0.20304   0.45379   0.00000  Uiso   1.00
C13    C     0.00941   0.08014   0.38022   0.00000  Uiso   1.00
C14    C     0.16356   0.35258   0.45564   0.00000  Uiso   1.00
C15    C     0.17162   0.37014   0.58625   0.00000  Uiso   1.00
C16    C     0.21891   0.36096   0.64831   0.00000  Uiso   1.00
C17    C     0.21810   0.38024   0.76723   0.00000  Uiso   1.00
C18    C     0.14272   0.42843   0.40077   0.00000  Uiso   1.00
C19    C     0.16572   0.46825   0.30687   0.00000  Uiso   1.00
C20    C     0.14058   0.53659   0.26963   0.00000  Uiso   1.00
C21    C     0.11773   0.29383   0.44899   0.00000  Uiso   1.00
C22    C     0.11970   0.22050   0.39559   0.00000  Uiso   1.00
C23    C     0.07352   0.17553   0.39891   0.00000  Uiso   1.00
H24    H     0.04186   0.42452   0.59912   0.00000  Uiso   1.00
H25    H     0.08832   0.43815   0.80223   0.00000  Uiso   1.00
H26    H     0.03513   0.54542   0.46083   0.00000  Uiso   1.00
H27    H     0.98913   0.29770   0.54955   0.00000  Uiso   1.00
H28    H     0.16032   0.44118   0.00326   0.00000  Uiso   1.00
H29    H     0.04817   0.66734   0.28337   0.00000  Uiso   1.00
H30    H     0.95115   0.14499   0.47044   0.00000  Uiso   1.00
H31    H     0.19973   0.33120   0.41299   0.00000  Uiso   1.00
H32    H     0.25486   0.33971   0.60590   0.00000  Uiso   1.00
H33    H     0.20167   0.44698   0.26450   0.00000  Uiso   1.00
H34    H     0.15566   0.19926   0.35322   0.00000  Uiso   1.00
H35    H     0.29549   0.36129   0.84391   0.00000  Uiso   1.00
H36    H     0.18333   0.58745   0.12402   0.00000  Uiso   1.00
H37    H     0.08631   0.06509   0.31109   0.00000  Uiso   1.00
O38    O     0.26133   0.40854   0.05383   0.00000  Uiso   1.00
O39    O     0.11417   0.70525   0.10936   0.00000  Uiso   1.00
O40    O     0.98689   0.01993   0.35479   0.00000  Uiso   1.00
N41    N     0.18457   0.42120   0.93929   0.00000  Uiso   1.00
N42    N     0.07971   0.63265   0.26625   0.00000  Uiso   1.00
N43    N     0.98900   0.14430   0.44111   0.00000  Uiso   1.00
N44    N     0.25730   0.37820   0.85354   0.00000  Uiso   1.00
N45    N     0.15244   0.58966   0.18050   0.00000  Uiso   1.00
N46    N     0.06174   0.10131   0.35537   0.00000  Uiso   1.00
C47    C     0.42197   0.59686   0.55648   0.00000  Uiso   1.00
C48    C     0.37484   0.60240   0.64103   0.00000  Uiso   1.00
C49    C     0.37572   0.58310   0.75988   0.00000  Uiso   1.00
C50    C     0.32844   0.59224   0.82210   0.00000  Uiso   1.00
C51    C     0.26232   0.59663   0.96170   0.00000  Uiso   1.00
C52    C     0.40373   0.54411   0.45555   0.00000  Uiso   1.00
C53    C     0.42891   0.47581   0.41844   0.00000  Uiso   1.00
C54    C     0.40596   0.43590   0.32450   0.00000  Uiso   1.00
C55    C     0.38472   0.34982   0.17608   0.00000  Uiso   1.00
C56    C     0.42873   0.67871   0.50376   0.00000  Uiso   1.00
C57    C     0.47493   0.72357   0.50715   0.00000  Uiso   1.00
C58    C     0.47302   0.79696   0.45379   0.00000  Uiso   1.00
C59    C     0.49059   0.91986   0.38022   0.00000  Uiso   1.00
C60    C     0.33644   0.64742   0.45564   0.00000  Uiso   1.00
C61    C     0.32838   0.62986   0.58625   0.00000  Uiso   1.00
C62    C     0.28109   0.63904   0.64831   0.00000  Uiso   1.00
C63    C     0.28190   0.61976   0.76723   0.00000  Uiso   1.00
C64    C     0.35728   0.57157   0.40077   0.00000  Uiso   1.00
C65    C     0.33428   0.53175   0.30687   0.00000  Uiso   1.00
C66    C     0.35942   0.46341   0.26963   0.00000  Uiso   1.00
C67    C     0.38227   0.70617   0.44899   0.00000  Uiso   1.00
C68    C     0.38030   0.77950   0.39559   0.00000  Uiso   1.00
C69    C     0.42648   0.82447   0.39891   0.00000  Uiso   1.00
H70    H     0.45814   0.57548   0.59912   0.00000  Uiso   1.00
H71    H     0.41168   0.56185   0.80223   0.00000  Uiso   1.00
H72    H     0.46487   0.45458   0.46083   0.00000  Uiso   1.00
H73    H     0.51087   0.70230   0.54955   0.00000  Uiso   1.00
H74    H     0.33968   0.55882   0.00326   0.00000  Uiso   1.00
H75    H     0.45183   0.33266   0.28337   0.00000  Uiso   1.00
H76    H     0.54885   0.85501   0.47044   0.00000  Uiso   1.00
H77    H     0.30027   0.66880   0.41299   0.00000  Uiso   1.00
H78    H     0.24514   0.66029   0.60590   0.00000  Uiso   1.00
H79    H     0.29833   0.55302   0.26450   0.00000  Uiso   1.00
H80    H     0.34434   0.80074   0.35322   0.00000  Uiso   1.00
H81    H     0.20451   0.63871   0.84391   0.00000  Uiso   1.00
H82    H     0.31667   0.41255   0.12402   0.00000  Uiso   1.00
H83    H     0.41369   0.93491   0.31109   0.00000  Uiso   1.00
O84    O     0.23867   0.59146   0.05383   0.00000  Uiso   1.00
O85    O     0.38583   0.29475   0.10936   0.00000  Uiso   1.00
O86    O     0.51311   0.98007   0.35479   0.00000  Uiso   1.00
N87    N     0.31543   0.57880   0.93929   0.00000  Uiso   1.00
N88    N     0.42029   0.36735   0.26625   0.00000  Uiso   1.00
N89    N     0.51100   0.85570   0.44111   0.00000  Uiso   1.00
N90    N     0.24270   0.62180   0.85354   0.00000  Uiso   1.00
N91    N     0.34756   0.41034   0.18050   0.00000  Uiso   1.00
N92    N     0.43826   0.89869   0.35537   0.00000  Uiso   1.00
C93    C     0.42197   0.90314   0.94352   0.00000  Uiso   1.00
C94    C     0.37484   0.89760   0.85897   0.00000  Uiso   1.00
C95    C     0.37572   0.91690   0.74012   0.00000  Uiso   1.00
C96    C     0.32844   0.90776   0.67790   0.00000  Uiso   1.00
C97    C     0.26232   0.90337   0.53830   0.00000  Uiso   1.00
C98    C     0.40373   0.95589   0.04445   0.00000  Uiso   1.00
C99    C     0.42891   0.02419   0.08156   0.00000  Uiso   1.00
C100   C     0.40596   0.06410   0.17550   0.00000  Uiso   1.00
C101   C     0.38472   0.15018   0.32392   0.00000  Uiso   1.00
C102   C     0.42873   0.82129   0.99624   0.00000  Uiso   1.00
C103   C     0.47493   0.77643   0.99285   0.00000  Uiso   1.00
C104   C     0.47302   0.70304   0.04621   0.00000  Uiso   1.00
C105   C     0.49059   0.58014   0.11978   0.00000  Uiso   1.00
C106   C     0.33644   0.85258   0.04436   0.00000  Uiso   1.00
C107   C     0.32838   0.87014   0.91375   0.00000  Uiso   1.00
C108   C     0.28109   0.86096   0.85169   0.00000  Uiso   1.00
C109   C     0.28190   0.88024   0.73277   0.00000  Uiso   1.00
C110   C     0.35728   0.92843   0.09923   0.00000  Uiso   1.00
C111   C     0.33428   0.96825   0.19313   0.00000  Uiso   1.00
C112   C     0.35942   0.03659   0.23037   0.00000  Uiso   1.00
C113   C     0.38227   0.79383   0.05101   0.00000  Uiso   1.00
C114   C     0.38030   0.72050   0.10441   0.00000  Uiso   1.00
C115   C     0.42648   0.67553   0.10109   0.00000  Uiso   1.00
H116   H     0.45814   0.92452   0.90088   0.00000  Uiso   1.00
H117   H     0.41168   0.93815   0.69777   0.00000  Uiso   1.00
H118   H     0.46487   0.04542   0.03917   0.00000  Uiso   1.00
H119   H     0.51087   0.79770   0.95045   0.00000  Uiso   1.00
H120   H     0.33968   0.94118   0.49674   0.00000  Uiso   1.00
H121   H     0.45183   0.16734   0.21663   0.00000  Uiso   1.00
H122   H     0.54885   0.64499   0.02956   0.00000  Uiso   1.00
H123   H     0.30027   0.83120   0.08701   0.00000  Uiso   1.00
H124   H     0.24514   0.83971   0.89410   0.00000  Uiso   1.00
H125   H     0.29833   0.94698   0.23550   0.00000  Uiso   1.00
H126   H     0.34434   0.69926   0.14678   0.00000  Uiso   1.00
H127   H     0.20451   0.86129   0.65609   0.00000  Uiso   1.00
H128   H     0.31667   0.08745   0.37598   0.00000  Uiso   1.00
H129   H     0.41369   0.56509   0.18891   0.00000  Uiso   1.00
O130   O     0.23867   0.90854   0.44617   0.00000  Uiso   1.00
O131   O     0.38583   0.20525   0.39064   0.00000  Uiso   1.00
O132   O     0.51311   0.51993   0.14521   0.00000  Uiso   1.00
N133   N     0.31543   0.92120   0.56071   0.00000  Uiso   1.00
N134   N     0.42029   0.13265   0.23375   0.00000  Uiso   1.00
N135   N     0.51100   0.64430   0.05889   0.00000  Uiso   1.00
N136   N     0.24270   0.87820   0.64646   0.00000  Uiso   1.00
N137   N     0.34756   0.08966   0.31950   0.00000  Uiso   1.00
N138   N     0.43826   0.60131   0.14463   0.00000  Uiso   1.00
C139   C     0.07803   0.09686   0.94352   0.00000  Uiso   1.00
C140   C     0.12516   0.10240   0.85897   0.00000  Uiso   1.00
C141   C     0.12428   0.08310   0.74012   0.00000  Uiso   1.00
C142   C     0.17156   0.09224   0.67790   0.00000  Uiso   1.00
C143   C     0.23768   0.09663   0.53830   0.00000  Uiso   1.00
C144   C     0.09627   0.04411   0.04445   0.00000  Uiso   1.00
C145   C     0.07109   0.97581   0.08156   0.00000  Uiso   1.00
C146   C     0.09404   0.93590   0.17550   0.00000  Uiso   1.00
C147   C     0.11528   0.84982   0.32392   0.00000  Uiso   1.00
C148   C     0.07127   0.17871   0.99624   0.00000  Uiso   1.00
C149   C     0.02507   0.22357   0.99285   0.00000  Uiso   1.00
C150   C     0.02698   0.29696   0.04621   0.00000  Uiso   1.00
C151   C     0.00941   0.41986   0.11978   0.00000  Uiso   1.00
C152   C     0.16356   0.14742   0.04436   0.00000  Uiso   1.00
C153   C     0.17162   0.12986   0.91375   0.00000  Uiso   1.00
C154   C     0.21891   0.13904   0.85169   0.00000  Uiso   1.00
C155   C     0.21810   0.11976   0.73277   0.00000  Uiso   1.00
C156   C     0.14272   0.07157   0.09923   0.00000  Uiso   1.00
C157   C     0.16572   0.03175   0.19313   0.00000  Uiso   1.00
C158   C     0.14058   0.96341   0.23037   0.00000  Uiso   1.00
C159   C     0.11773   0.20617   0.05101   0.00000  Uiso   1.00
C160   C     0.11970   0.27950   0.10441   0.00000  Uiso   1.00
C161   C     0.07352   0.32447   0.10109   0.00000  Uiso   1.00
H162   H     0.04186   0.07548   0.90088   0.00000  Uiso   1.00
H163   H     0.08832   0.06185   0.69777   0.00000  Uiso   1.00
H164   H     0.03513   0.95458   0.03917   0.00000  Uiso   1.00
H165   H     0.98913   0.20230   0.95045   0.00000  Uiso   1.00
H166   H     0.16032   0.05882   0.49674   0.00000  Uiso   1.00
H167   H     0.04817   0.83266   0.21663   0.00000  Uiso   1.00
H168   H     0.95115   0.35501   0.02956   0.00000  Uiso   1.00
H169   H     0.19973   0.16880   0.08701   0.00000  Uiso   1.00
H170   H     0.25486   0.16029   0.89410   0.00000  Uiso   1.00
H171   H     0.20167   0.05302   0.23550   0.00000  Uiso   1.00
H172   H     0.15566   0.30074   0.14678   0.00000  Uiso   1.00
H173   H     0.29549   0.13871   0.65609   0.00000  Uiso   1.00
H174   H     0.18333   0.91255   0.37598   0.00000  Uiso   1.00
H175   H     0.08631   0.43491   0.18891   0.00000  Uiso   1.00
O176   O     0.26133   0.09146   0.44617   0.00000  Uiso   1.00
O177   O     0.11417   0.79475   0.39064   0.00000  Uiso   1.00
O178   O     0.98689   0.48007   0.14521   0.00000  Uiso   1.00
N179   N     0.18457   0.07880   0.56071   0.00000  Uiso   1.00
N180   N     0.07971   0.86735   0.23375   0.00000  Uiso   1.00
N181   N     0.98900   0.35570   0.05889   0.00000  Uiso   1.00
N182   N     0.25730   0.12180   0.64646   0.00000  Uiso   1.00
N183   N     0.15244   0.91034   0.31950   0.00000  Uiso   1.00
N184   N     0.06174   0.39869   0.14463   0.00000  Uiso   1.00
C185   C     0.92197   0.59686   0.44352   0.00000  Uiso   1.00
C186   C     0.87484   0.60240   0.35897   0.00000  Uiso   1.00
C187   C     0.87572   0.58310   0.24012   0.00000  Uiso   1.00
C188   C     0.82844   0.59224   0.17790   0.00000  Uiso   1.00
C189   C     0.76232   0.59663   0.03830   0.00000  Uiso   1.00
C190   C     0.90373   0.54411   0.54445   0.00000  Uiso   1.00
C191   C     0.92891   0.47581   0.58156   0.00000  Uiso   1.00
C192   C     0.90596   0.43590   0.67550   0.00000  Uiso   1.00
C193   C     0.88472   0.34982   0.82392   0.00000  Uiso   1.00
C194   C     0.92873   0.67871   0.49624   0.00000  Uiso   1.00
C195   C     0.97493   0.72357   0.49285   0.00000  Uiso   1.00
C196   C     0.97302   0.79696   0.54621   0.00000  Uiso   1.00
C197   C     0.99059   0.91986   0.61978   0.00000  Uiso   1.00
C198   C     0.83644   0.64742   0.54436   0.00000  Uiso   1.00
C199   C     0.82838   0.62986   0.41375   0.00000  Uiso   1.00
C200   C     0.78109   0.63904   0.35169   0.00000  Uiso   1.00
C201   C     0.78190   0.61976   0.23277   0.00000  Uiso   1.00
C202   C     0.85728   0.57157   0.59923   0.00000  Uiso   1.00
C203   C     0.83428   0.53175   0.69313   0.00000  Uiso   1.00
C204   C     0.85942   0.46341   0.73037   0.00000  Uiso   1.00
C205   C     0.88227   0.70617   0.55101   0.00000  Uiso   1.00
C206   C     0.88030   0.77950   0.60441   0.00000  Uiso   1.00
C207   C     0.92648   0.82447   0.60109   0.00000  Uiso   1.00
H208   H     0.95814   0.57548   0.40088   0.00000  Uiso   1.00
H209   H     0.91168   0.56185   0.19777   0.00000  Uiso   1.00
H210   H     0.96487   0.45458   0.53917   0.00000  Uiso   1.00
H211   H     0.01087   0.70230   0.45045   0.00000  Uiso   1.00
H212   H     0.83968   0.55882   0.99674   0.00000  Uiso   1.00
H213   H     0.95183   0.33266   0.71663   0.00000  Uiso   1.00
H214   H     0.04885   0.85501   0.52956   0.00000  Uiso   1.00
H215   H     0.80027   0.66880   0.58701   0.00000  Uiso   1.00
H216   H     0.74514   0.66029   0.39410   0.00000  Uiso   1.00
H217   H     0.79833   0.55302   0.73550   0.00000  Uiso   1.00
H218   H     0.84434   0.80074   0.64678   0.00000  Uiso   1.00
H219   H     0.70451   0.63871   0.15609   0.00000  Uiso   1.00
H220   H     0.81667   0.41255   0.87598   0.00000  Uiso   1.00
H221   H     0.91369   0.93491   0.68891   0.00000  Uiso   1.00
O222   O     0.73867   0.59146   0.94617   0.00000  Uiso   1.00
O223   O     0.88583   0.29475   0.89064   0.00000  Uiso   1.00
O224   O     0.01311   0.98007   0.64521   0.00000  Uiso   1.00
N225   N     0.81543   0.57880   0.06071   0.00000  Uiso   1.00
N226   N     0.92029   0.36735   0.73375   0.00000  Uiso   1.00
N227   N     0.01100   0.85570   0.55889   0.00000  Uiso   1.00
N228   N     0.74270   0.62180   0.14646   0.00000  Uiso   1.00
N229   N     0.84756   0.41034   0.81950   0.00000  Uiso   1.00
N230   N     0.93826   0.89869   0.64463   0.00000  Uiso   1.00
C231   C     0.57803   0.40314   0.44352   0.00000  Uiso   1.00
C232   C     0.62516   0.39760   0.35897   0.00000  Uiso   1.00
C233   C     0.62428   0.41690   0.24012   0.00000  Uiso   1.00
C234   C     0.67156   0.40776   0.17790   0.00000  Uiso   1.00
C235   C     0.73768   0.40337   0.03830   0.00000  Uiso   1.00
C236   C     0.59627   0.45589   0.54445   0.00000  Uiso   1.00
C237   C     0.57109   0.52419   0.58156   0.00000  Uiso   1.00
C238   C     0.59404   0.56410   0.67550   0.00000  Uiso   1.00
C239   C     0.61528   0.65018   0.82392   0.00000  Uiso   1.00
C240   C     0.57127   0.32129   0.49624   0.00000  Uiso   1.00
C241   C     0.52507   0.27643   0.49285   0.00000  Uiso   1.00
C242   C     0.52698   0.20304   0.54621   0.00000  Uiso   1.00
C243   C     0.50941   0.08014   0.61978   0.00000  Uiso   1.00
C244   C     0.66356   0.35258   0.54436   0.00000  Uiso   1.00
C245   C     0.67162   0.37014   0.41375   0.00000  Uiso   1.00
C246   C     0.71891   0.36096   0.35169   0.00000  Uiso   1.00
C247   C     0.71810   0.38024   0.23277   0.00000  Uiso   1.00
C248   C     0.64272   0.42843   0.59923   0.00000  Uiso   1.00
C249   C     0.66572   0.46825   0.69313   0.00000  Uiso   1.00
C250   C     0.64058   0.53659   0.73037   0.00000  Uiso   1.00
C251   C     0.61773   0.29383   0.55101   0.00000  Uiso   1.00
C252   C     0.61970   0.22050   0.60441   0.00000  Uiso   1.00
C253   C     0.57352   0.17553   0.60109   0.00000  Uiso   1.00
H254   H     0.54186   0.42452   0.40088   0.00000  Uiso   1.00
H255   H     0.58832   0.43815   0.19777   0.00000  Uiso   1.00
H256   H     0.53513   0.54542   0.53917   0.00000  Uiso   1.00
H257   H     0.48913   0.29770   0.45045   0.00000  Uiso   1.00
H258   H     0.66032   0.44118   0.99674   0.00000  Uiso   1.00
H259   H     0.54817   0.66734   0.71663   0.00000  Uiso   1.00
H260   H     0.45115   0.14499   0.52956   0.00000  Uiso   1.00
H261   H     0.69973   0.33120   0.58701   0.00000  Uiso   1.00
H262   H     0.75486   0.33971   0.39410   0.00000  Uiso   1.00
H263   H     0.70167   0.44698   0.73550   0.00000  Uiso   1.00
H264   H     0.65566   0.19926   0.64678   0.00000  Uiso   1.00
H265   H     0.79549   0.36129   0.15609   0.00000  Uiso   1.00
H266   H     0.68333   0.58745   0.87598   0.00000  Uiso   1.00
H267   H     0.58631   0.06509   0.68891   0.00000  Uiso   1.00
O268   O     0.76133   0.40854   0.94617   0.00000  Uiso   1.00
O269   O     0.61417   0.70525   0.89064   0.00000  Uiso   1.00
O270   O     0.48689   0.01993   0.64521   0.00000  Uiso   1.00
N271   N     0.68457   0.42120   0.06071   0.00000  Uiso   1.00
N272   N     0.57971   0.63265   0.73375   0.00000  Uiso   1.00
N273   N     0.48900   0.14430   0.55889   0.00000  Uiso   1.00
N274   N     0.75730   0.37820   0.14646   0.00000  Uiso   1.00
N275   N     0.65244   0.58966   0.81950   0.00000  Uiso   1.00
N276   N     0.56174   0.10131   0.64463   0.00000  Uiso   1.00
C277   C     0.57803   0.09686   0.05648   0.00000  Uiso   1.00
C278   C     0.62516   0.10240   0.14103   0.00000  Uiso   1.00
C279   C     0.62428   0.08310   0.25988   0.00000  Uiso   1.00
C280   C     0.67156   0.09224   0.32210   0.00000  Uiso   1.00
C281   C     0.73768   0.09663   0.46170   0.00000  Uiso   1.00
C282   C     0.59627   0.04411   0.95555   0.00000  Uiso   1.00
C283   C     0.57109   0.97581   0.91844   0.00000  Uiso   1.00
C284   C     0.59404   0.93590   0.82450   0.00000  Uiso   1.00
C285   C     0.61528   0.84982   0.67608   0.00000  Uiso   1.00
C286   C     0.57127   0.17871   0.00376   0.00000  Uiso   1.00
C287   C     0.52507   0.22357   0.00715   0.00000  Uiso   1.00
C288   C     0.52698   0.29696   0.95379   0.00000  Uiso   1.00
C289   C     0.50941   0.41986   0.88022   0.00000  Uiso   1.00
C290   C     0.66356   0.14742   0.95564   0.00000  Uiso   1.00
C291   C     0.67162   0.12986   0.08625   0.00000  Uiso   1.00
C292   C     0.71891   0.13904   0.14831   0.00000  Uiso   1.00
C293   C     0.71810   0.11976   0.26723   0.00000  Uiso   1.00
C294   C     0.64272   0.07157   0.90077   0.00000  Uiso   1.00
C295   C     0.66572   0.03175   0.80687   0.00000  Uiso   1.00
C296   C     0.64058   0.96341   0.76963   0.00000  Uiso   1.00
C297   C     0.61773   0.20617   0.94899   0.00000  Uiso   1.00
C298   C     0.61970   0.27950   0.89559   0.00000  Uiso   1.00
C299   C     0.57352   0.32447   0.89891   0.00000  Uiso   1.00
H300   H     0.54186   0.07548   0.09912   0.00000  Uiso   1.00
H301   H     0.58832   0.06185   0.30223   0.00000  Uiso   1.00
H302   H     0.53513   0.95458   0.96083   0.00000  Uiso   1.00
H303   H     0.48913   0.20230   0.04955   0.00000  Uiso   1.00
H304   H     0.66032   0.05882   0.50326   0.00000  Uiso   1.00
H305   H     0.54817   0.83266   0.78337   0.00000  Uiso   1.00
H306   H     0.45115   0.35501   0.97044   0.00000  Uiso   1.00
H307   H     0.69973   0.16880   0.91299   0.00000  Uiso   1.00
H308   H     0.75486   0.16029   0.10590   0.00000  Uiso   1.00
H309   H     0.70167   0.05302   0.76450   0.00000  Uiso   1.00
H310   H     0.65566   0.30074   0.85322   0.00000  Uiso   1.00
H311   H     0.79549   0.13871   0.34391   0.00000  Uiso   1.00
H312   H     0.68333   0.91255   0.62402   0.00000  Uiso   1.00
H313   H     0.58631   0.43491   0.81109   0.00000  Uiso   1.00
O314   O     0.76133   0.09146   0.55383   0.00000  Uiso   1.00
O315   O     0.61417   0.79475   0.60936   0.00000  Uiso   1.00
O316   O     0.48689   0.48007   0.85479   0.00000  Uiso   1.00
N317   N     0.68457   0.07880   0.43929   0.00000  Uiso   1.00
N318   N     0.57971   0.86735   0.76625   0.00000  Uiso   1.00
N319   N     0.48900   0.35570   0.94111   0.00000  Uiso   1.00
N320   N     0.75730   0.12180   0.35354   0.00000  Uiso   1.00
N321   N     0.65244   0.91034   0.68050   0.00000  Uiso   1.00
N322   N     0.56174   0.39869   0.85537   0.00000  Uiso   1.00
C323   C     0.92197   0.90314   0.05648   0.00000  Uiso   1.00
C324   C     0.87484   0.89760   0.14103   0.00000  Uiso   1.00
C325   C     0.87572   0.91690   0.25988   0.00000  Uiso   1.00
C326   C     0.82844   0.90776   0.32210   0.00000  Uiso   1.00
C327   C     0.76232   0.90337   0.46170   0.00000  Uiso   1.00
C328   C     0.90373   0.95589   0.95555   0.00000  Uiso   1.00
C329   C     0.92891   0.02419   0.91844   0.00000  Uiso   1.00
C330   C     0.90596   0.06410   0.82450   0.00000  Uiso   1.00
C331   C     0.88472   0.15018   0.67608   0.00000  Uiso   1.00
C332   C     0.92873   0.82129   0.00376   0.00000  Uiso   1.00
C333   C     0.97493   0.77643   0.00715   0.00000  Uiso   1.00
C334   C     0.97302   0.70304   0.95379   0.00000  Uiso   1.00
C335   C     0.99059   0.58014   0.88022   0.00000  Uiso   1.00
C336   C     0.83644   0.85258   0.95564   0.00000  Uiso   1.00
C337   C     0.82838   0.87014   0.08625   0.00000  Uiso   1.00
C338   C     0.78109   0.86096   0.14831   0.00000  Uiso   1.00
C339   C     0.78190   0.88024   0.26723   0.00000  Uiso   1.00
C340   C     0.85728   0.92843   0.90077   0.00000  Uiso   1.00
C341   C     0.83428   0.96825   0.80687   0.00000  Uiso   1.00
C342   C     0.85942   0.03659   0.76963   0.00000  Uiso   1.00
C343   C     0.88227   0.79383   0.94899   0.00000  Uiso   1.00
C344   C     0.88030   0.72050   0.89559   0.00000  Uiso   1.00
C345   C     0.92648   0.67553   0.89891   0.00000  Uiso   1.00
H346   H     0.95814   0.92452   0.09912   0.00000  Uiso   1.00
H347   H     0.91168   0.93815   0.30223   0.00000  Uiso   1.00
H348   H     0.96487   0.04542   0.96083   0.00000  Uiso   1.00
H349   H     0.01087   0.79770   0.04955   0.00000  Uiso   1.00
H350   H     0.83968   0.94118   0.50326   0.00000  Uiso   1.00
H351   H     0.95183   0.16734   0.78337   0.00000  Uiso   1.00
H352   H     0.04885   0.64499   0.97044   0.00000  Uiso   1.00
H353   H     0.80027   0.83120   0.91299   0.00000  Uiso   1.00
H354   H     0.74514   0.83971   0.10590   0.00000  Uiso   1.00
H355   H     0.79833   0.94698   0.76450   0.00000  Uiso   1.00
H356   H     0.84434   0.69926   0.85322   0.00000  Uiso   1.00
H357   H     0.70451   0.86129   0.34391   0.00000  Uiso   1.00
H358   H     0.81667   0.08745   0.62402   0.00000  Uiso   1.00
H359   H     0.91369   0.56509   0.81109   0.00000  Uiso   1.00
O360   O     0.73867   0.90854   0.55383   0.00000  Uiso   1.00
O361   O     0.88583   0.20525   0.60936   0.00000  Uiso   1.00
O362   O     0.01311   0.51993   0.85479   0.00000  Uiso   1.00
N363   N     0.81543   0.92120   0.43929   0.00000  Uiso   1.00
N364   N     0.92029   0.13265   0.76625   0.00000  Uiso   1.00
N365   N     0.01100   0.64430   0.94111   0.00000  Uiso   1.00
N366   N     0.74270   0.87820   0.35354   0.00000  Uiso   1.00
N367   N     0.84756   0.08966   0.68050   0.00000  Uiso   1.00
N368   N     0.93826   0.60131   0.85537   0.00000  Uiso   1.00
