data_job_01371
_audit_creation_date              2018-12-19
_audit_creation_method            'Materials Studio'
_symmetry_space_group_name_H-M    'P1'
_symmetry_Int_Tables_number       1
_symmetry_cell_setting            triclinic
loop_
_symmetry_equiv_pos_as_xyz
  x,y,z
_cell_length_a                    10.7536
_cell_length_b                    15.1430
_cell_length_c                    14.5427
_cell_angle_alpha                 90.0000
_cell_angle_beta                  90.0000
_cell_angle_gamma                 90.0000
loop_
_atom_site_label
_atom_site_type_symbol
_atom_site_fract_x
_atom_site_fract_y
_atom_site_fract_z
_atom_site_U_iso_or_equiv
_atom_site_adp_type
_atom_site_occupancy
C1     C     0.98126   0.68554   0.33342   0.00000  Uiso   1.00
C2     C     0.86359   0.72387   0.37622   0.00000  Uiso   1.00
C3     C     0.74264   0.70447   0.34978   0.00000  Uiso   1.00
C4     C     0.64771   0.74643   0.39751   0.00000  Uiso   1.00
C5     C     0.46116   0.79698   0.45305   0.00000  Uiso   1.00
C6     C     0.05866   0.76442   0.30223   0.00000  Uiso   1.00
C7     C     0.10174   0.77911   0.21358   0.00000  Uiso   1.00
C8     C     0.17104   0.85520   0.19903   0.00000  Uiso   1.00
C9     C     0.28743   0.96866   0.13971   0.00000  Uiso   1.00
C10    C     0.05338   0.64303   0.41210   0.00000  Uiso   1.00
C11    C     0.09204   0.55567   0.41583   0.00000  Uiso   1.00
C12    C     0.15691   0.52957   0.49378   0.00000  Uiso   1.00
C13    C     0.26509   0.45456   0.60506   0.00000  Uiso   1.00
C14    C     0.02775   0.79454   0.46520   0.00000  Uiso   1.00
C15    C     0.88885   0.78308   0.44780   0.00000  Uiso   1.00
C16    C     0.79408   0.82507   0.49559   0.00000  Uiso   1.00
C17    C     0.67300   0.80574   0.46922   0.00000  Uiso   1.00
C18    C     0.08392   0.82362   0.37381   0.00000  Uiso   1.00
C19    C     0.15318   0.89971   0.35939   0.00000  Uiso   1.00
C20    C     0.19634   0.91451   0.27074   0.00000  Uiso   1.00
C21    C     0.07863   0.70224   0.48369   0.00000  Uiso   1.00
C22    C     0.14347   0.67627   0.56164   0.00000  Uiso   1.00
C23    C     0.18221   0.58888   0.56549   0.00000  Uiso   1.00
H24    H     0.96160   0.63945   0.27769   0.00000  Uiso   1.00
H25    H     0.72313   0.65866   0.29437   0.00000  Uiso   1.00
H26    H     0.08219   0.73328   0.15820   0.00000  Uiso   1.00
H27    H     0.07248   0.50987   0.36042   0.00000  Uiso   1.00
H28    H     0.46988   0.70609   0.34442   0.00000  Uiso   1.00
H29    H     0.22701   0.86341   0.05730   0.00000  Uiso   1.00
H30    H     0.20654   0.39232   0.48372   0.00000  Uiso   1.00
H31    H     0.04742   0.84064   0.52093   0.00000  Uiso   1.00
H32    H     0.81365   0.87089   0.55098   0.00000  Uiso   1.00
H33    H     0.17271   0.94551   0.41480   0.00000  Uiso   1.00
H34    H     0.16299   0.72210   0.61702   0.00000  Uiso   1.00
H35    H     0.54335   0.87835   0.55269   0.00000  Uiso   1.00
H36    H     0.30049   0.03567   0.26556   0.00000  Uiso   1.00
H37    H     0.28000   0.56457   0.69199   0.00000  Uiso   1.00
O38    O     0.35129   0.80851   0.46391   0.00000  Uiso   1.00
O39    O     0.34463   0.01490   0.08722   0.00000  Uiso   1.00
O40    O     0.31776   0.39683   0.64667   0.00000  Uiso   1.00
N41    N     0.51926   0.74247   0.38933   0.00000  Uiso   1.00
N42    N     0.22711   0.88956   0.12088   0.00000  Uiso   1.00
N43    N     0.20799   0.44913   0.51954   0.00000  Uiso   1.00
N44    N     0.55879   0.83515   0.50139   0.00000  Uiso   1.00
N45    N     0.26664   0.98225   0.23295   0.00000  Uiso   1.00
N46    N     0.24753   0.54182   0.63161   0.00000  Uiso   1.00
C47    C     0.01874   0.31446   0.83342   0.00000  Uiso   1.00
C48    C     0.13641   0.27613   0.87622   0.00000  Uiso   1.00
C49    C     0.25736   0.29553   0.84978   0.00000  Uiso   1.00
C50    C     0.35229   0.25357   0.89751   0.00000  Uiso   1.00
C51    C     0.53884   0.20302   0.95305   0.00000  Uiso   1.00
C52    C     0.94134   0.23558   0.80223   0.00000  Uiso   1.00
C53    C     0.89826   0.22089   0.71358   0.00000  Uiso   1.00
C54    C     0.82896   0.14480   0.69903   0.00000  Uiso   1.00
C55    C     0.71257   0.03134   0.63971   0.00000  Uiso   1.00
C56    C     0.94662   0.35697   0.91210   0.00000  Uiso   1.00
C57    C     0.90796   0.44433   0.91583   0.00000  Uiso   1.00
C58    C     0.84309   0.47043   0.99378   0.00000  Uiso   1.00
C59    C     0.73491   0.54544   0.10506   0.00000  Uiso   1.00
C60    C     0.97225   0.20546   0.96520   0.00000  Uiso   1.00
C61    C     0.11115   0.21692   0.94780   0.00000  Uiso   1.00
C62    C     0.20592   0.17493   0.99559   0.00000  Uiso   1.00
C63    C     0.32700   0.19426   0.96922   0.00000  Uiso   1.00
C64    C     0.91608   0.17638   0.87381   0.00000  Uiso   1.00
C65    C     0.84682   0.10029   0.85939   0.00000  Uiso   1.00
C66    C     0.80366   0.08549   0.77074   0.00000  Uiso   1.00
C67    C     0.92137   0.29776   0.98369   0.00000  Uiso   1.00
C68    C     0.85653   0.32373   0.06164   0.00000  Uiso   1.00
C69    C     0.81779   0.41112   0.06549   0.00000  Uiso   1.00
H70    H     0.03840   0.36055   0.77769   0.00000  Uiso   1.00
H71    H     0.27687   0.34134   0.79437   0.00000  Uiso   1.00
H72    H     0.91781   0.26672   0.65820   0.00000  Uiso   1.00
H73    H     0.92752   0.49013   0.86042   0.00000  Uiso   1.00
H74    H     0.53012   0.29391   0.84442   0.00000  Uiso   1.00
H75    H     0.77299   0.13659   0.55730   0.00000  Uiso   1.00
H76    H     0.79346   0.60768   0.98372   0.00000  Uiso   1.00
H77    H     0.95258   0.15936   0.02093   0.00000  Uiso   1.00
H78    H     0.18635   0.12911   0.05098   0.00000  Uiso   1.00
H79    H     0.82729   0.05449   0.91480   0.00000  Uiso   1.00
H80    H     0.83701   0.27790   0.11702   0.00000  Uiso   1.00
H81    H     0.45665   0.12165   0.05269   0.00000  Uiso   1.00
H82    H     0.69951   0.96433   0.76556   0.00000  Uiso   1.00
H83    H     0.72000   0.43543   0.19199   0.00000  Uiso   1.00
O84    O     0.64871   0.19149   0.96391   0.00000  Uiso   1.00
O85    O     0.65537   0.98510   0.58722   0.00000  Uiso   1.00
O86    O     0.68224   0.60317   0.14667   0.00000  Uiso   1.00
N87    N     0.48074   0.25753   0.88933   0.00000  Uiso   1.00
N88    N     0.77289   0.11044   0.62088   0.00000  Uiso   1.00
N89    N     0.79201   0.55087   0.01954   0.00000  Uiso   1.00
N90    N     0.44121   0.16485   0.00139   0.00000  Uiso   1.00
N91    N     0.73336   0.01775   0.73295   0.00000  Uiso   1.00
N92    N     0.75247   0.45818   0.13161   0.00000  Uiso   1.00
C93    C     0.48126   0.31446   0.33342   0.00000  Uiso   1.00
C94    C     0.36359   0.27613   0.37622   0.00000  Uiso   1.00
C95    C     0.24264   0.29553   0.34978   0.00000  Uiso   1.00
C96    C     0.14771   0.25357   0.39751   0.00000  Uiso   1.00
C97    C     0.96116   0.20302   0.45305   0.00000  Uiso   1.00
C98    C     0.55866   0.23558   0.30223   0.00000  Uiso   1.00
C99    C     0.60174   0.22089   0.21358   0.00000  Uiso   1.00
C100   C     0.67104   0.14480   0.19903   0.00000  Uiso   1.00
C101   C     0.78743   0.03134   0.13971   0.00000  Uiso   1.00
C102   C     0.55338   0.35697   0.41210   0.00000  Uiso   1.00
C103   C     0.59204   0.44433   0.41583   0.00000  Uiso   1.00
C104   C     0.65691   0.47043   0.49378   0.00000  Uiso   1.00
C105   C     0.76509   0.54544   0.60506   0.00000  Uiso   1.00
C106   C     0.52775   0.20546   0.46520   0.00000  Uiso   1.00
C107   C     0.38885   0.21692   0.44780   0.00000  Uiso   1.00
C108   C     0.29408   0.17493   0.49559   0.00000  Uiso   1.00
C109   C     0.17300   0.19426   0.46922   0.00000  Uiso   1.00
C110   C     0.58392   0.17638   0.37381   0.00000  Uiso   1.00
C111   C     0.65318   0.10029   0.35939   0.00000  Uiso   1.00
C112   C     0.69634   0.08549   0.27074   0.00000  Uiso   1.00
C113   C     0.57863   0.29776   0.48369   0.00000  Uiso   1.00
C114   C     0.64347   0.32373   0.56164   0.00000  Uiso   1.00
C115   C     0.68221   0.41112   0.56549   0.00000  Uiso   1.00
H116   H     0.46160   0.36055   0.27769   0.00000  Uiso   1.00
H117   H     0.22313   0.34134   0.29437   0.00000  Uiso   1.00
H118   H     0.58219   0.26672   0.15820   0.00000  Uiso   1.00
H119   H     0.57248   0.49013   0.36042   0.00000  Uiso   1.00
H120   H     0.96988   0.29391   0.34442   0.00000  Uiso   1.00
H121   H     0.72701   0.13659   0.05730   0.00000  Uiso   1.00
H122   H     0.70654   0.60768   0.48372   0.00000  Uiso   1.00
H123   H     0.54742   0.15936   0.52093   0.00000  Uiso   1.00
H124   H     0.31365   0.12911   0.55098   0.00000  Uiso   1.00
H125   H     0.67271   0.05449   0.41480   0.00000  Uiso   1.00
H126   H     0.66299   0.27790   0.61702   0.00000  Uiso   1.00
H127   H     0.04335   0.12165   0.55269   0.00000  Uiso   1.00
H128   H     0.80049   0.96433   0.26556   0.00000  Uiso   1.00
H129   H     0.78000   0.43543   0.69199   0.00000  Uiso   1.00
O130   O     0.85129   0.19149   0.46391   0.00000  Uiso   1.00
O131   O     0.84463   0.98510   0.08722   0.00000  Uiso   1.00
O132   O     0.81776   0.60317   0.64667   0.00000  Uiso   1.00
N133   N     0.01926   0.25753   0.38933   0.00000  Uiso   1.00
N134   N     0.72711   0.11044   0.12088   0.00000  Uiso   1.00
N135   N     0.70799   0.55087   0.51954   0.00000  Uiso   1.00
N136   N     0.05879   0.16485   0.50139   0.00000  Uiso   1.00
N137   N     0.76664   0.01775   0.23295   0.00000  Uiso   1.00
N138   N     0.74753   0.45818   0.63161   0.00000  Uiso   1.00
C139   C     0.51874   0.68554   0.83342   0.00000  Uiso   1.00
C140   C     0.63641   0.72387   0.87622   0.00000  Uiso   1.00
C141   C     0.75736   0.70447   0.84978   0.00000  Uiso   1.00
C142   C     0.85229   0.74643   0.89751   0.00000  Uiso   1.00
C143   C     0.03884   0.79698   0.95305   0.00000  Uiso   1.00
C144   C     0.44134   0.76442   0.80223   0.00000  Uiso   1.00
C145   C     0.39826   0.77911   0.71358   0.00000  Uiso   1.00
C146   C     0.32896   0.85520   0.69903   0.00000  Uiso   1.00
C147   C     0.21257   0.96866   0.63971   0.00000  Uiso   1.00
C148   C     0.44662   0.64303   0.91210   0.00000  Uiso   1.00
C149   C     0.40796   0.55567   0.91583   0.00000  Uiso   1.00
C150   C     0.34309   0.52957   0.99378   0.00000  Uiso   1.00
C151   C     0.23491   0.45456   0.10506   0.00000  Uiso   1.00
C152   C     0.47225   0.79454   0.96520   0.00000  Uiso   1.00
C153   C     0.61115   0.78308   0.94780   0.00000  Uiso   1.00
C154   C     0.70592   0.82507   0.99559   0.00000  Uiso   1.00
C155   C     0.82700   0.80574   0.96922   0.00000  Uiso   1.00
C156   C     0.41608   0.82362   0.87381   0.00000  Uiso   1.00
C157   C     0.34682   0.89971   0.85939   0.00000  Uiso   1.00
C158   C     0.30366   0.91451   0.77074   0.00000  Uiso   1.00
C159   C     0.42137   0.70224   0.98369   0.00000  Uiso   1.00
C160   C     0.35653   0.67627   0.06164   0.00000  Uiso   1.00
C161   C     0.31779   0.58888   0.06549   0.00000  Uiso   1.00
H162   H     0.53840   0.63945   0.77769   0.00000  Uiso   1.00
H163   H     0.77687   0.65866   0.79437   0.00000  Uiso   1.00
H164   H     0.41781   0.73328   0.65820   0.00000  Uiso   1.00
H165   H     0.42752   0.50987   0.86042   0.00000  Uiso   1.00
H166   H     0.03012   0.70609   0.84442   0.00000  Uiso   1.00
H167   H     0.27299   0.86341   0.55730   0.00000  Uiso   1.00
H168   H     0.29346   0.39232   0.98372   0.00000  Uiso   1.00
H169   H     0.45258   0.84064   0.02093   0.00000  Uiso   1.00
H170   H     0.68635   0.87089   0.05098   0.00000  Uiso   1.00
H171   H     0.32729   0.94551   0.91480   0.00000  Uiso   1.00
H172   H     0.33701   0.72210   0.11702   0.00000  Uiso   1.00
H173   H     0.95665   0.87835   0.05269   0.00000  Uiso   1.00
H174   H     0.19951   0.03567   0.76556   0.00000  Uiso   1.00
H175   H     0.22000   0.56457   0.19199   0.00000  Uiso   1.00
O176   O     0.14871   0.80851   0.96391   0.00000  Uiso   1.00
O177   O     0.15537   0.01490   0.58722   0.00000  Uiso   1.00
O178   O     0.18224   0.39683   0.14667   0.00000  Uiso   1.00
N179   N     0.98074   0.74247   0.88933   0.00000  Uiso   1.00
N180   N     0.27289   0.88956   0.62088   0.00000  Uiso   1.00
N181   N     0.29201   0.44913   0.01954   0.00000  Uiso   1.00
N182   N     0.94121   0.83515   0.00139   0.00000  Uiso   1.00
N183   N     0.23336   0.98225   0.73295   0.00000  Uiso   1.00
N184   N     0.25247   0.54182   0.13161   0.00000  Uiso   1.00
