data_job_02975
_audit_creation_date              2018-12-19
_audit_creation_method            'Materials Studio'
_symmetry_space_group_name_H-M    'P1'
_symmetry_Int_Tables_number       1
_symmetry_cell_setting            triclinic
loop_
_symmetry_equiv_pos_as_xyz
  x,y,z
_cell_length_a                    42.5899
_cell_length_b                    12.4041
_cell_length_c                    14.3620
_cell_angle_alpha                 90.0000
_cell_angle_beta                  102.1795
_cell_angle_gamma                 90.0000
loop_
_atom_site_label
_atom_site_type_symbol
_atom_site_fract_x
_atom_site_fract_y
_atom_site_fract_z
_atom_site_U_iso_or_equiv
_atom_site_adp_type
_atom_site_occupancy
C1     C     0.15637   0.04039   0.93334   0.00000  Uiso   1.00
C2     C     0.17985   0.11810   0.90178   0.00000  Uiso   1.00
C3     C     0.19245   0.21064   0.94984   0.00000  Uiso   1.00
C4     C     0.21355   0.27097   0.90928   0.00000  Uiso   1.00
C5     C     0.24874   0.39640   0.87326   0.00000  Uiso   1.00
C6     C     0.12733   0.03404   0.85069   0.00000  Uiso   1.00
C7     C     0.09578   0.05590   0.85580   0.00000  Uiso   1.00
C8     C     0.07267   0.04546   0.77223   0.00000  Uiso   1.00
C9     C     0.02633   0.04032   0.65691   0.00000  Uiso   1.00
C10    C     0.17225   0.92969   0.93960   0.00000  Uiso   1.00
C11    C     0.17846   0.86378   0.01947   0.00000  Uiso   1.00
C12    C     0.19315   0.76546   0.01075   0.00000  Uiso   1.00
C13    C     0.21656   0.59830   0.03349   0.00000  Uiso   1.00
C14    C     0.17142   0.98297   0.77583   0.00000  Uiso   1.00
C15    C     0.18802   0.08691   0.81622   0.00000  Uiso   1.00
C16    C     0.20910   0.14711   0.77558   0.00000  Uiso   1.00
C17    C     0.22174   0.23973   0.82358   0.00000  Uiso   1.00
C18    C     0.13551   0.00286   0.76514   0.00000  Uiso   1.00
C19    C     0.11244   0.99238   0.68154   0.00000  Uiso   1.00
C20    C     0.08086   0.01422   0.68652   0.00000  Uiso   1.00
C21    C     0.18042   0.89850   0.85405   0.00000  Uiso   1.00
C22    C     0.19511   0.80026   0.84521   0.00000  Uiso   1.00
C23    C     0.20135   0.73422   0.92504   0.00000  Uiso   1.00
H24    H     0.15000   0.06467   0.99994   0.00000  Uiso   1.00
H25    H     0.18611   0.23475   0.01604   0.00000  Uiso   1.00
H26    H     0.08946   0.08002   0.92202   0.00000  Uiso   1.00
H27    H     0.17212   0.88794   0.08566   0.00000  Uiso   1.00
H28    H     0.22975   0.40958   0.99615   0.00000  Uiso   1.00
H29    H     0.02594   0.08330   0.79790   0.00000  Uiso   1.00
H30    H     0.20026   0.67825   0.14298   0.00000  Uiso   1.00
H31    H     0.17779   0.95869   0.70922   0.00000  Uiso   1.00
H32    H     0.21543   0.12296   0.70937   0.00000  Uiso   1.00
H33    H     0.11877   0.96824   0.61535   0.00000  Uiso   1.00
H34    H     0.20144   0.77616   0.77899   0.00000  Uiso   1.00
H35    H     0.25354   0.31886   0.74724   0.00000  Uiso   1.00
H36    H     0.04973   0.99257   0.54900   0.00000  Uiso   1.00
H37    H     0.22405   0.58752   0.89407   0.00000  Uiso   1.00
O38    O     0.26589   0.47421   0.87703   0.00000  Uiso   1.00
O39    O     0.99851   0.04612   0.61694   0.00000  Uiso   1.00
O40    O     0.22721   0.51471   0.06967   0.00000  Uiso   1.00
N41    N     0.23019   0.36567   0.93756   0.00000  Uiso   1.00
N42    N     0.03964   0.06064   0.75221   0.00000  Uiso   1.00
N43    N     0.20261   0.68194   0.07482   0.00000  Uiso   1.00
N44    N     0.24299   0.31685   0.80362   0.00000  Uiso   1.00
N45    N     0.05245   0.01182   0.61827   0.00000  Uiso   1.00
N46    N     0.21541   0.63312   0.94088   0.00000  Uiso   1.00
C47    C     0.65637   0.54039   0.93334   0.00000  Uiso   1.00
C48    C     0.67985   0.61810   0.90178   0.00000  Uiso   1.00
C49    C     0.69245   0.71064   0.94984   0.00000  Uiso   1.00
C50    C     0.71355   0.77097   0.90928   0.00000  Uiso   1.00
C51    C     0.74874   0.89640   0.87326   0.00000  Uiso   1.00
C52    C     0.62733   0.53404   0.85069   0.00000  Uiso   1.00
C53    C     0.59578   0.55590   0.85580   0.00000  Uiso   1.00
C54    C     0.57267   0.54546   0.77223   0.00000  Uiso   1.00
C55    C     0.52633   0.54032   0.65691   0.00000  Uiso   1.00
C56    C     0.67225   0.42969   0.93960   0.00000  Uiso   1.00
C57    C     0.67846   0.36378   0.01947   0.00000  Uiso   1.00
C58    C     0.69315   0.26546   0.01075   0.00000  Uiso   1.00
C59    C     0.71656   0.09830   0.03349   0.00000  Uiso   1.00
C60    C     0.67142   0.48297   0.77583   0.00000  Uiso   1.00
C61    C     0.68802   0.58691   0.81622   0.00000  Uiso   1.00
C62    C     0.70910   0.64711   0.77558   0.00000  Uiso   1.00
C63    C     0.72174   0.73973   0.82358   0.00000  Uiso   1.00
C64    C     0.63551   0.50286   0.76514   0.00000  Uiso   1.00
C65    C     0.61244   0.49238   0.68154   0.00000  Uiso   1.00
C66    C     0.58086   0.51422   0.68652   0.00000  Uiso   1.00
C67    C     0.68042   0.39850   0.85405   0.00000  Uiso   1.00
C68    C     0.69511   0.30026   0.84521   0.00000  Uiso   1.00
C69    C     0.70135   0.23422   0.92504   0.00000  Uiso   1.00
H70    H     0.65000   0.56467   0.99994   0.00000  Uiso   1.00
H71    H     0.68611   0.73475   0.01604   0.00000  Uiso   1.00
H72    H     0.58946   0.58002   0.92202   0.00000  Uiso   1.00
H73    H     0.67212   0.38794   0.08566   0.00000  Uiso   1.00
H74    H     0.72975   0.90958   0.99615   0.00000  Uiso   1.00
H75    H     0.52594   0.58330   0.79790   0.00000  Uiso   1.00
H76    H     0.70026   0.17825   0.14298   0.00000  Uiso   1.00
H77    H     0.67779   0.45869   0.70922   0.00000  Uiso   1.00
H78    H     0.71543   0.62296   0.70937   0.00000  Uiso   1.00
H79    H     0.61877   0.46824   0.61535   0.00000  Uiso   1.00
H80    H     0.70144   0.27616   0.77899   0.00000  Uiso   1.00
H81    H     0.75354   0.81886   0.74724   0.00000  Uiso   1.00
H82    H     0.54973   0.49257   0.54900   0.00000  Uiso   1.00
H83    H     0.72405   0.08752   0.89407   0.00000  Uiso   1.00
O84    O     0.76589   0.97421   0.87703   0.00000  Uiso   1.00
O85    O     0.49851   0.54612   0.61694   0.00000  Uiso   1.00
O86    O     0.72721   0.01471   0.06967   0.00000  Uiso   1.00
N87    N     0.73019   0.86567   0.93756   0.00000  Uiso   1.00
N88    N     0.53964   0.56064   0.75221   0.00000  Uiso   1.00
N89    N     0.70261   0.18194   0.07482   0.00000  Uiso   1.00
N90    N     0.74299   0.81685   0.80362   0.00000  Uiso   1.00
N91    N     0.55245   0.51182   0.61827   0.00000  Uiso   1.00
N92    N     0.71541   0.13312   0.94088   0.00000  Uiso   1.00
C93    C     0.84363   0.04039   0.56666   0.00000  Uiso   1.00
C94    C     0.82015   0.11810   0.59822   0.00000  Uiso   1.00
C95    C     0.80755   0.21064   0.55016   0.00000  Uiso   1.00
C96    C     0.78645   0.27097   0.59072   0.00000  Uiso   1.00
C97    C     0.75126   0.39640   0.62674   0.00000  Uiso   1.00
C98    C     0.87267   0.03404   0.64931   0.00000  Uiso   1.00
C99    C     0.90422   0.05590   0.64420   0.00000  Uiso   1.00
C100   C     0.92733   0.04546   0.72777   0.00000  Uiso   1.00
C101   C     0.97367   0.04032   0.84309   0.00000  Uiso   1.00
C102   C     0.82775   0.92969   0.56040   0.00000  Uiso   1.00
C103   C     0.82154   0.86378   0.48053   0.00000  Uiso   1.00
C104   C     0.80685   0.76546   0.48925   0.00000  Uiso   1.00
C105   C     0.78344   0.59830   0.46651   0.00000  Uiso   1.00
C106   C     0.82858   0.98297   0.72417   0.00000  Uiso   1.00
C107   C     0.81198   0.08691   0.68378   0.00000  Uiso   1.00
C108   C     0.79090   0.14711   0.72442   0.00000  Uiso   1.00
C109   C     0.77826   0.23973   0.67642   0.00000  Uiso   1.00
C110   C     0.86449   0.00286   0.73486   0.00000  Uiso   1.00
C111   C     0.88756   0.99238   0.81846   0.00000  Uiso   1.00
C112   C     0.91914   0.01422   0.81348   0.00000  Uiso   1.00
C113   C     0.81958   0.89850   0.64595   0.00000  Uiso   1.00
C114   C     0.80489   0.80026   0.65479   0.00000  Uiso   1.00
C115   C     0.79865   0.73422   0.57496   0.00000  Uiso   1.00
H116   H     0.85000   0.06467   0.50006   0.00000  Uiso   1.00
H117   H     0.81389   0.23475   0.48396   0.00000  Uiso   1.00
H118   H     0.91054   0.08002   0.57798   0.00000  Uiso   1.00
H119   H     0.82788   0.88794   0.41434   0.00000  Uiso   1.00
H120   H     0.77025   0.40958   0.50385   0.00000  Uiso   1.00
H121   H     0.97406   0.08330   0.70210   0.00000  Uiso   1.00
H122   H     0.79974   0.67825   0.35702   0.00000  Uiso   1.00
H123   H     0.82221   0.95869   0.79078   0.00000  Uiso   1.00
H124   H     0.78457   0.12296   0.79063   0.00000  Uiso   1.00
H125   H     0.88123   0.96824   0.88465   0.00000  Uiso   1.00
H126   H     0.79856   0.77616   0.72101   0.00000  Uiso   1.00
H127   H     0.74646   0.31886   0.75276   0.00000  Uiso   1.00
H128   H     0.95027   0.99257   0.95100   0.00000  Uiso   1.00
H129   H     0.77595   0.58752   0.60593   0.00000  Uiso   1.00
O130   O     0.73411   0.47421   0.62297   0.00000  Uiso   1.00
O131   O     0.00149   0.04612   0.88306   0.00000  Uiso   1.00
O132   O     0.77279   0.51471   0.43033   0.00000  Uiso   1.00
N133   N     0.76981   0.36567   0.56244   0.00000  Uiso   1.00
N134   N     0.96036   0.06064   0.74779   0.00000  Uiso   1.00
N135   N     0.79739   0.68194   0.42518   0.00000  Uiso   1.00
N136   N     0.75701   0.31685   0.69638   0.00000  Uiso   1.00
N137   N     0.94755   0.01182   0.88173   0.00000  Uiso   1.00
N138   N     0.78459   0.63312   0.55912   0.00000  Uiso   1.00
C139   C     0.34363   0.54039   0.56666   0.00000  Uiso   1.00
C140   C     0.32015   0.61810   0.59822   0.00000  Uiso   1.00
C141   C     0.30755   0.71064   0.55016   0.00000  Uiso   1.00
C142   C     0.28645   0.77097   0.59072   0.00000  Uiso   1.00
C143   C     0.25126   0.89640   0.62674   0.00000  Uiso   1.00
C144   C     0.37267   0.53404   0.64931   0.00000  Uiso   1.00
C145   C     0.40422   0.55590   0.64420   0.00000  Uiso   1.00
C146   C     0.42733   0.54546   0.72777   0.00000  Uiso   1.00
C147   C     0.47367   0.54032   0.84309   0.00000  Uiso   1.00
C148   C     0.32775   0.42969   0.56040   0.00000  Uiso   1.00
C149   C     0.32154   0.36378   0.48053   0.00000  Uiso   1.00
C150   C     0.30685   0.26546   0.48925   0.00000  Uiso   1.00
C151   C     0.28344   0.09830   0.46651   0.00000  Uiso   1.00
C152   C     0.32858   0.48297   0.72417   0.00000  Uiso   1.00
C153   C     0.31198   0.58691   0.68378   0.00000  Uiso   1.00
C154   C     0.29090   0.64711   0.72442   0.00000  Uiso   1.00
C155   C     0.27826   0.73973   0.67642   0.00000  Uiso   1.00
C156   C     0.36449   0.50286   0.73486   0.00000  Uiso   1.00
C157   C     0.38756   0.49238   0.81846   0.00000  Uiso   1.00
C158   C     0.41914   0.51422   0.81348   0.00000  Uiso   1.00
C159   C     0.31958   0.39850   0.64595   0.00000  Uiso   1.00
C160   C     0.30489   0.30026   0.65479   0.00000  Uiso   1.00
C161   C     0.29865   0.23422   0.57496   0.00000  Uiso   1.00
H162   H     0.35000   0.56467   0.50006   0.00000  Uiso   1.00
H163   H     0.31389   0.73475   0.48396   0.00000  Uiso   1.00
H164   H     0.41054   0.58002   0.57798   0.00000  Uiso   1.00
H165   H     0.32788   0.38794   0.41434   0.00000  Uiso   1.00
H166   H     0.27025   0.90958   0.50385   0.00000  Uiso   1.00
H167   H     0.47406   0.58330   0.70210   0.00000  Uiso   1.00
H168   H     0.29974   0.17825   0.35702   0.00000  Uiso   1.00
H169   H     0.32221   0.45869   0.79078   0.00000  Uiso   1.00
H170   H     0.28457   0.62296   0.79063   0.00000  Uiso   1.00
H171   H     0.38123   0.46824   0.88465   0.00000  Uiso   1.00
H172   H     0.29856   0.27616   0.72101   0.00000  Uiso   1.00
H173   H     0.24646   0.81886   0.75276   0.00000  Uiso   1.00
H174   H     0.45027   0.49257   0.95100   0.00000  Uiso   1.00
H175   H     0.27595   0.08752   0.60593   0.00000  Uiso   1.00
O176   O     0.23411   0.97421   0.62297   0.00000  Uiso   1.00
O177   O     0.50149   0.54612   0.88306   0.00000  Uiso   1.00
O178   O     0.27279   0.01471   0.43033   0.00000  Uiso   1.00
N179   N     0.26981   0.86567   0.56244   0.00000  Uiso   1.00
N180   N     0.46036   0.56064   0.74779   0.00000  Uiso   1.00
N181   N     0.29739   0.18194   0.42518   0.00000  Uiso   1.00
N182   N     0.25701   0.81685   0.69638   0.00000  Uiso   1.00
N183   N     0.44755   0.51182   0.88173   0.00000  Uiso   1.00
N184   N     0.28459   0.13312   0.55912   0.00000  Uiso   1.00
C185   C     0.84363   0.95961   0.06666   0.00000  Uiso   1.00
C186   C     0.82015   0.88190   0.09822   0.00000  Uiso   1.00
C187   C     0.80755   0.78936   0.05016   0.00000  Uiso   1.00
C188   C     0.78645   0.72903   0.09072   0.00000  Uiso   1.00
C189   C     0.75126   0.60360   0.12674   0.00000  Uiso   1.00
C190   C     0.87267   0.96596   0.14931   0.00000  Uiso   1.00
C191   C     0.90422   0.94410   0.14420   0.00000  Uiso   1.00
C192   C     0.92733   0.95454   0.22777   0.00000  Uiso   1.00
C193   C     0.97367   0.95968   0.34309   0.00000  Uiso   1.00
C194   C     0.82775   0.07031   0.06040   0.00000  Uiso   1.00
C195   C     0.82154   0.13622   0.98053   0.00000  Uiso   1.00
C196   C     0.80685   0.23454   0.98925   0.00000  Uiso   1.00
C197   C     0.78344   0.40170   0.96651   0.00000  Uiso   1.00
C198   C     0.82858   0.01703   0.22417   0.00000  Uiso   1.00
C199   C     0.81198   0.91309   0.18378   0.00000  Uiso   1.00
C200   C     0.79090   0.85289   0.22442   0.00000  Uiso   1.00
C201   C     0.77826   0.76027   0.17642   0.00000  Uiso   1.00
C202   C     0.86449   0.99714   0.23486   0.00000  Uiso   1.00
C203   C     0.88756   0.00762   0.31846   0.00000  Uiso   1.00
C204   C     0.91914   0.98578   0.31348   0.00000  Uiso   1.00
C205   C     0.81958   0.10150   0.14595   0.00000  Uiso   1.00
C206   C     0.80489   0.19974   0.15479   0.00000  Uiso   1.00
C207   C     0.79865   0.26578   0.07496   0.00000  Uiso   1.00
H208   H     0.85000   0.93533   0.00006   0.00000  Uiso   1.00
H209   H     0.81389   0.76525   0.98396   0.00000  Uiso   1.00
H210   H     0.91054   0.91998   0.07798   0.00000  Uiso   1.00
H211   H     0.82788   0.11206   0.91434   0.00000  Uiso   1.00
H212   H     0.77025   0.59042   0.00385   0.00000  Uiso   1.00
H213   H     0.97406   0.91670   0.20210   0.00000  Uiso   1.00
H214   H     0.79974   0.32175   0.85702   0.00000  Uiso   1.00
H215   H     0.82221   0.04131   0.29078   0.00000  Uiso   1.00
H216   H     0.78457   0.87704   0.29063   0.00000  Uiso   1.00
H217   H     0.88123   0.03176   0.38465   0.00000  Uiso   1.00
H218   H     0.79856   0.22384   0.22101   0.00000  Uiso   1.00
H219   H     0.74646   0.68114   0.25276   0.00000  Uiso   1.00
H220   H     0.95027   0.00743   0.45100   0.00000  Uiso   1.00
H221   H     0.77595   0.41248   0.10593   0.00000  Uiso   1.00
O222   O     0.73411   0.52579   0.12297   0.00000  Uiso   1.00
O223   O     0.00149   0.95388   0.38306   0.00000  Uiso   1.00
O224   O     0.77279   0.48529   0.93033   0.00000  Uiso   1.00
N225   N     0.76981   0.63433   0.06244   0.00000  Uiso   1.00
N226   N     0.96036   0.93936   0.24779   0.00000  Uiso   1.00
N227   N     0.79739   0.31806   0.92518   0.00000  Uiso   1.00
N228   N     0.75701   0.68315   0.19638   0.00000  Uiso   1.00
N229   N     0.94755   0.98818   0.38173   0.00000  Uiso   1.00
N230   N     0.78459   0.36688   0.05912   0.00000  Uiso   1.00
C231   C     0.34363   0.45961   0.06666   0.00000  Uiso   1.00
C232   C     0.32015   0.38190   0.09822   0.00000  Uiso   1.00
C233   C     0.30755   0.28936   0.05016   0.00000  Uiso   1.00
C234   C     0.28645   0.22903   0.09072   0.00000  Uiso   1.00
C235   C     0.25126   0.10360   0.12674   0.00000  Uiso   1.00
C236   C     0.37267   0.46596   0.14931   0.00000  Uiso   1.00
C237   C     0.40422   0.44410   0.14420   0.00000  Uiso   1.00
C238   C     0.42733   0.45454   0.22777   0.00000  Uiso   1.00
C239   C     0.47367   0.45968   0.34309   0.00000  Uiso   1.00
C240   C     0.32775   0.57031   0.06040   0.00000  Uiso   1.00
C241   C     0.32154   0.63622   0.98053   0.00000  Uiso   1.00
C242   C     0.30685   0.73454   0.98925   0.00000  Uiso   1.00
C243   C     0.28344   0.90170   0.96651   0.00000  Uiso   1.00
C244   C     0.32858   0.51703   0.22417   0.00000  Uiso   1.00
C245   C     0.31198   0.41309   0.18378   0.00000  Uiso   1.00
C246   C     0.29090   0.35289   0.22442   0.00000  Uiso   1.00
C247   C     0.27826   0.26027   0.17642   0.00000  Uiso   1.00
C248   C     0.36449   0.49714   0.23486   0.00000  Uiso   1.00
C249   C     0.38756   0.50762   0.31846   0.00000  Uiso   1.00
C250   C     0.41914   0.48578   0.31348   0.00000  Uiso   1.00
C251   C     0.31958   0.60150   0.14595   0.00000  Uiso   1.00
C252   C     0.30489   0.69974   0.15479   0.00000  Uiso   1.00
C253   C     0.29865   0.76578   0.07496   0.00000  Uiso   1.00
H254   H     0.35000   0.43533   0.00006   0.00000  Uiso   1.00
H255   H     0.31389   0.26525   0.98396   0.00000  Uiso   1.00
H256   H     0.41054   0.41998   0.07798   0.00000  Uiso   1.00
H257   H     0.32788   0.61206   0.91434   0.00000  Uiso   1.00
H258   H     0.27025   0.09042   0.00385   0.00000  Uiso   1.00
H259   H     0.47406   0.41670   0.20210   0.00000  Uiso   1.00
H260   H     0.29974   0.82175   0.85702   0.00000  Uiso   1.00
H261   H     0.32221   0.54131   0.29078   0.00000  Uiso   1.00
H262   H     0.28457   0.37704   0.29063   0.00000  Uiso   1.00
H263   H     0.38123   0.53176   0.38465   0.00000  Uiso   1.00
H264   H     0.29856   0.72384   0.22101   0.00000  Uiso   1.00
H265   H     0.24646   0.18114   0.25276   0.00000  Uiso   1.00
H266   H     0.45027   0.50743   0.45100   0.00000  Uiso   1.00
H267   H     0.27595   0.91248   0.10593   0.00000  Uiso   1.00
O268   O     0.23411   0.02579   0.12297   0.00000  Uiso   1.00
O269   O     0.50149   0.45388   0.38306   0.00000  Uiso   1.00
O270   O     0.27279   0.98529   0.93033   0.00000  Uiso   1.00
N271   N     0.26981   0.13433   0.06244   0.00000  Uiso   1.00
N272   N     0.46036   0.43936   0.24779   0.00000  Uiso   1.00
N273   N     0.29739   0.81806   0.92518   0.00000  Uiso   1.00
N274   N     0.25701   0.18315   0.19638   0.00000  Uiso   1.00
N275   N     0.44755   0.48818   0.38173   0.00000  Uiso   1.00
N276   N     0.28459   0.86688   0.05912   0.00000  Uiso   1.00
C277   C     0.15637   0.95961   0.43334   0.00000  Uiso   1.00
C278   C     0.17985   0.88190   0.40178   0.00000  Uiso   1.00
C279   C     0.19245   0.78936   0.44984   0.00000  Uiso   1.00
C280   C     0.21355   0.72903   0.40928   0.00000  Uiso   1.00
C281   C     0.24874   0.60360   0.37326   0.00000  Uiso   1.00
C282   C     0.12733   0.96596   0.35069   0.00000  Uiso   1.00
C283   C     0.09578   0.94410   0.35580   0.00000  Uiso   1.00
C284   C     0.07267   0.95454   0.27223   0.00000  Uiso   1.00
C285   C     0.02633   0.95968   0.15691   0.00000  Uiso   1.00
C286   C     0.17225   0.07031   0.43960   0.00000  Uiso   1.00
C287   C     0.17846   0.13622   0.51947   0.00000  Uiso   1.00
C288   C     0.19315   0.23454   0.51075   0.00000  Uiso   1.00
C289   C     0.21656   0.40170   0.53349   0.00000  Uiso   1.00
C290   C     0.17142   0.01703   0.27583   0.00000  Uiso   1.00
C291   C     0.18802   0.91309   0.31622   0.00000  Uiso   1.00
C292   C     0.20910   0.85289   0.27558   0.00000  Uiso   1.00
C293   C     0.22174   0.76027   0.32358   0.00000  Uiso   1.00
C294   C     0.13551   0.99714   0.26514   0.00000  Uiso   1.00
C295   C     0.11244   0.00762   0.18154   0.00000  Uiso   1.00
C296   C     0.08086   0.98578   0.18652   0.00000  Uiso   1.00
C297   C     0.18042   0.10150   0.35405   0.00000  Uiso   1.00
C298   C     0.19511   0.19974   0.34521   0.00000  Uiso   1.00
C299   C     0.20135   0.26578   0.42504   0.00000  Uiso   1.00
H300   H     0.15000   0.93533   0.49994   0.00000  Uiso   1.00
H301   H     0.18611   0.76525   0.51604   0.00000  Uiso   1.00
H302   H     0.08946   0.91998   0.42202   0.00000  Uiso   1.00
H303   H     0.17212   0.11206   0.58566   0.00000  Uiso   1.00
H304   H     0.22975   0.59042   0.49615   0.00000  Uiso   1.00
H305   H     0.02594   0.91670   0.29790   0.00000  Uiso   1.00
H306   H     0.20026   0.32175   0.64298   0.00000  Uiso   1.00
H307   H     0.17779   0.04131   0.20922   0.00000  Uiso   1.00
H308   H     0.21543   0.87704   0.20937   0.00000  Uiso   1.00
H309   H     0.11877   0.03176   0.11535   0.00000  Uiso   1.00
H310   H     0.20144   0.22384   0.27899   0.00000  Uiso   1.00
H311   H     0.25354   0.68114   0.24724   0.00000  Uiso   1.00
H312   H     0.04973   0.00743   0.04900   0.00000  Uiso   1.00
H313   H     0.22405   0.41248   0.39407   0.00000  Uiso   1.00
O314   O     0.26589   0.52579   0.37703   0.00000  Uiso   1.00
O315   O     0.99851   0.95388   0.11694   0.00000  Uiso   1.00
O316   O     0.22721   0.48529   0.56967   0.00000  Uiso   1.00
N317   N     0.23019   0.63433   0.43756   0.00000  Uiso   1.00
N318   N     0.03964   0.93936   0.25221   0.00000  Uiso   1.00
N319   N     0.20261   0.31806   0.57482   0.00000  Uiso   1.00
N320   N     0.24299   0.68315   0.30362   0.00000  Uiso   1.00
N321   N     0.05245   0.98818   0.11827   0.00000  Uiso   1.00
N322   N     0.21541   0.36688   0.44088   0.00000  Uiso   1.00
C323   C     0.65637   0.45961   0.43334   0.00000  Uiso   1.00
C324   C     0.67985   0.38190   0.40178   0.00000  Uiso   1.00
C325   C     0.69245   0.28936   0.44984   0.00000  Uiso   1.00
C326   C     0.71355   0.22903   0.40928   0.00000  Uiso   1.00
C327   C     0.74874   0.10360   0.37326   0.00000  Uiso   1.00
C328   C     0.62733   0.46596   0.35069   0.00000  Uiso   1.00
C329   C     0.59578   0.44410   0.35580   0.00000  Uiso   1.00
C330   C     0.57267   0.45454   0.27223   0.00000  Uiso   1.00
C331   C     0.52633   0.45968   0.15691   0.00000  Uiso   1.00
C332   C     0.67225   0.57031   0.43960   0.00000  Uiso   1.00
C333   C     0.67846   0.63622   0.51947   0.00000  Uiso   1.00
C334   C     0.69315   0.73454   0.51075   0.00000  Uiso   1.00
C335   C     0.71656   0.90170   0.53349   0.00000  Uiso   1.00
C336   C     0.67142   0.51703   0.27583   0.00000  Uiso   1.00
C337   C     0.68802   0.41309   0.31622   0.00000  Uiso   1.00
C338   C     0.70910   0.35289   0.27558   0.00000  Uiso   1.00
C339   C     0.72174   0.26027   0.32358   0.00000  Uiso   1.00
C340   C     0.63551   0.49714   0.26514   0.00000  Uiso   1.00
C341   C     0.61244   0.50762   0.18154   0.00000  Uiso   1.00
C342   C     0.58086   0.48578   0.18652   0.00000  Uiso   1.00
C343   C     0.68042   0.60150   0.35405   0.00000  Uiso   1.00
C344   C     0.69511   0.69974   0.34521   0.00000  Uiso   1.00
C345   C     0.70135   0.76578   0.42504   0.00000  Uiso   1.00
H346   H     0.65000   0.43533   0.49994   0.00000  Uiso   1.00
H347   H     0.68611   0.26525   0.51604   0.00000  Uiso   1.00
H348   H     0.58946   0.41998   0.42202   0.00000  Uiso   1.00
H349   H     0.67212   0.61206   0.58566   0.00000  Uiso   1.00
H350   H     0.72975   0.09042   0.49615   0.00000  Uiso   1.00
H351   H     0.52594   0.41670   0.29790   0.00000  Uiso   1.00
H352   H     0.70026   0.82175   0.64298   0.00000  Uiso   1.00
H353   H     0.67779   0.54131   0.20922   0.00000  Uiso   1.00
H354   H     0.71543   0.37704   0.20937   0.00000  Uiso   1.00
H355   H     0.61877   0.53176   0.11535   0.00000  Uiso   1.00
H356   H     0.70144   0.72384   0.27899   0.00000  Uiso   1.00
H357   H     0.75354   0.18114   0.24724   0.00000  Uiso   1.00
H358   H     0.54973   0.50743   0.04900   0.00000  Uiso   1.00
H359   H     0.72405   0.91248   0.39407   0.00000  Uiso   1.00
O360   O     0.76589   0.02579   0.37703   0.00000  Uiso   1.00
O361   O     0.49851   0.45388   0.11694   0.00000  Uiso   1.00
O362   O     0.72721   0.98529   0.56967   0.00000  Uiso   1.00
N363   N     0.73019   0.13433   0.43756   0.00000  Uiso   1.00
N364   N     0.53964   0.43936   0.25221   0.00000  Uiso   1.00
N365   N     0.70261   0.81806   0.57482   0.00000  Uiso   1.00
N366   N     0.74299   0.18315   0.30362   0.00000  Uiso   1.00
N367   N     0.55245   0.48818   0.11827   0.00000  Uiso   1.00
N368   N     0.71541   0.86688   0.44088   0.00000  Uiso   1.00
