data_job_05774
_audit_creation_date              2018-12-19
_audit_creation_method            'Materials Studio'
_symmetry_space_group_name_H-M    'P1'
_symmetry_Int_Tables_number       1
_symmetry_cell_setting            triclinic
loop_
_symmetry_equiv_pos_as_xyz
  x,y,z
_cell_length_a                    17.4733
_cell_length_b                    11.6495
_cell_length_c                    13.8672
_cell_angle_alpha                 90.0000
_cell_angle_beta                  90.0000
_cell_angle_gamma                 90.0000
loop_
_atom_site_label
_atom_site_type_symbol
_atom_site_fract_x
_atom_site_fract_y
_atom_site_fract_z
_atom_site_U_iso_or_equiv
_atom_site_adp_type
_atom_site_occupancy
C1     C     0.33377   0.23500   0.22952   0.00000  Uiso   1.00
C2     C     0.27228   0.16617   0.28194   0.00000  Uiso   1.00
C3     C     0.23101   0.07528   0.24345   0.00000  Uiso   1.00
C4     C     0.17729   0.02353   0.30304   0.00000  Uiso   1.00
C5     C     0.08361   0.91092   0.37001   0.00000  Uiso   1.00
C6     C     0.30836   0.36010   0.23443   0.00000  Uiso   1.00
C7     C     0.29743   0.43228   0.15601   0.00000  Uiso   1.00
C8     C     0.27409   0.54378   0.17562   0.00000  Uiso   1.00
C9     C     0.23648   0.73228   0.16884   0.00000  Uiso   1.00
C10    C     0.40556   0.22652   0.29163   0.00000  Uiso   1.00
C11    C     0.47637   0.18641   0.26129   0.00000  Uiso   1.00
C12    C     0.53487   0.18548   0.32905   0.00000  Uiso   1.00
C13    C     0.64818   0.16658   0.41107   0.00000  Uiso   1.00
C14    C     0.31175   0.30471   0.40380   0.00000  Uiso   1.00
C15    C     0.26033   0.20403   0.37659   0.00000  Uiso   1.00
C16    C     0.20666   0.15240   0.43626   0.00000  Uiso   1.00
C17    C     0.16531   0.06145   0.39787   0.00000  Uiso   1.00
C18    C     0.29641   0.39796   0.32909   0.00000  Uiso   1.00
C19    C     0.27308   0.50940   0.34882   0.00000  Uiso   1.00
C20    C     0.26211   0.58172   0.27045   0.00000  Uiso   1.00
C21    C     0.39361   0.26438   0.38629   0.00000  Uiso   1.00
C22    C     0.45201   0.26353   0.45410   0.00000  Uiso   1.00
C23    C     0.52289   0.22342   0.42388   0.00000  Uiso   1.00
H24    H     0.34307   0.20554   0.15583   0.00000  Uiso   1.00
H25    H     0.24027   0.04601   0.17019   0.00000  Uiso   1.00
H26    H     0.30670   0.40295   0.08276   0.00000  Uiso   1.00
H27    H     0.48560   0.15712   0.18803   0.00000  Uiso   1.00
H28    H     0.12101   0.88588   0.22785   0.00000  Uiso   1.00
H29    H     0.26109   0.63852   0.04350   0.00000  Uiso   1.00
H30    H     0.63834   0.12014   0.26548   0.00000  Uiso   1.00
H31    H     0.30245   0.33419   0.47749   0.00000  Uiso   1.00
H32    H     0.19741   0.18172   0.50951   0.00000  Uiso   1.00
H33    H     0.26383   0.53867   0.42208   0.00000  Uiso   1.00
H34    H     0.44274   0.29283   0.52735   0.00000  Uiso   1.00
H35    H     0.08622   0.99603   0.50325   0.00000  Uiso   1.00
H36    H     0.22630   0.74867   0.31890   0.00000  Uiso   1.00
H37    H     0.60355   0.23029   0.54088   0.00000  Uiso   1.00
O38    O     0.03524   0.83836   0.38079   0.00000  Uiso   1.00
O39    O     0.21903   0.82579   0.13894   0.00000  Uiso   1.00
O40    O     0.71398   0.14569   0.43017   0.00000  Uiso   1.00
N41    N     0.12725   0.93271   0.28827   0.00000  Uiso   1.00
N42    N     0.25820   0.63638   0.11592   0.00000  Uiso   1.00
N43    N     0.61091   0.15177   0.32345   0.00000  Uiso   1.00
N44    N     0.10853   0.99198   0.43647   0.00000  Uiso   1.00
N45    N     0.23948   0.69565   0.26412   0.00000  Uiso   1.00
N46    N     0.59219   0.21103   0.47164   0.00000  Uiso   1.00
C47    C     0.66623   0.76500   0.22952   0.00000  Uiso   1.00
C48    C     0.72772   0.83383   0.28194   0.00000  Uiso   1.00
C49    C     0.76899   0.92472   0.24345   0.00000  Uiso   1.00
C50    C     0.82271   0.97647   0.30304   0.00000  Uiso   1.00
C51    C     0.91639   0.08908   0.37001   0.00000  Uiso   1.00
C52    C     0.69164   0.63990   0.23443   0.00000  Uiso   1.00
C53    C     0.70257   0.56772   0.15601   0.00000  Uiso   1.00
C54    C     0.72591   0.45622   0.17562   0.00000  Uiso   1.00
C55    C     0.76352   0.26772   0.16884   0.00000  Uiso   1.00
C56    C     0.59444   0.77348   0.29163   0.00000  Uiso   1.00
C57    C     0.52363   0.81359   0.26129   0.00000  Uiso   1.00
C58    C     0.46513   0.81452   0.32905   0.00000  Uiso   1.00
C59    C     0.35182   0.83342   0.41107   0.00000  Uiso   1.00
C60    C     0.68825   0.69529   0.40380   0.00000  Uiso   1.00
C61    C     0.73967   0.79597   0.37659   0.00000  Uiso   1.00
C62    C     0.79334   0.84760   0.43626   0.00000  Uiso   1.00
C63    C     0.83469   0.93855   0.39787   0.00000  Uiso   1.00
C64    C     0.70359   0.60204   0.32909   0.00000  Uiso   1.00
C65    C     0.72692   0.49060   0.34882   0.00000  Uiso   1.00
C66    C     0.73789   0.41828   0.27045   0.00000  Uiso   1.00
C67    C     0.60639   0.73562   0.38629   0.00000  Uiso   1.00
C68    C     0.54799   0.73647   0.45410   0.00000  Uiso   1.00
C69    C     0.47711   0.77658   0.42388   0.00000  Uiso   1.00
H70    H     0.65693   0.79446   0.15583   0.00000  Uiso   1.00
H71    H     0.75973   0.95399   0.17019   0.00000  Uiso   1.00
H72    H     0.69330   0.59705   0.08276   0.00000  Uiso   1.00
H73    H     0.51440   0.84288   0.18803   0.00000  Uiso   1.00
H74    H     0.87899   0.11412   0.22785   0.00000  Uiso   1.00
H75    H     0.73891   0.36148   0.04350   0.00000  Uiso   1.00
H76    H     0.36166   0.87986   0.26548   0.00000  Uiso   1.00
H77    H     0.69755   0.66581   0.47749   0.00000  Uiso   1.00
H78    H     0.80259   0.81828   0.50951   0.00000  Uiso   1.00
H79    H     0.73617   0.46133   0.42208   0.00000  Uiso   1.00
H80    H     0.55726   0.70717   0.52735   0.00000  Uiso   1.00
H81    H     0.91378   0.00397   0.50325   0.00000  Uiso   1.00
H82    H     0.77370   0.25133   0.31890   0.00000  Uiso   1.00
H83    H     0.39645   0.76971   0.54088   0.00000  Uiso   1.00
O84    O     0.96476   0.16164   0.38079   0.00000  Uiso   1.00
O85    O     0.78097   0.17421   0.13894   0.00000  Uiso   1.00
O86    O     0.28602   0.85431   0.43017   0.00000  Uiso   1.00
N87    N     0.87275   0.06729   0.28827   0.00000  Uiso   1.00
N88    N     0.74180   0.36362   0.11592   0.00000  Uiso   1.00
N89    N     0.38909   0.84823   0.32345   0.00000  Uiso   1.00
N90    N     0.89147   0.00802   0.43647   0.00000  Uiso   1.00
N91    N     0.76052   0.30435   0.26412   0.00000  Uiso   1.00
N92    N     0.40781   0.78897   0.47164   0.00000  Uiso   1.00
C93    C     0.33377   0.26500   0.72952   0.00000  Uiso   1.00
C94    C     0.27228   0.33383   0.78194   0.00000  Uiso   1.00
C95    C     0.23101   0.42472   0.74345   0.00000  Uiso   1.00
C96    C     0.17729   0.47647   0.80304   0.00000  Uiso   1.00
C97    C     0.08361   0.58908   0.87001   0.00000  Uiso   1.00
C98    C     0.30836   0.13990   0.73443   0.00000  Uiso   1.00
C99    C     0.29743   0.06772   0.65601   0.00000  Uiso   1.00
C100   C     0.27409   0.95622   0.67562   0.00000  Uiso   1.00
C101   C     0.23648   0.76772   0.66884   0.00000  Uiso   1.00
C102   C     0.40556   0.27348   0.79163   0.00000  Uiso   1.00
C103   C     0.47637   0.31359   0.76129   0.00000  Uiso   1.00
C104   C     0.53487   0.31452   0.82905   0.00000  Uiso   1.00
C105   C     0.64818   0.33342   0.91107   0.00000  Uiso   1.00
C106   C     0.31175   0.19529   0.90380   0.00000  Uiso   1.00
C107   C     0.26033   0.29597   0.87659   0.00000  Uiso   1.00
C108   C     0.20666   0.34760   0.93626   0.00000  Uiso   1.00
C109   C     0.16531   0.43855   0.89787   0.00000  Uiso   1.00
C110   C     0.29641   0.10204   0.82909   0.00000  Uiso   1.00
C111   C     0.27308   0.99060   0.84882   0.00000  Uiso   1.00
C112   C     0.26211   0.91828   0.77045   0.00000  Uiso   1.00
C113   C     0.39361   0.23562   0.88629   0.00000  Uiso   1.00
C114   C     0.45201   0.23647   0.95410   0.00000  Uiso   1.00
C115   C     0.52289   0.27658   0.92388   0.00000  Uiso   1.00
H116   H     0.34307   0.29446   0.65583   0.00000  Uiso   1.00
H117   H     0.24027   0.45399   0.67019   0.00000  Uiso   1.00
H118   H     0.30670   0.09705   0.58276   0.00000  Uiso   1.00
H119   H     0.48560   0.34288   0.68803   0.00000  Uiso   1.00
H120   H     0.12101   0.61412   0.72785   0.00000  Uiso   1.00
H121   H     0.26109   0.86148   0.54350   0.00000  Uiso   1.00
H122   H     0.63834   0.37986   0.76548   0.00000  Uiso   1.00
H123   H     0.30245   0.16581   0.97749   0.00000  Uiso   1.00
H124   H     0.19741   0.31828   0.00951   0.00000  Uiso   1.00
H125   H     0.26383   0.96133   0.92208   0.00000  Uiso   1.00
H126   H     0.44274   0.20717   0.02735   0.00000  Uiso   1.00
H127   H     0.08622   0.50397   0.00325   0.00000  Uiso   1.00
H128   H     0.22630   0.75133   0.81890   0.00000  Uiso   1.00
H129   H     0.60355   0.26971   0.04088   0.00000  Uiso   1.00
O130   O     0.03524   0.66164   0.88079   0.00000  Uiso   1.00
O131   O     0.21903   0.67421   0.63894   0.00000  Uiso   1.00
O132   O     0.71398   0.35431   0.93017   0.00000  Uiso   1.00
N133   N     0.12725   0.56729   0.78827   0.00000  Uiso   1.00
N134   N     0.25820   0.86362   0.61592   0.00000  Uiso   1.00
N135   N     0.61091   0.34823   0.82345   0.00000  Uiso   1.00
N136   N     0.10853   0.50802   0.93647   0.00000  Uiso   1.00
N137   N     0.23948   0.80435   0.76412   0.00000  Uiso   1.00
N138   N     0.59219   0.28897   0.97164   0.00000  Uiso   1.00
C139   C     0.66623   0.73500   0.72952   0.00000  Uiso   1.00
C140   C     0.72772   0.66617   0.78194   0.00000  Uiso   1.00
C141   C     0.76899   0.57528   0.74345   0.00000  Uiso   1.00
C142   C     0.82271   0.52353   0.80304   0.00000  Uiso   1.00
C143   C     0.91639   0.41092   0.87001   0.00000  Uiso   1.00
C144   C     0.69164   0.86010   0.73443   0.00000  Uiso   1.00
C145   C     0.70257   0.93228   0.65601   0.00000  Uiso   1.00
C146   C     0.72591   0.04378   0.67562   0.00000  Uiso   1.00
C147   C     0.76352   0.23228   0.66884   0.00000  Uiso   1.00
C148   C     0.59444   0.72652   0.79163   0.00000  Uiso   1.00
C149   C     0.52363   0.68641   0.76129   0.00000  Uiso   1.00
C150   C     0.46513   0.68548   0.82905   0.00000  Uiso   1.00
C151   C     0.35182   0.66658   0.91107   0.00000  Uiso   1.00
C152   C     0.68825   0.80471   0.90380   0.00000  Uiso   1.00
C153   C     0.73967   0.70403   0.87659   0.00000  Uiso   1.00
C154   C     0.79334   0.65240   0.93626   0.00000  Uiso   1.00
C155   C     0.83469   0.56145   0.89787   0.00000  Uiso   1.00
C156   C     0.70359   0.89796   0.82909   0.00000  Uiso   1.00
C157   C     0.72692   0.00940   0.84882   0.00000  Uiso   1.00
C158   C     0.73789   0.08172   0.77045   0.00000  Uiso   1.00
C159   C     0.60639   0.76438   0.88629   0.00000  Uiso   1.00
C160   C     0.54799   0.76353   0.95410   0.00000  Uiso   1.00
C161   C     0.47711   0.72342   0.92388   0.00000  Uiso   1.00
H162   H     0.65693   0.70554   0.65583   0.00000  Uiso   1.00
H163   H     0.75973   0.54601   0.67019   0.00000  Uiso   1.00
H164   H     0.69330   0.90295   0.58276   0.00000  Uiso   1.00
H165   H     0.51440   0.65712   0.68803   0.00000  Uiso   1.00
H166   H     0.87899   0.38588   0.72785   0.00000  Uiso   1.00
H167   H     0.73891   0.13852   0.54350   0.00000  Uiso   1.00
H168   H     0.36166   0.62014   0.76548   0.00000  Uiso   1.00
H169   H     0.69755   0.83419   0.97749   0.00000  Uiso   1.00
H170   H     0.80259   0.68172   0.00951   0.00000  Uiso   1.00
H171   H     0.73617   0.03867   0.92208   0.00000  Uiso   1.00
H172   H     0.55726   0.79283   0.02735   0.00000  Uiso   1.00
H173   H     0.91378   0.49603   0.00325   0.00000  Uiso   1.00
H174   H     0.77370   0.24867   0.81890   0.00000  Uiso   1.00
H175   H     0.39645   0.73029   0.04088   0.00000  Uiso   1.00
O176   O     0.96476   0.33836   0.88079   0.00000  Uiso   1.00
O177   O     0.78097   0.32579   0.63894   0.00000  Uiso   1.00
O178   O     0.28602   0.64569   0.93017   0.00000  Uiso   1.00
N179   N     0.87275   0.43271   0.78827   0.00000  Uiso   1.00
N180   N     0.74180   0.13638   0.61592   0.00000  Uiso   1.00
N181   N     0.38909   0.65177   0.82345   0.00000  Uiso   1.00
N182   N     0.89147   0.49198   0.93647   0.00000  Uiso   1.00
N183   N     0.76052   0.19565   0.76412   0.00000  Uiso   1.00
N184   N     0.40781   0.71103   0.97164   0.00000  Uiso   1.00
