data_job_05926
_audit_creation_date              2018-12-19
_audit_creation_method            'Materials Studio'
_symmetry_space_group_name_H-M    'P1'
_symmetry_Int_Tables_number       1
_symmetry_cell_setting            triclinic
loop_
_symmetry_equiv_pos_as_xyz
  x,y,z
_cell_length_a                    21.6222
_cell_length_b                    24.2763
_cell_length_c                    24.3489
_cell_angle_alpha                 68.2830
_cell_angle_beta                  107.5593
_cell_angle_gamma                 73.3327
loop_
_atom_site_label
_atom_site_type_symbol
_atom_site_fract_x
_atom_site_fract_y
_atom_site_fract_z
_atom_site_U_iso_or_equiv
_atom_site_adp_type
_atom_site_occupancy
C1     C     0.80970   0.66706   0.66688   0.00000  Uiso   1.00
C2     C     0.81752   0.63200   0.73684   0.00000  Uiso   1.00
C3     C     0.88050   0.60275   0.79566   0.00000  Uiso   1.00
C4     C     0.87651   0.57318   0.85456   0.00000  Uiso   1.00
C5     C     0.89851   0.51876   0.96319   0.00000  Uiso   1.00
C6     C     0.78209   0.63205   0.63187   0.00000  Uiso   1.00
C7     C     0.81529   0.60286   0.60242   0.00000  Uiso   1.00
C8     C     0.78147   0.57334   0.57295   0.00000  Uiso   1.00
C9     C     0.74844   0.51903   0.51856   0.00000  Uiso   1.00
C10    C     0.74788   0.73677   0.63193   0.00000  Uiso   1.00
C11    C     0.75229   0.79563   0.60252   0.00000  Uiso   1.00
C12    C     0.68966   0.85428   0.57308   0.00000  Uiso   1.00
C13    C     0.60351   0.96258   0.51880   0.00000  Uiso   1.00
C14    C     0.69062   0.66655   0.66688   0.00000  Uiso   1.00
C15    C     0.75284   0.63172   0.73684   0.00000  Uiso   1.00
C16    C     0.74875   0.60219   0.79566   0.00000  Uiso   1.00
C17    C     0.81172   0.57291   0.85456   0.00000  Uiso   1.00
C18    C     0.71742   0.63177   0.63187   0.00000  Uiso   1.00
C19    C     0.68355   0.60229   0.60242   0.00000  Uiso   1.00
C20    C     0.71668   0.57306   0.57294   0.00000  Uiso   1.00
C21    C     0.68320   0.73650   0.63193   0.00000  Uiso   1.00
C22    C     0.62055   0.79507   0.60253   0.00000  Uiso   1.00
C23    C     0.62487   0.85401   0.57308   0.00000  Uiso   1.00
H24    H     0.86005   0.66727   0.66688   0.00000  Uiso   1.00
H25    H     0.93054   0.60297   0.79564   0.00000  Uiso   1.00
H26    H     0.86533   0.60308   0.60242   0.00000  Uiso   1.00
H27    H     0.80235   0.79583   0.60253   0.00000  Uiso   1.00
H28    H     0.98018   0.53154   0.93840   0.00000  Uiso   1.00
H29    H     0.84268   0.53179   0.53097   0.00000  Uiso   1.00
H30    H     0.70986   0.93824   0.53119   0.00000  Uiso   1.00
H31    H     0.64026   0.66633   0.66688   0.00000  Uiso   1.00
H32    H     0.69870   0.60198   0.79564   0.00000  Uiso   1.00
H33    H     0.63349   0.60209   0.60243   0.00000  Uiso   1.00
H34    H     0.57051   0.79483   0.60253   0.00000  Uiso   1.00
H35    H     0.79201   0.53073   0.93840   0.00000  Uiso   1.00
H36    H     0.65450   0.53099   0.53097   0.00000  Uiso   1.00
H37    H     0.52169   0.93743   0.53120   0.00000  Uiso   1.00
O38    O     0.92851   0.48880   0.02311   0.00000  Uiso   1.00
O39    O     0.74810   0.48915   0.48857   0.00000  Uiso   1.00
O40    O     0.57385   0.02239   0.48886   0.00000  Uiso   1.00
N41    N     0.92787   0.54019   0.92073   0.00000  Uiso   1.00
N42    N     0.79932   0.54042   0.53982   0.00000  Uiso   1.00
N43    N     0.67514   0.92041   0.54001   0.00000  Uiso   1.00
N44    N     0.82662   0.53976   0.92073   0.00000  Uiso   1.00
N45    N     0.69807   0.53999   0.53982   0.00000  Uiso   1.00
N46    N     0.57389   0.91998   0.54001   0.00000  Uiso   1.00
C47    C     0.47711   0.66717   0.66648   0.00000  Uiso   1.00
C48    C     0.44961   0.63212   0.63146   0.00000  Uiso   1.00
C49    C     0.48285   0.60299   0.60201   0.00000  Uiso   1.00
C50    C     0.44912   0.57343   0.57252   0.00000  Uiso   1.00
C51    C     0.41624   0.51910   0.51813   0.00000  Uiso   1.00
C52    C     0.41521   0.73684   0.63153   0.00000  Uiso   1.00
C53    C     0.41954   0.79576   0.60215   0.00000  Uiso   1.00
C54    C     0.35686   0.85435   0.57273   0.00000  Uiso   1.00
C55    C     0.27058   0.96260   0.51848   0.00000  Uiso   1.00
C56    C     0.48494   0.63208   0.73643   0.00000  Uiso   1.00
C57    C     0.54790   0.60292   0.79526   0.00000  Uiso   1.00
C58    C     0.54392   0.57332   0.85416   0.00000  Uiso   1.00
C59    C     0.56592   0.51890   0.96279   0.00000  Uiso   1.00
C60    C     0.35809   0.66648   0.66649   0.00000  Uiso   1.00
C61    C     0.38496   0.63175   0.63147   0.00000  Uiso   1.00
C62    C     0.35118   0.60223   0.60202   0.00000  Uiso   1.00
C63    C     0.38437   0.57305   0.57253   0.00000  Uiso   1.00
C64    C     0.35057   0.73647   0.63154   0.00000  Uiso   1.00
C65    C     0.28786   0.79499   0.60216   0.00000  Uiso   1.00
C66    C     0.29210   0.85398   0.57273   0.00000  Uiso   1.00
C67    C     0.42030   0.63170   0.73644   0.00000  Uiso   1.00
C68    C     0.41622   0.60215   0.79527   0.00000  Uiso   1.00
C69    C     0.47916   0.57295   0.85417   0.00000  Uiso   1.00
H70    H     0.52743   0.66746   0.66647   0.00000  Uiso   1.00
H71    H     0.53287   0.60329   0.60201   0.00000  Uiso   1.00
H72    H     0.46957   0.79603   0.60216   0.00000  Uiso   1.00
H73    H     0.59791   0.60321   0.79523   0.00000  Uiso   1.00
H74    H     0.51038   0.53201   0.53053   0.00000  Uiso   1.00
H75    H     0.37692   0.93840   0.53085   0.00000  Uiso   1.00
H76    H     0.64755   0.53181   0.93800   0.00000  Uiso   1.00
H77    H     0.30776   0.66619   0.66649   0.00000  Uiso   1.00
H78    H     0.30115   0.60195   0.60203   0.00000  Uiso   1.00
H79    H     0.23785   0.79468   0.60217   0.00000  Uiso   1.00
H80    H     0.36619   0.60187   0.79525   0.00000  Uiso   1.00
H81    H     0.32231   0.53091   0.53054   0.00000  Uiso   1.00
H82    H     0.18884   0.93731   0.53087   0.00000  Uiso   1.00
H83    H     0.45948   0.53072   0.93801   0.00000  Uiso   1.00
O84    O     0.41595   0.48924   0.48811   0.00000  Uiso   1.00
O85    O     0.24085   0.02241   0.48855   0.00000  Uiso   1.00
O86    O     0.59591   0.48898   0.02271   0.00000  Uiso   1.00
N87    N     0.46704   0.54055   0.53939   0.00000  Uiso   1.00
N88    N     0.34225   0.92051   0.53968   0.00000  Uiso   1.00
N89    N     0.59526   0.54040   0.92033   0.00000  Uiso   1.00
N90    N     0.36583   0.53997   0.53940   0.00000  Uiso   1.00
N91    N     0.24105   0.91992   0.53969   0.00000  Uiso   1.00
N92    N     0.49406   0.53981   0.92034   0.00000  Uiso   1.00
C93    C     0.14170   0.66704   0.66675   0.00000  Uiso   1.00
C94    C     0.07987   0.73676   0.63177   0.00000  Uiso   1.00
C95    C     0.08431   0.79562   0.60244   0.00000  Uiso   1.00
C96    C     0.02167   0.85426   0.57299   0.00000  Uiso   1.00
C97    C     0.93551   0.96255   0.51871   0.00000  Uiso   1.00
C98    C     0.14942   0.63198   0.73667   0.00000  Uiso   1.00
C99    C     0.21235   0.60275   0.79555   0.00000  Uiso   1.00
C100   C     0.20826   0.57318   0.85440   0.00000  Uiso   1.00
C101   C     0.23010   0.51877   0.96298   0.00000  Uiso   1.00
C102   C     0.11418   0.63203   0.63170   0.00000  Uiso   1.00
C103   C     0.14749   0.60281   0.60234   0.00000  Uiso   1.00
C104   C     0.11375   0.57327   0.57283   0.00000  Uiso   1.00
C105   C     0.08087   0.51893   0.51844   0.00000  Uiso   1.00
C106   C     0.02257   0.66652   0.66658   0.00000  Uiso   1.00
C107   C     0.01516   0.73647   0.63168   0.00000  Uiso   1.00
C108   C     0.95250   0.79504   0.60226   0.00000  Uiso   1.00
C109   C     0.95685   0.85398   0.57289   0.00000  Uiso   1.00
C110   C     0.08472   0.63170   0.73658   0.00000  Uiso   1.00
C111   C     0.08054   0.60217   0.79536   0.00000  Uiso   1.00
C112   C     0.14344   0.57290   0.85430   0.00000  Uiso   1.00
C113   C     0.04948   0.63175   0.63161   0.00000  Uiso   1.00
C114   C     0.01568   0.60224   0.60215   0.00000  Uiso   1.00
C115   C     0.04893   0.57299   0.57274   0.00000  Uiso   1.00
H116   H     0.19208   0.66726   0.66683   0.00000  Uiso   1.00
H117   H     0.13440   0.79582   0.60253   0.00000  Uiso   1.00
H118   H     0.26241   0.60297   0.79560   0.00000  Uiso   1.00
H119   H     0.19756   0.60304   0.60242   0.00000  Uiso   1.00
H120   H     0.04191   0.93822   0.53123   0.00000  Uiso   1.00
H121   H     0.31185   0.53157   0.93833   0.00000  Uiso   1.00
H122   H     0.17510   0.53172   0.53096   0.00000  Uiso   1.00
H123   H     0.97220   0.66630   0.66651   0.00000  Uiso   1.00
H124   H     0.90244   0.79481   0.60219   0.00000  Uiso   1.00
H125   H     0.03046   0.60196   0.79527   0.00000  Uiso   1.00
H126   H     0.96561   0.60203   0.60208   0.00000  Uiso   1.00
H127   H     0.85365   0.93740   0.53096   0.00000  Uiso   1.00
H128   H     0.12359   0.53075   0.93806   0.00000  Uiso   1.00
H129   H     0.98684   0.53090   0.53069   0.00000  Uiso   1.00
O130   O     0.90587   0.02236   0.48881   0.00000  Uiso   1.00
O131   O     0.26002   0.48884   0.02290   0.00000  Uiso   1.00
O132   O     0.08061   0.48905   0.48845   0.00000  Uiso   1.00
N133   N     0.00717   0.92039   0.53998   0.00000  Uiso   1.00
N134   N     0.25955   0.54021   0.92059   0.00000  Uiso   1.00
N135   N     0.13171   0.54033   0.53976   0.00000  Uiso   1.00
N136   N     0.90587   0.91995   0.53983   0.00000  Uiso   1.00
N137   N     0.15824   0.53977   0.92045   0.00000  Uiso   1.00
N138   N     0.03041   0.53989   0.53961   0.00000  Uiso   1.00
C139   C     0.19030   0.33294   0.33312   0.00000  Uiso   1.00
C140   C     0.18248   0.36800   0.26316   0.00000  Uiso   1.00
C141   C     0.11950   0.39725   0.20434   0.00000  Uiso   1.00
C142   C     0.12349   0.42682   0.14544   0.00000  Uiso   1.00
C143   C     0.10149   0.48124   0.03681   0.00000  Uiso   1.00
C144   C     0.21791   0.36795   0.36813   0.00000  Uiso   1.00
C145   C     0.18471   0.39714   0.39758   0.00000  Uiso   1.00
C146   C     0.21853   0.42666   0.42705   0.00000  Uiso   1.00
C147   C     0.25156   0.48097   0.48144   0.00000  Uiso   1.00
C148   C     0.25212   0.26323   0.36807   0.00000  Uiso   1.00
C149   C     0.24771   0.20437   0.39748   0.00000  Uiso   1.00
C150   C     0.31034   0.14572   0.42692   0.00000  Uiso   1.00
C151   C     0.39649   0.03742   0.48120   0.00000  Uiso   1.00
C152   C     0.30938   0.33345   0.33312   0.00000  Uiso   1.00
C153   C     0.24716   0.36828   0.26316   0.00000  Uiso   1.00
C154   C     0.25125   0.39781   0.20434   0.00000  Uiso   1.00
C155   C     0.18828   0.42709   0.14544   0.00000  Uiso   1.00
C156   C     0.28258   0.36823   0.36813   0.00000  Uiso   1.00
C157   C     0.31645   0.39771   0.39758   0.00000  Uiso   1.00
C158   C     0.28332   0.42694   0.42706   0.00000  Uiso   1.00
C159   C     0.31680   0.26350   0.36807   0.00000  Uiso   1.00
C160   C     0.37945   0.20493   0.39747   0.00000  Uiso   1.00
C161   C     0.37513   0.14599   0.42692   0.00000  Uiso   1.00
H162   H     0.13995   0.33273   0.33312   0.00000  Uiso   1.00
H163   H     0.06946   0.39703   0.20436   0.00000  Uiso   1.00
H164   H     0.13467   0.39692   0.39758   0.00000  Uiso   1.00
H165   H     0.19765   0.20417   0.39747   0.00000  Uiso   1.00
H166   H     0.01982   0.46846   0.06160   0.00000  Uiso   1.00
H167   H     0.15732   0.46820   0.46903   0.00000  Uiso   1.00
H168   H     0.29014   0.06176   0.46881   0.00000  Uiso   1.00
H169   H     0.35974   0.33367   0.33312   0.00000  Uiso   1.00
H170   H     0.30130   0.39802   0.20436   0.00000  Uiso   1.00
H171   H     0.36651   0.39791   0.39757   0.00000  Uiso   1.00
H172   H     0.42949   0.20517   0.39747   0.00000  Uiso   1.00
H173   H     0.20799   0.46927   0.06160   0.00000  Uiso   1.00
H174   H     0.34550   0.46901   0.46903   0.00000  Uiso   1.00
H175   H     0.47831   0.06257   0.46880   0.00000  Uiso   1.00
O176   O     0.07150   0.51120   0.97689   0.00000  Uiso   1.00
O177   O     0.25190   0.51085   0.51143   0.00000  Uiso   1.00
O178   O     0.42615   0.97761   0.51114   0.00000  Uiso   1.00
N179   N     0.07213   0.45981   0.07927   0.00000  Uiso   1.00
N180   N     0.20068   0.45958   0.46018   0.00000  Uiso   1.00
N181   N     0.32486   0.07959   0.45999   0.00000  Uiso   1.00
N182   N     0.17338   0.46024   0.07927   0.00000  Uiso   1.00
N183   N     0.30193   0.46001   0.46018   0.00000  Uiso   1.00
N184   N     0.42611   0.08002   0.45999   0.00000  Uiso   1.00
C185   C     0.52289   0.33283   0.33352   0.00000  Uiso   1.00
C186   C     0.55039   0.36788   0.36854   0.00000  Uiso   1.00
C187   C     0.51715   0.39701   0.39799   0.00000  Uiso   1.00
C188   C     0.55088   0.42657   0.42748   0.00000  Uiso   1.00
C189   C     0.58376   0.48090   0.48187   0.00000  Uiso   1.00
C190   C     0.58479   0.26316   0.36847   0.00000  Uiso   1.00
C191   C     0.58046   0.20424   0.39785   0.00000  Uiso   1.00
C192   C     0.64314   0.14565   0.42727   0.00000  Uiso   1.00
C193   C     0.72942   0.03740   0.48152   0.00000  Uiso   1.00
C194   C     0.51506   0.36792   0.26357   0.00000  Uiso   1.00
C195   C     0.45210   0.39708   0.20474   0.00000  Uiso   1.00
C196   C     0.45608   0.42668   0.14584   0.00000  Uiso   1.00
C197   C     0.43408   0.48110   0.03721   0.00000  Uiso   1.00
C198   C     0.64191   0.33352   0.33351   0.00000  Uiso   1.00
C199   C     0.61504   0.36825   0.36853   0.00000  Uiso   1.00
C200   C     0.64882   0.39777   0.39798   0.00000  Uiso   1.00
C201   C     0.61563   0.42694   0.42747   0.00000  Uiso   1.00
C202   C     0.64943   0.26353   0.36846   0.00000  Uiso   1.00
C203   C     0.71214   0.20501   0.39784   0.00000  Uiso   1.00
C204   C     0.70790   0.14602   0.42727   0.00000  Uiso   1.00
C205   C     0.57970   0.36830   0.26356   0.00000  Uiso   1.00
C206   C     0.58378   0.39785   0.20473   0.00000  Uiso   1.00
C207   C     0.52084   0.42705   0.14583   0.00000  Uiso   1.00
H208   H     0.47257   0.33254   0.33353   0.00000  Uiso   1.00
H209   H     0.46713   0.39671   0.39799   0.00000  Uiso   1.00
H210   H     0.53043   0.20397   0.39784   0.00000  Uiso   1.00
H211   H     0.40209   0.39679   0.20477   0.00000  Uiso   1.00
H212   H     0.48962   0.46799   0.46947   0.00000  Uiso   1.00
H213   H     0.62308   0.06160   0.46915   0.00000  Uiso   1.00
H214   H     0.35245   0.46819   0.06200   0.00000  Uiso   1.00
H215   H     0.69224   0.33381   0.33351   0.00000  Uiso   1.00
H216   H     0.69885   0.39805   0.39797   0.00000  Uiso   1.00
H217   H     0.76215   0.20531   0.39783   0.00000  Uiso   1.00
H218   H     0.63381   0.39813   0.20475   0.00000  Uiso   1.00
H219   H     0.67769   0.46908   0.46946   0.00000  Uiso   1.00
H220   H     0.81116   0.06269   0.46913   0.00000  Uiso   1.00
H221   H     0.54052   0.46928   0.06199   0.00000  Uiso   1.00
O222   O     0.58405   0.51076   0.51189   0.00000  Uiso   1.00
O223   O     0.75915   0.97759   0.51145   0.00000  Uiso   1.00
O224   O     0.40409   0.51102   0.97729   0.00000  Uiso   1.00
N225   N     0.53296   0.45944   0.46061   0.00000  Uiso   1.00
N226   N     0.65775   0.07949   0.46032   0.00000  Uiso   1.00
N227   N     0.40474   0.45960   0.07967   0.00000  Uiso   1.00
N228   N     0.63417   0.46003   0.46060   0.00000  Uiso   1.00
N229   N     0.75895   0.08008   0.46031   0.00000  Uiso   1.00
N230   N     0.50594   0.46019   0.07966   0.00000  Uiso   1.00
C231   C     0.85830   0.33296   0.33325   0.00000  Uiso   1.00
C232   C     0.92013   0.26324   0.36823   0.00000  Uiso   1.00
C233   C     0.91569   0.20438   0.39756   0.00000  Uiso   1.00
C234   C     0.97832   0.14574   0.42701   0.00000  Uiso   1.00
C235   C     0.06449   0.03745   0.48129   0.00000  Uiso   1.00
C236   C     0.85058   0.36802   0.26333   0.00000  Uiso   1.00
C237   C     0.78765   0.39725   0.20445   0.00000  Uiso   1.00
C238   C     0.79174   0.42682   0.14560   0.00000  Uiso   1.00
C239   C     0.76990   0.48123   0.03702   0.00000  Uiso   1.00
C240   C     0.88582   0.36797   0.36829   0.00000  Uiso   1.00
C241   C     0.85251   0.39719   0.39766   0.00000  Uiso   1.00
C242   C     0.88625   0.42673   0.42717   0.00000  Uiso   1.00
C243   C     0.91913   0.48107   0.48156   0.00000  Uiso   1.00
C244   C     0.97743   0.33348   0.33342   0.00000  Uiso   1.00
C245   C     0.98484   0.26353   0.36832   0.00000  Uiso   1.00
C246   C     0.04750   0.20496   0.39774   0.00000  Uiso   1.00
C247   C     0.04315   0.14602   0.42711   0.00000  Uiso   1.00
C248   C     0.91528   0.36830   0.26342   0.00000  Uiso   1.00
C249   C     0.91946   0.39783   0.20464   0.00000  Uiso   1.00
C250   C     0.85656   0.42710   0.14570   0.00000  Uiso   1.00
C251   C     0.95052   0.36825   0.36839   0.00000  Uiso   1.00
C252   C     0.98432   0.39776   0.39785   0.00000  Uiso   1.00
C253   C     0.95107   0.42701   0.42726   0.00000  Uiso   1.00
H254   H     0.80792   0.33274   0.33317   0.00000  Uiso   1.00
H255   H     0.86560   0.20418   0.39747   0.00000  Uiso   1.00
H256   H     0.73759   0.39703   0.20440   0.00000  Uiso   1.00
H257   H     0.80244   0.39696   0.39758   0.00000  Uiso   1.00
H258   H     0.95809   0.06178   0.46877   0.00000  Uiso   1.00
H259   H     0.68815   0.46843   0.06167   0.00000  Uiso   1.00
H260   H     0.82490   0.46828   0.46903   0.00000  Uiso   1.00
H261   H     0.02780   0.33370   0.33349   0.00000  Uiso   1.00
H262   H     0.09756   0.20519   0.39781   0.00000  Uiso   1.00
H263   H     0.96954   0.39804   0.20473   0.00000  Uiso   1.00
H264   H     0.03439   0.39797   0.39792   0.00000  Uiso   1.00
H265   H     0.14635   0.06260   0.46904   0.00000  Uiso   1.00
H266   H     0.87641   0.46925   0.06194   0.00000  Uiso   1.00
H267   H     0.01316   0.46910   0.46931   0.00000  Uiso   1.00
O268   O     0.09413   0.97764   0.51119   0.00000  Uiso   1.00
O269   O     0.73998   0.51116   0.97710   0.00000  Uiso   1.00
O270   O     0.91939   0.51095   0.51155   0.00000  Uiso   1.00
N271   N     0.99283   0.07961   0.46002   0.00000  Uiso   1.00
N272   N     0.74045   0.45979   0.07941   0.00000  Uiso   1.00
N273   N     0.86829   0.45967   0.46024   0.00000  Uiso   1.00
N274   N     0.09413   0.08005   0.46017   0.00000  Uiso   1.00
N275   N     0.84176   0.46023   0.07955   0.00000  Uiso   1.00
N276   N     0.96959   0.46011   0.46039   0.00000  Uiso   1.00
