data_job_06860
_audit_creation_date              2018-12-19
_audit_creation_method            'Materials Studio'
_symmetry_space_group_name_H-M    'P1'
_symmetry_Int_Tables_number       1
_symmetry_cell_setting            triclinic
loop_
_symmetry_equiv_pos_as_xyz
  x,y,z
_cell_length_a                    20.0560
_cell_length_b                    20.4117
_cell_length_c                    25.4474
_cell_angle_alpha                 104.2202
_cell_angle_beta                  106.7218
_cell_angle_gamma                 69.9286
loop_
_atom_site_label
_atom_site_type_symbol
_atom_site_fract_x
_atom_site_fract_y
_atom_site_fract_z
_atom_site_U_iso_or_equiv
_atom_site_adp_type
_atom_site_occupancy
C1     C     0.54431   0.53237   0.33588   0.00000  Uiso   1.00
C2     C     0.56265   0.55851   0.29208   0.00000  Uiso   1.00
C3     C     0.51787   0.57143   0.24054   0.00000  Uiso   1.00
C4     C     0.54460   0.59513   0.20641   0.00000  Uiso   1.00
C5     C     0.56259   0.63411   0.13583   0.00000  Uiso   1.00
C6     C     0.60532   0.46493   0.34819   0.00000  Uiso   1.00
C7     C     0.59641   0.39917   0.34385   0.00000  Uiso   1.00
C8     C     0.65906   0.34409   0.35697   0.00000  Uiso   1.00
C9     C     0.74329   0.23780   0.37355   0.00000  Uiso   1.00
C10    C     0.55207   0.58675   0.38864   0.00000  Uiso   1.00
C11    C     0.49840   0.62341   0.41831   0.00000  Uiso   1.00
C12    C     0.51623   0.67088   0.46550   0.00000  Uiso   1.00
C13    C     0.51778   0.75373   0.54487   0.00000  Uiso   1.00
C14    C     0.67142   0.55148   0.36693   0.00000  Uiso   1.00
C15    C     0.63170   0.56889   0.30894   0.00000  Uiso   1.00
C16    C     0.65850   0.59258   0.27489   0.00000  Uiso   1.00
C17    C     0.61376   0.60553   0.22331   0.00000  Uiso   1.00
C18    C     0.67436   0.47531   0.36506   0.00000  Uiso   1.00
C19    C     0.73704   0.42032   0.37820   0.00000  Uiso   1.00
C20    C     0.72823   0.35449   0.37387   0.00000  Uiso   1.00
C21    C     0.62111   0.59713   0.40551   0.00000  Uiso   1.00
C22    C     0.63903   0.64455   0.45266   0.00000  Uiso   1.00
C23    C     0.58539   0.68128   0.48240   0.00000  Uiso   1.00
H24    H     0.49056   0.52428   0.32275   0.00000  Uiso   1.00
H25    H     0.46444   0.56339   0.22750   0.00000  Uiso   1.00
H26    H     0.54297   0.39116   0.33080   0.00000  Uiso   1.00
H27    H     0.44498   0.61536   0.40525   0.00000  Uiso   1.00
H28    H     0.46594   0.61130   0.12932   0.00000  Uiso   1.00
H29    H     0.63153   0.24814   0.34716   0.00000  Uiso   1.00
H30    H     0.42488   0.72091   0.50415   0.00000  Uiso   1.00
H31    H     0.72518   0.55956   0.38006   0.00000  Uiso   1.00
H32    H     0.71193   0.60061   0.28796   0.00000  Uiso   1.00
H33    H     0.79046   0.42837   0.39126   0.00000  Uiso   1.00
H34    H     0.69246   0.65257   0.46570   0.00000  Uiso   1.00
H35    H     0.66682   0.64150   0.17839   0.00000  Uiso   1.00
H36    H     0.83240   0.27835   0.39623   0.00000  Uiso   1.00
H37    H     0.62575   0.75112   0.55322   0.00000  Uiso   1.00
O38    O     0.55344   0.65274   0.09223   0.00000  Uiso   1.00
O39    O     0.77068   0.17630   0.37802   0.00000  Uiso   1.00
O40    O     0.49956   0.79657   0.58399   0.00000  Uiso   1.00
N41    N     0.51503   0.61279   0.15352   0.00000  Uiso   1.00
N42    N     0.66984   0.27326   0.35717   0.00000  Uiso   1.00
N43    N     0.47665   0.71524   0.50395   0.00000  Uiso   1.00
N44    N     0.62312   0.62904   0.17992   0.00000  Uiso   1.00
N45    N     0.77793   0.28951   0.38357   0.00000  Uiso   1.00
N46    N     0.58474   0.73150   0.53035   0.00000  Uiso   1.00
C47    C     0.47850   0.51188   0.77016   0.00000  Uiso   1.00
C48    C     0.49587   0.55639   0.82708   0.00000  Uiso   1.00
C49    C     0.52196   0.61428   0.83806   0.00000  Uiso   1.00
C50    C     0.53445   0.64791   0.89290   0.00000  Uiso   1.00
C51    C     0.56346   0.72057   0.97486   0.00000  Uiso   1.00
C52    C     0.52379   0.43593   0.77640   0.00000  Uiso   1.00
C53    C     0.57333   0.39253   0.74476   0.00000  Uiso   1.00
C54    C     0.60931   0.32475   0.75694   0.00000  Uiso   1.00
C55    C     0.68163   0.21037   0.76018   0.00000  Uiso   1.00
C56    C     0.39926   0.51370   0.76036   0.00000  Uiso   1.00
C57    C     0.34409   0.53569   0.71522   0.00000  Uiso   1.00
C58    C     0.27523   0.53337   0.71388   0.00000  Uiso   1.00
C59    C     0.15419   0.53975   0.69222   0.00000  Uiso   1.00
C60    C     0.45430   0.46866   0.84804   0.00000  Uiso   1.00
C61    C     0.48273   0.53291   0.86938   0.00000  Uiso   1.00
C62    C     0.49519   0.56646   0.92422   0.00000  Uiso   1.00
C63    C     0.52128   0.62439   0.93527   0.00000  Uiso   1.00
C64    C     0.51065   0.41245   0.81870   0.00000  Uiso   1.00
C65    C     0.54656   0.34471   0.83092   0.00000  Uiso   1.00
C66    C     0.59615   0.30122   0.79931   0.00000  Uiso   1.00
C67    C     0.38611   0.49023   0.80266   0.00000  Uiso   1.00
C68    C     0.31732   0.48787   0.80138   0.00000  Uiso   1.00
C69    C     0.26207   0.50985   0.75625   0.00000  Uiso   1.00
H70    H     0.48873   0.53016   0.73723   0.00000  Uiso   1.00
H71    H     0.53213   0.63243   0.80531   0.00000  Uiso   1.00
H72    H     0.58349   0.41071   0.71203   0.00000  Uiso   1.00
H73    H     0.35428   0.55385   0.68249   0.00000  Uiso   1.00
H74    H     0.57446   0.73545   0.89945   0.00000  Uiso   1.00
H75    H     0.68274   0.26794   0.70275   0.00000  Uiso   1.00
H76    H     0.19943   0.56977   0.64046   0.00000  Uiso   1.00
H77    H     0.44407   0.45038   0.88097   0.00000  Uiso   1.00
H78    H     0.48501   0.54828   0.95694   0.00000  Uiso   1.00
H79    H     0.53637   0.32656   0.86366   0.00000  Uiso   1.00
H80    H     0.30717   0.46970   0.83412   0.00000  Uiso   1.00
H81    H     0.53623   0.66715   0.02253   0.00000  Uiso   1.00
H82    H     0.64450   0.19963   0.82581   0.00000  Uiso   1.00
H83    H     0.16119   0.50147   0.76354   0.00000  Uiso   1.00
O84    O     0.58311   0.76713   0.00838   0.00000  Uiso   1.00
O85    O     0.72515   0.15376   0.75029   0.00000  Uiso   1.00
O86    O     0.09105   0.54976   0.66859   0.00000  Uiso   1.00
N87    N     0.55983   0.70595   0.91799   0.00000  Uiso   1.00
N88    N     0.66107   0.26886   0.73408   0.00000  Uiso   1.00
N89    N     0.20922   0.55102   0.67585   0.00000  Uiso   1.00
N90    N     0.53926   0.66920   0.98421   0.00000  Uiso   1.00
N91    N     0.64050   0.23210   0.80031   0.00000  Uiso   1.00
N92    N     0.18864   0.51427   0.74207   0.00000  Uiso   1.00
C93    C     0.21501   0.52002   0.38382   0.00000  Uiso   1.00
C94    C     0.14627   0.49673   0.35919   0.00000  Uiso   1.00
C95    C     0.10147   0.49061   0.38922   0.00000  Uiso   1.00
C96    C     0.04118   0.46846   0.35898   0.00000  Uiso   1.00
C97    C     0.93674   0.43461   0.32959   0.00000  Uiso   1.00
C98    C     0.27612   0.46063   0.36187   0.00000  Uiso   1.00
C99    C     0.34050   0.42417   0.39414   0.00000  Uiso   1.00
C100   C     0.38952   0.37165   0.36614   0.00000  Uiso   1.00
C101   C     0.48670   0.28180   0.34090   0.00000  Uiso   1.00
C102   C     0.20384   0.58320   0.35700   0.00000  Uiso   1.00
C103   C     0.20747   0.64979   0.38519   0.00000  Uiso   1.00
C104   C     0.19565   0.70046   0.35310   0.00000  Uiso   1.00
C105   C     0.18060   0.80091   0.32031   0.00000  Uiso   1.00
C106   C     0.18759   0.49158   0.27671   0.00000  Uiso   1.00
C107   C     0.13139   0.48128   0.30102   0.00000  Uiso   1.00
C108   C     0.07114   0.45915   0.27072   0.00000  Uiso   1.00
C109   C     0.02626   0.45299   0.30070   0.00000  Uiso   1.00
C110   C     0.26124   0.44519   0.30369   0.00000  Uiso   1.00
C111   C     0.31017   0.39271   0.27564   0.00000  Uiso   1.00
C112   C     0.37461   0.35618   0.30786   0.00000  Uiso   1.00
C113   C     0.18895   0.56776   0.29883   0.00000  Uiso   1.00
C114   C     0.17713   0.61833   0.26669   0.00000  Uiso   1.00
C115   C     0.18074   0.68498   0.29482   0.00000  Uiso   1.00
H116   H     0.22661   0.53204   0.42911   0.00000  Uiso   1.00
H117   H     0.11302   0.50256   0.43425   0.00000  Uiso   1.00
H118   H     0.35201   0.43614   0.43916   0.00000  Uiso   1.00
H119   H     0.21900   0.66172   0.43021   0.00000  Uiso   1.00
H120   H     0.98054   0.46303   0.41428   0.00000  Uiso   1.00
H121   H     0.48448   0.32301   0.42465   0.00000  Uiso   1.00
H122   H     0.20399   0.79869   0.40577   0.00000  Uiso   1.00
H123   H     0.17600   0.47956   0.23142   0.00000  Uiso   1.00
H124   H     0.05963   0.44720   0.22570   0.00000  Uiso   1.00
H125   H     0.29863   0.38078   0.23062   0.00000  Uiso   1.00
H126   H     0.16561   0.60636   0.22167   0.00000  Uiso   1.00
H127   H     0.93721   0.41810   0.24501   0.00000  Uiso   1.00
H128   H     0.44116   0.27807   0.25538   0.00000  Uiso   1.00
H129   H     0.16066   0.75375   0.23651   0.00000  Uiso   1.00
O130   O     0.88325   0.42020   0.32945   0.00000  Uiso   1.00
O131   O     0.54441   0.23650   0.34306   0.00000  Uiso   1.00
O132   O     0.17641   0.86058   0.31829   0.00000  Uiso   1.00
N133   N     0.98630   0.45691   0.37523   0.00000  Uiso   1.00
N134   N     0.45745   0.32599   0.38492   0.00000  Uiso   1.00
N135   N     0.19524   0.77070   0.36728   0.00000  Uiso   1.00
N136   N     0.96299   0.43273   0.28415   0.00000  Uiso   1.00
N137   N     0.43414   0.30181   0.29384   0.00000  Uiso   1.00
N138   N     0.17192   0.74653   0.27620   0.00000  Uiso   1.00
C139   C     0.09007   0.13758   0.17929   0.00000  Uiso   1.00
C140   C     0.06871   0.15779   0.23529   0.00000  Uiso   1.00
C141   C     0.00958   0.21301   0.24900   0.00000  Uiso   1.00
C142   C     0.99931   0.22285   0.30240   0.00000  Uiso   1.00
C143   C     0.95894   0.26087   0.38352   0.00000  Uiso   1.00
C144   C     0.09254   0.06016   0.15916   0.00000  Uiso   1.00
C145   C     0.05346   0.03330   0.10886   0.00000  Uiso   1.00
C146   C     0.06326   0.96095   0.09816   0.00000  Uiso   1.00
C147   C     0.05993   0.84739   0.06106   0.00000  Uiso   1.00
C148   C     0.16850   0.13946   0.19170   0.00000  Uiso   1.00
C149   C     0.19330   0.17926   0.16876   0.00000  Uiso   1.00
C150   C     0.26705   0.17367   0.18545   0.00000  Uiso   1.00
C151   C     0.38166   0.18325   0.19888   0.00000  Uiso   1.00
C152   C     0.17696   0.05684   0.24973   0.00000  Uiso   1.00
C153   C     0.11590   0.11393   0.27355   0.00000  Uiso   1.00
C154   C     0.10571   0.12369   0.32693   0.00000  Uiso   1.00
C155   C     0.04659   0.17892   0.34073   0.00000  Uiso   1.00
C156   C     0.13973   0.01631   0.19741   0.00000  Uiso   1.00
C157   C     0.14959   0.94398   0.18679   0.00000  Uiso   1.00
C158   C     0.11053   0.91702   0.13648   0.00000  Uiso   1.00
C159   C     0.21569   0.09561   0.22996   0.00000  Uiso   1.00
C160   C     0.28943   0.08995   0.24669   0.00000  Uiso   1.00
C161   C     0.31433   0.12974   0.22378   0.00000  Uiso   1.00
H162   H     0.05333   0.17171   0.14951   0.00000  Uiso   1.00
H163   H     0.97307   0.24693   0.21938   0.00000  Uiso   1.00
H164   H     0.01695   0.06724   0.07926   0.00000  Uiso   1.00
H165   H     0.15676   0.21319   0.13915   0.00000  Uiso   1.00
H166   H     0.90489   0.31097   0.31372   0.00000  Uiso   1.00
H167   H     0.99743   0.93209   0.01825   0.00000  Uiso   1.00
H168   H     0.29225   0.23984   0.14454   0.00000  Uiso   1.00
H169   H     0.21370   0.02270   0.27952   0.00000  Uiso   1.00
H170   H     0.14224   0.08975   0.35653   0.00000  Uiso   1.00
H171   H     0.18612   0.91006   0.21640   0.00000  Uiso   1.00
H172   H     0.32593   0.05601   0.27630   0.00000  Uiso   1.00
H173   H     0.04219   0.18339   0.42503   0.00000  Uiso   1.00
H174   H     0.13473   0.80451   0.12956   0.00000  Uiso   1.00
H175   H     0.42955   0.11227   0.25585   0.00000  Uiso   1.00
O176   O     0.92363   0.29396   0.41769   0.00000  Uiso   1.00
O177   O     0.04504   0.79688   0.03003   0.00000  Uiso   1.00
O178   O     0.43184   0.20065   0.19573   0.00000  Uiso   1.00
N179   N     0.94702   0.27175   0.32935   0.00000  Uiso   1.00
N180   N     0.03353   0.91752   0.05310   0.00000  Uiso   1.00
N181   N     0.30916   0.20523   0.17117   0.00000  Uiso   1.00
N182   N     0.02090   0.20310   0.38925   0.00000  Uiso   1.00
N183   N     0.10741   0.84887   0.11300   0.00000  Uiso   1.00
N184   N     0.38305   0.13659   0.23107   0.00000  Uiso   1.00
C185   C     0.11589   0.87704   0.84975   0.00000  Uiso   1.00
C186   C     0.19109   0.84986   0.83641   0.00000  Uiso   1.00
C187   C     0.25159   0.87118   0.86736   0.00000  Uiso   1.00
C188   C     0.31541   0.84001   0.84823   0.00000  Uiso   1.00
C189   C     0.43171   0.80550   0.83489   0.00000  Uiso   1.00
C190   C     0.09760   0.81197   0.85354   0.00000  Uiso   1.00
C191   C     0.07947   0.80145   0.89888   0.00000  Uiso   1.00
C192   C     0.06458   0.73839   0.89416   0.00000  Uiso   1.00
C193   C     0.03567   0.64507   0.90739   0.00000  Uiso   1.00
C194   C     0.06294   0.90535   0.79832   0.00000  Uiso   1.00
C195   C     0.01567   0.97334   0.79723   0.00000  Uiso   1.00
C196   C     0.97159   0.98889   0.74603   0.00000  Uiso   1.00
C197   C     0.88888   0.04056   0.67353   0.00000  Uiso   1.00
C198   C     0.12166   0.78377   0.76076   0.00000  Uiso   1.00
C199   C     0.19422   0.79920   0.78808   0.00000  Uiso   1.00
C200   C     0.25797   0.76799   0.76890   0.00000  Uiso   1.00
C201   C     0.31855   0.78926   0.79980   0.00000  Uiso   1.00
C202   C     0.10073   0.76131   0.80520   0.00000  Uiso   1.00
C203   C     0.08586   0.69826   0.80042   0.00000  Uiso   1.00
C204   C     0.06772   0.68763   0.84574   0.00000  Uiso   1.00
C205   C     0.06608   0.85469   0.74998   0.00000  Uiso   1.00
C206   C     0.02206   0.87014   0.69877   0.00000  Uiso   1.00
C207   C     0.97473   0.93814   0.69761   0.00000  Uiso   1.00
H208   H     0.11345   0.91647   0.88738   0.00000  Uiso   1.00
H209   H     0.24914   0.91038   0.90476   0.00000  Uiso   1.00
H210   H     0.07705   0.84066   0.93628   0.00000  Uiso   1.00
H211   H     0.01326   0.01253   0.83465   0.00000  Uiso   1.00
H212   H     0.40097   0.88127   0.90272   0.00000  Uiso   1.00
H213   H     0.03807   0.73427   0.96917   0.00000  Uiso   1.00
H214   H     0.90356   0.09668   0.75486   0.00000  Uiso   1.00
H215   H     0.12410   0.74432   0.72313   0.00000  Uiso   1.00
H216   H     0.26038   0.72879   0.73149   0.00000  Uiso   1.00
H217   H     0.08828   0.65907   0.76301   0.00000  Uiso   1.00
H218   H     0.02450   0.83093   0.66138   0.00000  Uiso   1.00
H219   H     0.41009   0.73388   0.76209   0.00000  Uiso   1.00
H220   H     0.04719   0.58688   0.82853   0.00000  Uiso   1.00
H221   H     0.91268   0.94929   0.61423   0.00000  Uiso   1.00
O222   O     0.49500   0.80044   0.84088   0.00000  Uiso   1.00
O223   O     0.01887   0.60760   0.92805   0.00000  Uiso   1.00
O224   O     0.84240   0.08306   0.64688   0.00000  Uiso   1.00
N225   N     0.38441   0.84873   0.86847   0.00000  Uiso   1.00
N226   N     0.04513   0.71129   0.93059   0.00000  Uiso   1.00
N227   N     0.91936   0.05010   0.73024   0.00000  Uiso   1.00
N228   N     0.38932   0.76942   0.79280   0.00000  Uiso   1.00
N229   N     0.05004   0.63197   0.85492   0.00000  Uiso   1.00
N230   N     0.92427   0.97079   0.65457   0.00000  Uiso   1.00
C231   C     0.63414   0.00993   0.83095   0.00000  Uiso   1.00
C232   C     0.55671   0.02450   0.79540   0.00000  Uiso   1.00
C233   C     0.53742   0.02100   0.73808   0.00000  Uiso   1.00
C234   C     0.46364   0.03621   0.71329   0.00000  Uiso   1.00
C235   C     0.35140   0.05605   0.65330   0.00000  Uiso   1.00
C236   C     0.64369   0.95186   0.86280   0.00000  Uiso   1.00
C237   C     0.69754   0.88730   0.86215   0.00000  Uiso   1.00
C238   C     0.69698   0.84136   0.89411   0.00000  Uiso   1.00
C239   C     0.71981   0.74845   0.93879   0.00000  Uiso   1.00
C240   C     0.63574   0.07619   0.87435   0.00000  Uiso   1.00
C241   C     0.68293   0.11616   0.88342   0.00000  Uiso   1.00
C242   C     0.67570   0.17489   0.92510   0.00000  Uiso   1.00
C243   C     0.68619   0.27502   0.98771   0.00000  Uiso   1.00
C244   C     0.53741   0.04315   0.88888   0.00000  Uiso   1.00
C245   C     0.50417   0.04254   0.82687   0.00000  Uiso   1.00
C246   C     0.43040   0.05776   0.80216   0.00000  Uiso   1.00
C247   C     0.41100   0.05429   0.74481   0.00000  Uiso   1.00
C248   C     0.59115   0.96990   0.89426   0.00000  Uiso   1.00
C249   C     0.59052   0.92405   0.92623   0.00000  Uiso   1.00
C250   C     0.64435   0.85943   0.92562   0.00000  Uiso   1.00
C251   C     0.58320   0.09424   0.90581   0.00000  Uiso   1.00
C252   C     0.57590   0.15291   0.94749   0.00000  Uiso   1.00
C253   C     0.62306   0.19296   0.95662   0.00000  Uiso   1.00
H254   H     0.67505   0.99588   0.80646   0.00000  Uiso   1.00
H255   H     0.57810   0.00703   0.71375   0.00000  Uiso   1.00
H256   H     0.73819   0.87335   0.83780   0.00000  Uiso   1.00
H257   H     0.72358   0.10218   0.85906   0.00000  Uiso   1.00
H258   H     0.44744   0.02733   0.62482   0.00000  Uiso   1.00
H259   H     0.78503   0.74547   0.88642   0.00000  Uiso   1.00
H260   H     0.75422   0.22799   0.93125   0.00000  Uiso   1.00
H261   H     0.49650   0.05720   0.91337   0.00000  Uiso   1.00
H262   H     0.38975   0.07172   0.82652   0.00000  Uiso   1.00
H263   H     0.54985   0.93803   0.95057   0.00000  Uiso   1.00
H264   H     0.53524   0.16686   0.97183   0.00000  Uiso   1.00
H265   H     0.29457   0.07983   0.71635   0.00000  Uiso   1.00
H266   H     0.63216   0.79796   0.97795   0.00000  Uiso   1.00
H267   H     0.60135   0.28048   0.02278   0.00000  Uiso   1.00
O268   O     0.30400   0.06200   0.61152   0.00000  Uiso   1.00
O269   O     0.74691   0.69221   0.95473   0.00000  Uiso   1.00
O270   O     0.70649   0.32527   0.01354   0.00000  Uiso   1.00
N271   N     0.42611   0.03771   0.65829   0.00000  Uiso   1.00
N272   N     0.74173   0.77417   0.90286   0.00000  Uiso   1.00
N273   N     0.71294   0.22528   0.94478   0.00000  Uiso   1.00
N274   N     0.34385   0.06595   0.70754   0.00000  Uiso   1.00
N275   N     0.65947   0.80242   0.95211   0.00000  Uiso   1.00
N276   N     0.63068   0.25353   0.99403   0.00000  Uiso   1.00
C277   C     0.39259   0.35719   0.58074   0.00000  Uiso   1.00
C278   C     0.37145   0.33201   0.62361   0.00000  Uiso   1.00
C279   C     0.41400   0.31959   0.67588   0.00000  Uiso   1.00
C280   C     0.38488   0.29676   0.70893   0.00000  Uiso   1.00
C281   C     0.36256   0.25922   0.77833   0.00000  Uiso   1.00
C282   C     0.33247   0.42463   0.56701   0.00000  Uiso   1.00
C283   C     0.34227   0.49008   0.57168   0.00000  Uiso   1.00
C284   C     0.28034   0.54521   0.55708   0.00000  Uiso   1.00
C285   C     0.19752   0.65145   0.53856   0.00000  Uiso   1.00
C286   C     0.38656   0.30229   0.52814   0.00000  Uiso   1.00
C287   C     0.44182   0.26489   0.50012   0.00000  Uiso   1.00
C288   C     0.42542   0.21704   0.45278   0.00000  Uiso   1.00
C289   C     0.42657   0.13334   0.37391   0.00000  Uiso   1.00
C290   C     0.26520   0.33873   0.54649   0.00000  Uiso   1.00
C291   C     0.30225   0.32198   0.60500   0.00000  Uiso   1.00
C292   C     0.27306   0.29916   0.63798   0.00000  Uiso   1.00
C293   C     0.31557   0.28671   0.69029   0.00000  Uiso   1.00
C294   C     0.26328   0.41460   0.54840   0.00000  Uiso   1.00
C295   C     0.20132   0.46965   0.53378   0.00000  Uiso   1.00
C296   C     0.21102   0.53517   0.53844   0.00000  Uiso   1.00
C297   C     0.31736   0.29226   0.50953   0.00000  Uiso   1.00
C298   C     0.30087   0.24446   0.46222   0.00000  Uiso   1.00
C299   C     0.35610   0.20700   0.43414   0.00000  Uiso   1.00
H300   H     0.44646   0.36500   0.59523   0.00000  Uiso   1.00
H301   H     0.46755   0.32736   0.69027   0.00000  Uiso   1.00
H302   H     0.39582   0.49782   0.58608   0.00000  Uiso   1.00
H303   H     0.49536   0.27267   0.51453   0.00000  Uiso   1.00
H304   H     0.46040   0.28123   0.78744   0.00000  Uiso   1.00
H305   H     0.30916   0.64065   0.56773   0.00000  Uiso   1.00
H306   H     0.51905   0.16587   0.41685   0.00000  Uiso   1.00
H307   H     0.21133   0.33092   0.53200   0.00000  Uiso   1.00
H308   H     0.21951   0.29141   0.62357   0.00000  Uiso   1.00
H309   H     0.14779   0.46187   0.51938   0.00000  Uiso   1.00
H310   H     0.24732   0.23672   0.44783   0.00000  Uiso   1.00
H311   H     0.25908   0.25205   0.73330   0.00000  Uiso   1.00
H312   H     0.10785   0.61147   0.51360   0.00000  Uiso   1.00
H313   H     0.31774   0.13670   0.36272   0.00000  Uiso   1.00
O314   O     0.36935   0.24129   0.82176   0.00000  Uiso   1.00
O315   O     0.17095   0.71282   0.53350   0.00000  Uiso   1.00
O316   O     0.44631   0.08993   0.33556   0.00000  Uiso   1.00
N317   N     0.41190   0.27978   0.76213   0.00000  Uiso   1.00
N318   N     0.27051   0.61581   0.55672   0.00000  Uiso   1.00
N319   N     0.46673   0.17195   0.41566   0.00000  Uiso   1.00
N320   N     0.30357   0.26407   0.73300   0.00000  Uiso   1.00
N321   N     0.16218   0.60011   0.52759   0.00000  Uiso   1.00
N322   N     0.35840   0.15625   0.38653   0.00000  Uiso   1.00
C323   C     0.46118   0.39174   0.13677   0.00000  Uiso   1.00
C324   C     0.43799   0.34607   0.08178   0.00000  Uiso   1.00
C325   C     0.41653   0.28633   0.07575   0.00000  Uiso   1.00
C326   C     0.39736   0.25190   0.02192   0.00000  Uiso   1.00
C327   C     0.36097   0.17729   0.94354   0.00000  Uiso   1.00
C328   C     0.41125   0.46669   0.13226   0.00000  Uiso   1.00
C329   C     0.36732   0.50837   0.16866   0.00000  Uiso   1.00
C330   C     0.32565   0.57548   0.15732   0.00000  Uiso   1.00
C331   C     0.24779   0.68816   0.15733   0.00000  Uiso   1.00
C332   C     0.53712   0.39334   0.13813   0.00000  Uiso   1.00
C333   C     0.59902   0.37336   0.17947   0.00000  Uiso   1.00
C334   C     0.66331   0.37873   0.17308   0.00000  Uiso   1.00
C335   C     0.78088   0.37751   0.18220   0.00000  Uiso   1.00
C336   C     0.46530   0.43682   0.05191   0.00000  Uiso   1.00
C337   C     0.44022   0.37056   0.03569   0.00000  Uiso   1.00
C338   C     0.42108   0.33621   0.98186   0.00000  Uiso   1.00
C339   C     0.39960   0.27643   0.97574   0.00000  Uiso   1.00
C340   C     0.41349   0.49118   0.08617   0.00000  Uiso   1.00
C341   C     0.37188   0.55825   0.07477   0.00000  Uiso   1.00
C342   C     0.32789   0.60001   0.11114   0.00000  Uiso   1.00
C343   C     0.53936   0.41783   0.09203   0.00000  Uiso   1.00
C344   C     0.60357   0.42323   0.08558   0.00000  Uiso   1.00
C345   C     0.66555   0.40326   0.12690   0.00000  Uiso   1.00
H346   H     0.45944   0.37268   0.17266   0.00000  Uiso   1.00
H347   H     0.41480   0.26741   0.11143   0.00000  Uiso   1.00
H348   H     0.36561   0.48941   0.20433   0.00000  Uiso   1.00
H349   H     0.59726   0.35442   0.21513   0.00000  Uiso   1.00
H350   H     0.36627   0.16150   0.02321   0.00000  Uiso   1.00
H351   H     0.26256   0.62962   0.21911   0.00000  Uiso   1.00
H352   H     0.75106   0.34496   0.24190   0.00000  Uiso   1.00
H353   H     0.46704   0.45588   0.01603   0.00000  Uiso   1.00
H354   H     0.42282   0.35517   0.94620   0.00000  Uiso   1.00
H355   H     0.37362   0.57718   0.03910   0.00000  Uiso   1.00
H356   H     0.60528   0.44218   0.04991   0.00000  Uiso   1.00
H357   H     0.37278   0.23274   0.88911   0.00000  Uiso   1.00
H358   H     0.26907   0.70086   0.08501   0.00000  Uiso   1.00
H359   H     0.75756   0.41620   0.10779   0.00000  Uiso   1.00
O360   O     0.34027   0.12938   0.91305   0.00000  Uiso   1.00
O361   O     0.20422   0.74354   0.17006   0.00000  Uiso   1.00
O362   O     0.84512   0.37007   0.19996   0.00000  Uiso   1.00
N363   N     0.37388   0.19208   0.00123   0.00000  Uiso   1.00
N364   N     0.27691   0.62974   0.18438   0.00000  Uiso   1.00
N365   N     0.73361   0.36363   0.20569   0.00000  Uiso   1.00
N366   N     0.37739   0.23041   0.92907   0.00000  Uiso   1.00
N367   N     0.28042   0.66807   0.11222   0.00000  Uiso   1.00
N368   N     0.73711   0.40196   0.13353   0.00000  Uiso   1.00
C369   C     0.74176   0.38814   0.57185   0.00000  Uiso   1.00
C370   C     0.79924   0.41754   0.56609   0.00000  Uiso   1.00
C371   C     0.83271   0.39791   0.52155   0.00000  Uiso   1.00
C372   C     0.88387   0.43098   0.52414   0.00000  Uiso   1.00
C373   C     0.97050   0.46891   0.50827   0.00000  Uiso   1.00
C374   C     0.67599   0.45182   0.58034   0.00000  Uiso   1.00
C375   C     0.60582   0.46100   0.54778   0.00000  Uiso   1.00
C376   C     0.55323   0.52293   0.56237   0.00000  Uiso   1.00
C377   C     0.44850   0.61406   0.56864   0.00000  Uiso   1.00
C378   C     0.77154   0.35924   0.62654   0.00000  Uiso   1.00
C379   C     0.78170   0.29060   0.63284   0.00000  Uiso   1.00
C380   C     0.80954   0.27458   0.68634   0.00000  Uiso   1.00
C381   C     0.85317   0.22198   0.76435   0.00000  Uiso   1.00
C382   C     0.77312   0.48178   0.65566   0.00000  Uiso   1.00
C383   C     0.81627   0.46840   0.61162   0.00000  Uiso   1.00
C384   C     0.86740   0.50150   0.61428   0.00000  Uiso   1.00
C385   C     0.90094   0.48192   0.56975   0.00000  Uiso   1.00
C386   C     0.69302   0.50268   0.62586   0.00000  Uiso   1.00
C387   C     0.64052   0.56460   0.64051   0.00000  Uiso   1.00
C388   C     0.57029   0.57388   0.60798   0.00000  Uiso   1.00
C389   C     0.78857   0.41010   0.67207   0.00000  Uiso   1.00
C390   C     0.81640   0.39419   0.72557   0.00000  Uiso   1.00
C391   C     0.82660   0.32553   0.73194   0.00000  Uiso   1.00
H392   H     0.72850   0.34855   0.53641   0.00000  Uiso   1.00
H393   H     0.81951   0.35855   0.48632   0.00000  Uiso   1.00
H394   H     0.59266   0.42163   0.51256   0.00000  Uiso   1.00
H395   H     0.76852   0.25125   0.59760   0.00000  Uiso   1.00
H396   H     0.92790   0.39209   0.45087   0.00000  Uiso   1.00
H397   H     0.44957   0.52509   0.50619   0.00000  Uiso   1.00
H398   H     0.82040   0.16581   0.68553   0.00000  Uiso   1.00
H399   H     0.78638   0.52137   0.69110   0.00000  Uiso   1.00
H400   H     0.88057   0.54086   0.64951   0.00000  Uiso   1.00
H401   H     0.65372   0.60394   0.67574   0.00000  Uiso   1.00
H402   H     0.82957   0.43356   0.76079   0.00000  Uiso   1.00
H403   H     0.97745   0.54006   0.58332   0.00000  Uiso   1.00
H404   H     0.49913   0.67306   0.63863   0.00000  Uiso   1.00
H405   H     0.86995   0.31378   0.81797   0.00000  Uiso   1.00
O406   O     0.01357   0.47579   0.48693   0.00000  Uiso   1.00
O407   O     0.38603   0.65028   0.55951   0.00000  Uiso   1.00
O408   O     0.87254   0.17891   0.79480   0.00000  Uiso   1.00
N409   N     0.92664   0.42423   0.48775   0.00000  Uiso   1.00
N410   N     0.47944   0.54858   0.53947   0.00000  Uiso   1.00
N411   N     0.82611   0.21269   0.70714   0.00000  Uiso   1.00
N412   N     0.95331   0.50385   0.55902   0.00000  Uiso   1.00
N413   N     0.50611   0.62820   0.61074   0.00000  Uiso   1.00
N414   N     0.85278   0.29231   0.77840   0.00000  Uiso   1.00
C415   C     0.84981   0.77996   0.75357   0.00000  Uiso   1.00
C416   C     0.87250   0.76141   0.69819   0.00000  Uiso   1.00
C417   C     0.93213   0.70680   0.68461   0.00000  Uiso   1.00
C418   C     0.94364   0.69850   0.63180   0.00000  Uiso   1.00
C419   C     0.98596   0.66291   0.55157   0.00000  Uiso   1.00
C420   C     0.84691   0.85728   0.77516   0.00000  Uiso   1.00
C421   C     0.88502   0.88328   0.82630   0.00000  Uiso   1.00
C422   C     0.87497   0.95569   0.83828   0.00000  Uiso   1.00
C423   C     0.87752   0.06895   0.87756   0.00000  Uiso   1.00
C424   C     0.77137   0.77765   0.73965   0.00000  Uiso   1.00
C425   C     0.74595   0.73671   0.76095   0.00000  Uiso   1.00
C426   C     0.67229   0.74209   0.74306   0.00000  Uiso   1.00
C427   C     0.55755   0.73170   0.72721   0.00000  Uiso   1.00
C428   C     0.76420   0.86234   0.68393   0.00000  Uiso   1.00
C429   C     0.82600   0.80615   0.66036   0.00000  Uiso   1.00
C430   C     0.83741   0.79794   0.60756   0.00000  Uiso   1.00
C431   C     0.89705   0.74332   0.59391   0.00000  Uiso   1.00
C432   C     0.80041   0.90203   0.73733   0.00000  Uiso   1.00
C433   C     0.79030   0.97442   0.74925   0.00000  Uiso   1.00
C434   C     0.82838   0.00052   0.80039   0.00000  Uiso   1.00
C435   C     0.72486   0.82239   0.70183   0.00000  Uiso   1.00
C436   C     0.65123   0.82784   0.68390   0.00000  Uiso   1.00
C437   C     0.62571   0.78691   0.70516   0.00000  Uiso   1.00
H438   H     0.88602   0.74513   0.78303   0.00000  Uiso   1.00
H439   H     0.96812   0.67219   0.71390   0.00000  Uiso   1.00
H440   H     0.92100   0.84864   0.85557   0.00000  Uiso   1.00
H441   H     0.78195   0.70209   0.79023   0.00000  Uiso   1.00
H442   H     0.03864   0.61106   0.62058   0.00000  Uiso   1.00
H443   H     0.93927   0.98313   0.91930   0.00000  Uiso   1.00
H444   H     0.64607   0.67409   0.78152   0.00000  Uiso   1.00
H445   H     0.72799   0.89718   0.65448   0.00000  Uiso   1.00
H446   H     0.80142   0.83257   0.57830   0.00000  Uiso   1.00
H447   H     0.75430   0.00903   0.71996   0.00000  Uiso   1.00
H448   H     0.61526   0.86247   0.65462   0.00000  Uiso   1.00
H449   H     0.90334   0.74124   0.51053   0.00000  Uiso   1.00
H450   H     0.80397   0.11331   0.80925   0.00000  Uiso   1.00
H451   H     0.51077   0.80427   0.67146   0.00000  Uiso   1.00
O452   O     0.02216   0.63092   0.51776   0.00000  Uiso   1.00
O453   O     0.89178   0.11906   0.90968   0.00000  Uiso   1.00
O454   O     0.50711   0.71361   0.72891   0.00000  Uiso   1.00
N455   N     0.99671   0.65055   0.60513   0.00000  Uiso   1.00
N456   N     0.90382   0.99842   0.88441   0.00000  Uiso   1.00
N457   N     0.62969   0.70951   0.75561   0.00000  Uiso   1.00
N458   N     0.92391   0.72060   0.54591   0.00000  Uiso   1.00
N459   N     0.83102   0.06846   0.82519   0.00000  Uiso   1.00
N460   N     0.55689   0.77955   0.69639   0.00000  Uiso   1.00
C461   C     0.79344   0.01194   0.05346   0.00000  Uiso   1.00
C462   C     0.72199   0.03907   0.07270   0.00000  Uiso   1.00
C463   C     0.65487   0.03362   0.04020   0.00000  Uiso   1.00
C464   C     0.59604   0.06177   0.06552   0.00000  Uiso   1.00
C465   C     0.48386   0.09900   0.08689   0.00000  Uiso   1.00
C466   C     0.82201   0.07553   0.06506   0.00000  Uiso   1.00
C467   C     0.83898   0.10073   0.02614   0.00000  Uiso   1.00
C468   C     0.86435   0.15957   0.04503   0.00000  Uiso   1.00
C469   C     0.90750   0.25338   0.05456   0.00000  Uiso   1.00
C470   C     0.84652   0.96212   0.09304   0.00000  Uiso   1.00
C471   C     0.88413   0.89196   0.07765   0.00000  Uiso   1.00
C472   C     0.93016   0.85532   0.12010   0.00000  Uiso   1.00
C473   C     0.01137   0.77303   0.17307   0.00000  Uiso   1.00
C474   C     0.80834   0.07162   0.15623   0.00000  Uiso   1.00
C475   C     0.73009   0.07149   0.12852   0.00000  Uiso   1.00
C476   C     0.67135   0.09965   0.15390   0.00000  Uiso   1.00
C477   C     0.60414   0.09425   0.12144   0.00000  Uiso   1.00
C478   C     0.83010   0.10795   0.12088   0.00000  Uiso   1.00
C479   C     0.85546   0.16677   0.13984   0.00000  Uiso   1.00
C480   C     0.87246   0.19205   0.10095   0.00000  Uiso   1.00
C481   C     0.85462   0.99453   0.14887   0.00000  Uiso   1.00
C482   C     0.90060   0.95800   0.19135   0.00000  Uiso   1.00
C483   C     0.93826   0.88780   0.17602   0.00000  Uiso   1.00
H484   H     0.78714   0.98670   0.01000   0.00000  Uiso   1.00
H485   H     0.64863   0.00853   0.99700   0.00000  Uiso   1.00
H486   H     0.83272   0.07563   0.98294   0.00000  Uiso   1.00
H487   H     0.87785   0.86689   0.03445   0.00000  Uiso   1.00
H488   H     0.49862   0.04706   0.00719   0.00000  Uiso   1.00
H489   H     0.88681   0.18852   0.97756   0.00000  Uiso   1.00
H490   H     0.98199   0.74835   0.08616   0.00000  Uiso   1.00
H491   H     0.81464   0.09686   0.19969   0.00000  Uiso   1.00
H492   H     0.67762   0.12474   0.19709   0.00000  Uiso   1.00
H493   H     0.86172   0.19184   0.18304   0.00000  Uiso   1.00
H494   H     0.90685   0.98310   0.23454   0.00000  Uiso   1.00
H495   H     0.52215   0.14138   0.16959   0.00000  Uiso   1.00
H496   H     0.91035   0.28284   0.13996   0.00000  Uiso   1.00
H497   H     0.00552   0.84268   0.24857   0.00000  Uiso   1.00
O498   O     0.41975   0.11059   0.08326   0.00000  Uiso   1.00
O499   O     0.92906   0.29617   0.04439   0.00000  Uiso   1.00
O500   O     0.05392   0.71869   0.18687   0.00000  Uiso   1.00
N501   N     0.52296   0.06542   0.04577   0.00000  Uiso   1.00
N502   N     0.88589   0.19768   0.01807   0.00000  Uiso   1.00
N503   N     0.97488   0.78617   0.11960   0.00000  Uiso   1.00
N504   N     0.53563   0.11617   0.13316   0.00000  Uiso   1.00
N505   N     0.89855   0.24844   0.10546   0.00000  Uiso   1.00
N506   N     0.98755   0.83692   0.20699   0.00000  Uiso   1.00
C507   C     0.28673   0.88503   0.08098   0.00000  Uiso   1.00
C508   C     0.36345   0.87151   0.11773   0.00000  Uiso   1.00
C509   C     0.38138   0.87258   0.17476   0.00000  Uiso   1.00
C510   C     0.45470   0.85889   0.20079   0.00000  Uiso   1.00
C511   C     0.56570   0.84010   0.26241   0.00000  Uiso   1.00
C512   C     0.27614   0.94566   0.05147   0.00000  Uiso   1.00
C513   C     0.22066   0.00907   0.05279   0.00000  Uiso   1.00
C514   C     0.22048   0.05778   0.02304   0.00000  Uiso   1.00
C515   C     0.19591   0.15409   0.98175   0.00000  Uiso   1.00
C516   C     0.28797   0.81994   0.03594   0.00000  Uiso   1.00
C517   C     0.24242   0.77766   0.02419   0.00000  Uiso   1.00
C518   C     0.25219   0.72054   0.98135   0.00000  Uiso   1.00
C519   C     0.24598   0.62165   0.91595   0.00000  Uiso   1.00
C520   C     0.38505   0.85879   0.02579   0.00000  Uiso   1.00
C521   C     0.41685   0.85726   0.08774   0.00000  Uiso   1.00
C522   C     0.49017   0.84355   0.11370   0.00000  Uiso   1.00
C523   C     0.50821   0.84461   0.17076   0.00000  Uiso   1.00
C524   C     0.32954   0.93141   0.02149   0.00000  Uiso   1.00
C525   C     0.32944   0.98004   0.99172   0.00000  Uiso   1.00
C526   C     0.27398   0.04351   0.99301   0.00000  Uiso   1.00
C527   C     0.34138   0.80569   0.00596   0.00000  Uiso   1.00
C528   C     0.35121   0.74863   0.96312   0.00000  Uiso   1.00
C529   C     0.30569   0.70626   0.95131   0.00000  Uiso   1.00
H530   H     0.24515   0.89613   0.10432   0.00000  Uiso   1.00
H531   H     0.34004   0.88362   0.19795   0.00000  Uiso   1.00
H532   H     0.17934   0.02008   0.07599   0.00000  Uiso   1.00
H533   H     0.20110   0.78870   0.04739   0.00000  Uiso   1.00
H534   H     0.46879   0.86350   0.28853   0.00000  Uiso   1.00
H535   H     0.12993   0.15122   0.03136   0.00000  Uiso   1.00
H536   H     0.17582   0.66332   0.97106   0.00000  Uiso   1.00
H537   H     0.42663   0.84770   0.00245   0.00000  Uiso   1.00
H538   H     0.53148   0.83253   0.09049   0.00000  Uiso   1.00
H539   H     0.37078   0.96899   0.96853   0.00000  Uiso   1.00
H540   H     0.39255   0.73761   0.93993   0.00000  Uiso   1.00
H541   H     0.62417   0.82203   0.20131   0.00000  Uiso   1.00
H542   H     0.28531   0.10975   0.94414   0.00000  Uiso   1.00
H543   H     0.33121   0.62185   0.88384   0.00000  Uiso   1.00
O544   O     0.61218   0.83368   0.30468   0.00000  Uiso   1.00
O545   O     0.16760   0.21116   0.96727   0.00000  Uiso   1.00
O546   O     0.22781   0.57104   0.88816   0.00000  Uiso   1.00
N547   N     0.49097   0.85581   0.25592   0.00000  Uiso   1.00
N548   N     0.17416   0.12481   0.01549   0.00000  Uiso   1.00
N549   N     0.21706   0.66868   0.95910   0.00000  Uiso   1.00
N550   N     0.57458   0.83349   0.20899   0.00000  Uiso   1.00
N551   N     0.25777   0.10250   0.96856   0.00000  Uiso   1.00
N552   N     0.30067   0.64636   0.91217   0.00000  Uiso   1.00
