data_job_00709
_audit_creation_date              2018-12-19
_audit_creation_method            'Materials Studio'
_symmetry_space_group_name_H-M    'P1'
_symmetry_Int_Tables_number       1
_symmetry_cell_setting            triclinic
loop_
_symmetry_equiv_pos_as_xyz
  x,y,z
_cell_length_a                    44.3620
_cell_length_b                    12.2885
_cell_length_c                    13.2789
_cell_angle_alpha                 90.0000
_cell_angle_beta                  102.5920
_cell_angle_gamma                 90.0000
loop_
_atom_site_label
_atom_site_type_symbol
_atom_site_fract_x
_atom_site_fract_y
_atom_site_fract_z
_atom_site_U_iso_or_equiv
_atom_site_adp_type
_atom_site_occupancy
C1     C     0.84615   0.91298   0.89677   0.00000  Uiso   1.00
C2     C     0.82605   0.98687   0.81720   0.00000  Uiso   1.00
C3     C     0.81030   0.07847   0.83888   0.00000  Uiso   1.00
C4     C     0.79316   0.13513   0.75528   0.00000  Uiso   1.00
C5     C     0.76213   0.25497   0.64718   0.00000  Uiso   1.00
C6     C     0.83292   0.79868   0.87541   0.00000  Uiso   1.00
C7     C     0.82296   0.73206   0.94604   0.00000  Uiso   1.00
C8     C     0.81160   0.63030   0.91144   0.00000  Uiso   1.00
C9     C     0.79126   0.45795   0.89373   0.00000  Uiso   1.00
C10    C     0.87781   0.91072   0.86954   0.00000  Uiso   1.00
C11    C     0.90559   0.93827   0.93525   0.00000  Uiso   1.00
C12    C     0.93203   0.93082   0.89573   0.00000  Uiso   1.00
C13    C     0.98139   0.93242   0.86891   0.00000  Uiso   1.00
C14    C     0.84371   0.85071   0.70975   0.00000  Uiso   1.00
C15    C     0.82472   0.95304   0.71561   0.00000  Uiso   1.00
C16    C     0.80759   0.00958   0.63196   0.00000  Uiso   1.00
C17    C     0.79182   0.10126   0.65351   0.00000  Uiso   1.00
C18    C     0.83159   0.76486   0.77383   0.00000  Uiso   1.00
C19    C     0.82025   0.66317   0.73912   0.00000  Uiso   1.00
C20    C     0.81026   0.59642   0.80967   0.00000  Uiso   1.00
C21    C     0.87648   0.87690   0.76796   0.00000  Uiso   1.00
C22    C     0.90288   0.86939   0.72833   0.00000  Uiso   1.00
C23    C     0.93070   0.89693   0.79396   0.00000  Uiso   1.00
H24    H     0.84719   0.93931   0.97586   0.00000  Uiso   1.00
H25    H     0.81133   0.10462   0.91751   0.00000  Uiso   1.00
H26    H     0.82399   0.75826   0.02465   0.00000  Uiso   1.00
H27    H     0.90661   0.96444   0.01386   0.00000  Uiso   1.00
H28    H     0.77099   0.27295   0.80801   0.00000  Uiso   1.00
H29    H     0.79768   0.54262   0.03394   0.00000  Uiso   1.00
H30    H     0.97191   0.97740   0.01119   0.00000  Uiso   1.00
H31    H     0.84267   0.82437   0.63065   0.00000  Uiso   1.00
H32    H     0.80657   0.98338   0.55335   0.00000  Uiso   1.00
H33    H     0.81922   0.63702   0.66050   0.00000  Uiso   1.00
H34    H     0.90185   0.84321   0.64971   0.00000  Uiso   1.00
H35    H     0.76712   0.17455   0.51245   0.00000  Uiso   1.00
H36    H     0.79381   0.44421   0.73838   0.00000  Uiso   1.00
H37    H     0.96804   0.87900   0.71563   0.00000  Uiso   1.00
O38    O     0.74538   0.33040   0.61561   0.00000  Uiso   1.00
O39    O     0.78040   0.37223   0.91203   0.00000  Uiso   1.00
O40    O     0.00899   0.94266   0.88218   0.00000  Uiso   1.00
N41    N     0.77504   0.22798   0.74906   0.00000  Uiso   1.00
N42    N     0.79999   0.54517   0.96029   0.00000  Uiso   1.00
N43    N     0.96288   0.95163   0.93903   0.00000  Uiso   1.00
N44    N     0.77296   0.17504   0.59002   0.00000  Uiso   1.00
N45    N     0.79791   0.49223   0.80125   0.00000  Uiso   1.00
N46    N     0.96080   0.89868   0.77999   0.00000  Uiso   1.00
C47    C     0.34615   0.41298   0.89677   0.00000  Uiso   1.00
C48    C     0.32605   0.48687   0.81720   0.00000  Uiso   1.00
C49    C     0.31030   0.57847   0.83888   0.00000  Uiso   1.00
C50    C     0.29316   0.63513   0.75528   0.00000  Uiso   1.00
C51    C     0.26213   0.75497   0.64718   0.00000  Uiso   1.00
C52    C     0.33292   0.29868   0.87541   0.00000  Uiso   1.00
C53    C     0.32296   0.23206   0.94604   0.00000  Uiso   1.00
C54    C     0.31160   0.13030   0.91144   0.00000  Uiso   1.00
C55    C     0.29126   0.95795   0.89373   0.00000  Uiso   1.00
C56    C     0.37781   0.41072   0.86954   0.00000  Uiso   1.00
C57    C     0.40559   0.43827   0.93525   0.00000  Uiso   1.00
C58    C     0.43203   0.43082   0.89573   0.00000  Uiso   1.00
C59    C     0.48139   0.43242   0.86891   0.00000  Uiso   1.00
C60    C     0.34371   0.35071   0.70975   0.00000  Uiso   1.00
C61    C     0.32472   0.45304   0.71561   0.00000  Uiso   1.00
C62    C     0.30759   0.50958   0.63196   0.00000  Uiso   1.00
C63    C     0.29182   0.60126   0.65351   0.00000  Uiso   1.00
C64    C     0.33159   0.26486   0.77383   0.00000  Uiso   1.00
C65    C     0.32025   0.16317   0.73912   0.00000  Uiso   1.00
C66    C     0.31026   0.09642   0.80967   0.00000  Uiso   1.00
C67    C     0.37648   0.37690   0.76796   0.00000  Uiso   1.00
C68    C     0.40288   0.36939   0.72833   0.00000  Uiso   1.00
C69    C     0.43070   0.39693   0.79396   0.00000  Uiso   1.00
H70    H     0.34719   0.43931   0.97586   0.00000  Uiso   1.00
H71    H     0.31133   0.60462   0.91751   0.00000  Uiso   1.00
H72    H     0.32399   0.25826   0.02465   0.00000  Uiso   1.00
H73    H     0.40661   0.46444   0.01386   0.00000  Uiso   1.00
H74    H     0.27099   0.77295   0.80801   0.00000  Uiso   1.00
H75    H     0.29768   0.04262   0.03394   0.00000  Uiso   1.00
H76    H     0.47191   0.47740   0.01119   0.00000  Uiso   1.00
H77    H     0.34267   0.32437   0.63065   0.00000  Uiso   1.00
H78    H     0.30657   0.48338   0.55335   0.00000  Uiso   1.00
H79    H     0.31922   0.13702   0.66050   0.00000  Uiso   1.00
H80    H     0.40185   0.34321   0.64971   0.00000  Uiso   1.00
H81    H     0.26712   0.67455   0.51245   0.00000  Uiso   1.00
H82    H     0.29381   0.94421   0.73838   0.00000  Uiso   1.00
H83    H     0.46804   0.37900   0.71563   0.00000  Uiso   1.00
O84    O     0.24538   0.83040   0.61561   0.00000  Uiso   1.00
O85    O     0.28040   0.87223   0.91203   0.00000  Uiso   1.00
O86    O     0.50899   0.44266   0.88218   0.00000  Uiso   1.00
N87    N     0.27504   0.72798   0.74906   0.00000  Uiso   1.00
N88    N     0.29999   0.04517   0.96029   0.00000  Uiso   1.00
N89    N     0.46288   0.45163   0.93903   0.00000  Uiso   1.00
N90    N     0.27296   0.67504   0.59002   0.00000  Uiso   1.00
N91    N     0.29791   0.99223   0.80125   0.00000  Uiso   1.00
N92    N     0.46080   0.39868   0.77999   0.00000  Uiso   1.00
C93    C     0.15385   0.91298   0.60323   0.00000  Uiso   1.00
C94    C     0.17395   0.98687   0.68280   0.00000  Uiso   1.00
C95    C     0.18970   0.07847   0.66112   0.00000  Uiso   1.00
C96    C     0.20684   0.13513   0.74472   0.00000  Uiso   1.00
C97    C     0.23787   0.25497   0.85282   0.00000  Uiso   1.00
C98    C     0.16708   0.79868   0.62459   0.00000  Uiso   1.00
C99    C     0.17704   0.73206   0.55396   0.00000  Uiso   1.00
C100   C     0.18840   0.63030   0.58856   0.00000  Uiso   1.00
C101   C     0.20874   0.45795   0.60627   0.00000  Uiso   1.00
C102   C     0.12219   0.91072   0.63046   0.00000  Uiso   1.00
C103   C     0.09441   0.93827   0.56475   0.00000  Uiso   1.00
C104   C     0.06797   0.93082   0.60427   0.00000  Uiso   1.00
C105   C     0.01861   0.93242   0.63109   0.00000  Uiso   1.00
C106   C     0.15629   0.85071   0.79025   0.00000  Uiso   1.00
C107   C     0.17528   0.95304   0.78439   0.00000  Uiso   1.00
C108   C     0.19241   0.00958   0.86804   0.00000  Uiso   1.00
C109   C     0.20818   0.10126   0.84649   0.00000  Uiso   1.00
C110   C     0.16841   0.76486   0.72617   0.00000  Uiso   1.00
C111   C     0.17975   0.66317   0.76088   0.00000  Uiso   1.00
C112   C     0.18974   0.59642   0.69033   0.00000  Uiso   1.00
C113   C     0.12352   0.87690   0.73204   0.00000  Uiso   1.00
C114   C     0.09712   0.86939   0.77167   0.00000  Uiso   1.00
C115   C     0.06930   0.89693   0.70604   0.00000  Uiso   1.00
H116   H     0.15281   0.93931   0.52414   0.00000  Uiso   1.00
H117   H     0.18867   0.10462   0.58249   0.00000  Uiso   1.00
H118   H     0.17601   0.75826   0.47535   0.00000  Uiso   1.00
H119   H     0.09339   0.96444   0.48614   0.00000  Uiso   1.00
H120   H     0.22901   0.27295   0.69199   0.00000  Uiso   1.00
H121   H     0.20232   0.54262   0.46606   0.00000  Uiso   1.00
H122   H     0.02809   0.97740   0.48881   0.00000  Uiso   1.00
H123   H     0.15733   0.82437   0.86935   0.00000  Uiso   1.00
H124   H     0.19343   0.98338   0.94665   0.00000  Uiso   1.00
H125   H     0.18078   0.63702   0.83950   0.00000  Uiso   1.00
H126   H     0.09815   0.84321   0.85029   0.00000  Uiso   1.00
H127   H     0.23288   0.17455   0.98755   0.00000  Uiso   1.00
H128   H     0.20619   0.44421   0.76162   0.00000  Uiso   1.00
H129   H     0.03196   0.87900   0.78437   0.00000  Uiso   1.00
O130   O     0.25462   0.33040   0.88439   0.00000  Uiso   1.00
O131   O     0.21960   0.37223   0.58797   0.00000  Uiso   1.00
O132   O     0.99101   0.94266   0.61782   0.00000  Uiso   1.00
N133   N     0.22496   0.22798   0.75094   0.00000  Uiso   1.00
N134   N     0.20001   0.54517   0.53971   0.00000  Uiso   1.00
N135   N     0.03712   0.95163   0.56097   0.00000  Uiso   1.00
N136   N     0.22704   0.17504   0.90998   0.00000  Uiso   1.00
N137   N     0.20209   0.49223   0.69875   0.00000  Uiso   1.00
N138   N     0.03920   0.89868   0.72001   0.00000  Uiso   1.00
C139   C     0.65385   0.41298   0.60323   0.00000  Uiso   1.00
C140   C     0.67395   0.48687   0.68280   0.00000  Uiso   1.00
C141   C     0.68970   0.57847   0.66112   0.00000  Uiso   1.00
C142   C     0.70684   0.63513   0.74472   0.00000  Uiso   1.00
C143   C     0.73787   0.75497   0.85282   0.00000  Uiso   1.00
C144   C     0.66708   0.29868   0.62459   0.00000  Uiso   1.00
C145   C     0.67704   0.23206   0.55396   0.00000  Uiso   1.00
C146   C     0.68840   0.13030   0.58856   0.00000  Uiso   1.00
C147   C     0.70874   0.95795   0.60627   0.00000  Uiso   1.00
C148   C     0.62219   0.41072   0.63046   0.00000  Uiso   1.00
C149   C     0.59441   0.43827   0.56475   0.00000  Uiso   1.00
C150   C     0.56797   0.43082   0.60427   0.00000  Uiso   1.00
C151   C     0.51861   0.43242   0.63109   0.00000  Uiso   1.00
C152   C     0.65629   0.35071   0.79025   0.00000  Uiso   1.00
C153   C     0.67528   0.45304   0.78439   0.00000  Uiso   1.00
C154   C     0.69241   0.50958   0.86804   0.00000  Uiso   1.00
C155   C     0.70818   0.60126   0.84649   0.00000  Uiso   1.00
C156   C     0.66841   0.26486   0.72617   0.00000  Uiso   1.00
C157   C     0.67975   0.16317   0.76088   0.00000  Uiso   1.00
C158   C     0.68974   0.09642   0.69033   0.00000  Uiso   1.00
C159   C     0.62352   0.37690   0.73204   0.00000  Uiso   1.00
C160   C     0.59712   0.36939   0.77167   0.00000  Uiso   1.00
C161   C     0.56930   0.39693   0.70604   0.00000  Uiso   1.00
H162   H     0.65281   0.43931   0.52414   0.00000  Uiso   1.00
H163   H     0.68867   0.60462   0.58249   0.00000  Uiso   1.00
H164   H     0.67601   0.25826   0.47535   0.00000  Uiso   1.00
H165   H     0.59339   0.46444   0.48614   0.00000  Uiso   1.00
H166   H     0.72901   0.77295   0.69199   0.00000  Uiso   1.00
H167   H     0.70232   0.04262   0.46606   0.00000  Uiso   1.00
H168   H     0.52809   0.47740   0.48881   0.00000  Uiso   1.00
H169   H     0.65733   0.32437   0.86935   0.00000  Uiso   1.00
H170   H     0.69343   0.48338   0.94665   0.00000  Uiso   1.00
H171   H     0.68078   0.13702   0.83950   0.00000  Uiso   1.00
H172   H     0.59815   0.34321   0.85029   0.00000  Uiso   1.00
H173   H     0.73288   0.67455   0.98755   0.00000  Uiso   1.00
H174   H     0.70619   0.94421   0.76162   0.00000  Uiso   1.00
H175   H     0.53196   0.37900   0.78437   0.00000  Uiso   1.00
O176   O     0.75462   0.83040   0.88439   0.00000  Uiso   1.00
O177   O     0.71960   0.87223   0.58797   0.00000  Uiso   1.00
O178   O     0.49101   0.44266   0.61782   0.00000  Uiso   1.00
N179   N     0.72496   0.72798   0.75094   0.00000  Uiso   1.00
N180   N     0.70001   0.04517   0.53971   0.00000  Uiso   1.00
N181   N     0.53712   0.45163   0.56097   0.00000  Uiso   1.00
N182   N     0.72704   0.67504   0.90998   0.00000  Uiso   1.00
N183   N     0.70209   0.99223   0.69875   0.00000  Uiso   1.00
N184   N     0.53920   0.39868   0.72001   0.00000  Uiso   1.00
C185   C     0.15385   0.08702   0.10323   0.00000  Uiso   1.00
C186   C     0.17395   0.01313   0.18280   0.00000  Uiso   1.00
C187   C     0.18970   0.92153   0.16112   0.00000  Uiso   1.00
C188   C     0.20684   0.86487   0.24472   0.00000  Uiso   1.00
C189   C     0.23787   0.74503   0.35282   0.00000  Uiso   1.00
C190   C     0.16708   0.20132   0.12459   0.00000  Uiso   1.00
C191   C     0.17704   0.26794   0.05396   0.00000  Uiso   1.00
C192   C     0.18840   0.36970   0.08856   0.00000  Uiso   1.00
C193   C     0.20874   0.54205   0.10627   0.00000  Uiso   1.00
C194   C     0.12219   0.08928   0.13046   0.00000  Uiso   1.00
C195   C     0.09441   0.06173   0.06475   0.00000  Uiso   1.00
C196   C     0.06797   0.06918   0.10427   0.00000  Uiso   1.00
C197   C     0.01861   0.06758   0.13109   0.00000  Uiso   1.00
C198   C     0.15629   0.14929   0.29025   0.00000  Uiso   1.00
C199   C     0.17528   0.04696   0.28439   0.00000  Uiso   1.00
C200   C     0.19241   0.99042   0.36804   0.00000  Uiso   1.00
C201   C     0.20818   0.89874   0.34649   0.00000  Uiso   1.00
C202   C     0.16841   0.23514   0.22617   0.00000  Uiso   1.00
C203   C     0.17975   0.33683   0.26088   0.00000  Uiso   1.00
C204   C     0.18974   0.40358   0.19033   0.00000  Uiso   1.00
C205   C     0.12352   0.12310   0.23204   0.00000  Uiso   1.00
C206   C     0.09712   0.13061   0.27167   0.00000  Uiso   1.00
C207   C     0.06930   0.10307   0.20604   0.00000  Uiso   1.00
H208   H     0.15281   0.06069   0.02414   0.00000  Uiso   1.00
H209   H     0.18867   0.89538   0.08249   0.00000  Uiso   1.00
H210   H     0.17601   0.24174   0.97535   0.00000  Uiso   1.00
H211   H     0.09339   0.03556   0.98614   0.00000  Uiso   1.00
H212   H     0.22901   0.72705   0.19199   0.00000  Uiso   1.00
H213   H     0.20232   0.45738   0.96606   0.00000  Uiso   1.00
H214   H     0.02809   0.02260   0.98881   0.00000  Uiso   1.00
H215   H     0.15733   0.17563   0.36935   0.00000  Uiso   1.00
H216   H     0.19343   0.01662   0.44665   0.00000  Uiso   1.00
H217   H     0.18078   0.36298   0.33950   0.00000  Uiso   1.00
H218   H     0.09815   0.15679   0.35029   0.00000  Uiso   1.00
H219   H     0.23288   0.82545   0.48755   0.00000  Uiso   1.00
H220   H     0.20619   0.55579   0.26162   0.00000  Uiso   1.00
H221   H     0.03196   0.12100   0.28437   0.00000  Uiso   1.00
O222   O     0.25462   0.66960   0.38439   0.00000  Uiso   1.00
O223   O     0.21960   0.62777   0.08797   0.00000  Uiso   1.00
O224   O     0.99101   0.05734   0.11782   0.00000  Uiso   1.00
N225   N     0.22496   0.77202   0.25094   0.00000  Uiso   1.00
N226   N     0.20001   0.45483   0.03971   0.00000  Uiso   1.00
N227   N     0.03712   0.04837   0.06097   0.00000  Uiso   1.00
N228   N     0.22704   0.82496   0.40998   0.00000  Uiso   1.00
N229   N     0.20209   0.50777   0.19875   0.00000  Uiso   1.00
N230   N     0.03920   0.10132   0.22001   0.00000  Uiso   1.00
C231   C     0.65385   0.58702   0.10323   0.00000  Uiso   1.00
C232   C     0.67395   0.51313   0.18280   0.00000  Uiso   1.00
C233   C     0.68970   0.42153   0.16112   0.00000  Uiso   1.00
C234   C     0.70684   0.36487   0.24472   0.00000  Uiso   1.00
C235   C     0.73787   0.24503   0.35282   0.00000  Uiso   1.00
C236   C     0.66708   0.70132   0.12459   0.00000  Uiso   1.00
C237   C     0.67704   0.76794   0.05396   0.00000  Uiso   1.00
C238   C     0.68840   0.86970   0.08856   0.00000  Uiso   1.00
C239   C     0.70874   0.04205   0.10627   0.00000  Uiso   1.00
C240   C     0.62219   0.58928   0.13046   0.00000  Uiso   1.00
C241   C     0.59441   0.56173   0.06475   0.00000  Uiso   1.00
C242   C     0.56797   0.56918   0.10427   0.00000  Uiso   1.00
C243   C     0.51861   0.56758   0.13109   0.00000  Uiso   1.00
C244   C     0.65629   0.64929   0.29025   0.00000  Uiso   1.00
C245   C     0.67528   0.54696   0.28439   0.00000  Uiso   1.00
C246   C     0.69241   0.49042   0.36804   0.00000  Uiso   1.00
C247   C     0.70818   0.39874   0.34649   0.00000  Uiso   1.00
C248   C     0.66841   0.73514   0.22617   0.00000  Uiso   1.00
C249   C     0.67975   0.83683   0.26088   0.00000  Uiso   1.00
C250   C     0.68974   0.90358   0.19033   0.00000  Uiso   1.00
C251   C     0.62352   0.62310   0.23204   0.00000  Uiso   1.00
C252   C     0.59712   0.63061   0.27167   0.00000  Uiso   1.00
C253   C     0.56930   0.60307   0.20604   0.00000  Uiso   1.00
H254   H     0.65281   0.56069   0.02414   0.00000  Uiso   1.00
H255   H     0.68867   0.39538   0.08249   0.00000  Uiso   1.00
H256   H     0.67601   0.74174   0.97535   0.00000  Uiso   1.00
H257   H     0.59339   0.53556   0.98614   0.00000  Uiso   1.00
H258   H     0.72901   0.22705   0.19199   0.00000  Uiso   1.00
H259   H     0.70232   0.95738   0.96606   0.00000  Uiso   1.00
H260   H     0.52809   0.52260   0.98881   0.00000  Uiso   1.00
H261   H     0.65733   0.67563   0.36935   0.00000  Uiso   1.00
H262   H     0.69343   0.51662   0.44665   0.00000  Uiso   1.00
H263   H     0.68078   0.86298   0.33950   0.00000  Uiso   1.00
H264   H     0.59815   0.65679   0.35029   0.00000  Uiso   1.00
H265   H     0.73288   0.32545   0.48755   0.00000  Uiso   1.00
H266   H     0.70619   0.05579   0.26162   0.00000  Uiso   1.00
H267   H     0.53196   0.62100   0.28437   0.00000  Uiso   1.00
O268   O     0.75462   0.16960   0.38439   0.00000  Uiso   1.00
O269   O     0.71960   0.12777   0.08797   0.00000  Uiso   1.00
O270   O     0.49101   0.55734   0.11782   0.00000  Uiso   1.00
N271   N     0.72496   0.27202   0.25094   0.00000  Uiso   1.00
N272   N     0.70001   0.95483   0.03971   0.00000  Uiso   1.00
N273   N     0.53712   0.54837   0.06097   0.00000  Uiso   1.00
N274   N     0.72704   0.32496   0.40998   0.00000  Uiso   1.00
N275   N     0.70209   0.00777   0.19875   0.00000  Uiso   1.00
N276   N     0.53920   0.60132   0.22001   0.00000  Uiso   1.00
C277   C     0.84615   0.08702   0.39677   0.00000  Uiso   1.00
C278   C     0.82605   0.01313   0.31720   0.00000  Uiso   1.00
C279   C     0.81030   0.92153   0.33888   0.00000  Uiso   1.00
C280   C     0.79316   0.86487   0.25528   0.00000  Uiso   1.00
C281   C     0.76213   0.74503   0.14718   0.00000  Uiso   1.00
C282   C     0.83292   0.20132   0.37541   0.00000  Uiso   1.00
C283   C     0.82296   0.26794   0.44604   0.00000  Uiso   1.00
C284   C     0.81160   0.36970   0.41144   0.00000  Uiso   1.00
C285   C     0.79126   0.54205   0.39373   0.00000  Uiso   1.00
C286   C     0.87781   0.08928   0.36954   0.00000  Uiso   1.00
C287   C     0.90559   0.06173   0.43525   0.00000  Uiso   1.00
C288   C     0.93203   0.06918   0.39573   0.00000  Uiso   1.00
C289   C     0.98139   0.06758   0.36891   0.00000  Uiso   1.00
C290   C     0.84371   0.14929   0.20975   0.00000  Uiso   1.00
C291   C     0.82472   0.04696   0.21561   0.00000  Uiso   1.00
C292   C     0.80759   0.99042   0.13196   0.00000  Uiso   1.00
C293   C     0.79182   0.89874   0.15351   0.00000  Uiso   1.00
C294   C     0.83159   0.23514   0.27383   0.00000  Uiso   1.00
C295   C     0.82025   0.33683   0.23912   0.00000  Uiso   1.00
C296   C     0.81026   0.40358   0.30967   0.00000  Uiso   1.00
C297   C     0.87648   0.12310   0.26796   0.00000  Uiso   1.00
C298   C     0.90288   0.13061   0.22833   0.00000  Uiso   1.00
C299   C     0.93070   0.10307   0.29396   0.00000  Uiso   1.00
H300   H     0.84719   0.06069   0.47586   0.00000  Uiso   1.00
H301   H     0.81133   0.89538   0.41751   0.00000  Uiso   1.00
H302   H     0.82399   0.24174   0.52465   0.00000  Uiso   1.00
H303   H     0.90661   0.03556   0.51386   0.00000  Uiso   1.00
H304   H     0.77099   0.72705   0.30801   0.00000  Uiso   1.00
H305   H     0.79768   0.45738   0.53394   0.00000  Uiso   1.00
H306   H     0.97191   0.02260   0.51119   0.00000  Uiso   1.00
H307   H     0.84267   0.17563   0.13065   0.00000  Uiso   1.00
H308   H     0.80657   0.01662   0.05335   0.00000  Uiso   1.00
H309   H     0.81922   0.36298   0.16050   0.00000  Uiso   1.00
H310   H     0.90185   0.15679   0.14971   0.00000  Uiso   1.00
H311   H     0.76712   0.82545   0.01245   0.00000  Uiso   1.00
H312   H     0.79381   0.55579   0.23838   0.00000  Uiso   1.00
H313   H     0.96804   0.12100   0.21563   0.00000  Uiso   1.00
O314   O     0.74538   0.66960   0.11561   0.00000  Uiso   1.00
O315   O     0.78040   0.62777   0.41203   0.00000  Uiso   1.00
O316   O     0.00899   0.05734   0.38218   0.00000  Uiso   1.00
N317   N     0.77504   0.77202   0.24906   0.00000  Uiso   1.00
N318   N     0.79999   0.45483   0.46029   0.00000  Uiso   1.00
N319   N     0.96288   0.04837   0.43903   0.00000  Uiso   1.00
N320   N     0.77296   0.82496   0.09002   0.00000  Uiso   1.00
N321   N     0.79791   0.50777   0.30125   0.00000  Uiso   1.00
N322   N     0.96080   0.10132   0.27999   0.00000  Uiso   1.00
C323   C     0.34615   0.58702   0.39677   0.00000  Uiso   1.00
C324   C     0.32605   0.51313   0.31720   0.00000  Uiso   1.00
C325   C     0.31030   0.42153   0.33888   0.00000  Uiso   1.00
C326   C     0.29316   0.36487   0.25528   0.00000  Uiso   1.00
C327   C     0.26213   0.24503   0.14718   0.00000  Uiso   1.00
C328   C     0.33292   0.70132   0.37541   0.00000  Uiso   1.00
C329   C     0.32296   0.76794   0.44604   0.00000  Uiso   1.00
C330   C     0.31160   0.86970   0.41144   0.00000  Uiso   1.00
C331   C     0.29126   0.04205   0.39373   0.00000  Uiso   1.00
C332   C     0.37781   0.58928   0.36954   0.00000  Uiso   1.00
C333   C     0.40559   0.56173   0.43525   0.00000  Uiso   1.00
C334   C     0.43203   0.56918   0.39573   0.00000  Uiso   1.00
C335   C     0.48139   0.56758   0.36891   0.00000  Uiso   1.00
C336   C     0.34371   0.64929   0.20975   0.00000  Uiso   1.00
C337   C     0.32472   0.54696   0.21561   0.00000  Uiso   1.00
C338   C     0.30759   0.49042   0.13196   0.00000  Uiso   1.00
C339   C     0.29182   0.39874   0.15351   0.00000  Uiso   1.00
C340   C     0.33159   0.73514   0.27383   0.00000  Uiso   1.00
C341   C     0.32025   0.83683   0.23912   0.00000  Uiso   1.00
C342   C     0.31026   0.90358   0.30967   0.00000  Uiso   1.00
C343   C     0.37648   0.62310   0.26796   0.00000  Uiso   1.00
C344   C     0.40288   0.63061   0.22833   0.00000  Uiso   1.00
C345   C     0.43070   0.60307   0.29396   0.00000  Uiso   1.00
H346   H     0.34719   0.56069   0.47586   0.00000  Uiso   1.00
H347   H     0.31133   0.39538   0.41751   0.00000  Uiso   1.00
H348   H     0.32399   0.74174   0.52465   0.00000  Uiso   1.00
H349   H     0.40661   0.53556   0.51386   0.00000  Uiso   1.00
H350   H     0.27099   0.22705   0.30801   0.00000  Uiso   1.00
H351   H     0.29768   0.95738   0.53394   0.00000  Uiso   1.00
H352   H     0.47191   0.52260   0.51119   0.00000  Uiso   1.00
H353   H     0.34267   0.67563   0.13065   0.00000  Uiso   1.00
H354   H     0.30657   0.51662   0.05335   0.00000  Uiso   1.00
H355   H     0.31922   0.86298   0.16050   0.00000  Uiso   1.00
H356   H     0.40185   0.65679   0.14971   0.00000  Uiso   1.00
H357   H     0.26712   0.32545   0.01245   0.00000  Uiso   1.00
H358   H     0.29381   0.05579   0.23838   0.00000  Uiso   1.00
H359   H     0.46804   0.62100   0.21563   0.00000  Uiso   1.00
O360   O     0.24538   0.16960   0.11561   0.00000  Uiso   1.00
O361   O     0.28040   0.12777   0.41203   0.00000  Uiso   1.00
O362   O     0.50899   0.55734   0.38218   0.00000  Uiso   1.00
N363   N     0.27504   0.27202   0.24906   0.00000  Uiso   1.00
N364   N     0.29999   0.95483   0.46029   0.00000  Uiso   1.00
N365   N     0.46288   0.54837   0.43903   0.00000  Uiso   1.00
N366   N     0.27296   0.32496   0.09002   0.00000  Uiso   1.00
N367   N     0.29791   0.00777   0.30125   0.00000  Uiso   1.00
N368   N     0.46080   0.60132   0.27999   0.00000  Uiso   1.00
