data_job_05375
_audit_creation_date              2018-12-19
_audit_creation_method            'Materials Studio'
_symmetry_space_group_name_H-M    'P1'
_symmetry_Int_Tables_number       1
_symmetry_cell_setting            triclinic
loop_
_symmetry_equiv_pos_as_xyz
  x,y,z
_cell_length_a                    26.2866
_cell_length_b                    14.6107
_cell_length_c                    12.1127
_cell_angle_alpha                 90.0000
_cell_angle_beta                  92.6801
_cell_angle_gamma                 90.0000
loop_
_atom_site_label
_atom_site_type_symbol
_atom_site_fract_x
_atom_site_fract_y
_atom_site_fract_z
_atom_site_U_iso_or_equiv
_atom_site_adp_type
_atom_site_occupancy
C1     C     0.11437   0.32778   0.01856   0.00000  Uiso   1.00
C2     C     0.14320   0.26572   0.10110   0.00000  Uiso   1.00
C3     C     0.18725   0.28870   0.16248   0.00000  Uiso   1.00
C4     C     0.20782   0.22235   0.23346   0.00000  Uiso   1.00
C5     C     0.25605   0.13907   0.36019   0.00000  Uiso   1.00
C6     C     0.11126   0.27563   0.90940   0.00000  Uiso   1.00
C7     C     0.12846   0.30696   0.80960   0.00000  Uiso   1.00
C8     C     0.12213   0.24896   0.71920   0.00000  Uiso   1.00
C9     C     0.12074   0.18111   0.54829   0.00000  Uiso   1.00
C10    C     0.06000   0.33324   0.05675   0.00000  Uiso   1.00
C11    C     0.03408   0.41301   0.08082   0.00000  Uiso   1.00
C12    C     0.98458   0.40351   0.11446   0.00000  Uiso   1.00
C13    C     0.90360   0.42511   0.17234   0.00000  Uiso   1.00
C14    C     0.07255   0.16909   0.03546   0.00000  Uiso   1.00
C15    C     0.12049   0.17952   0.11028   0.00000  Uiso   1.00
C16    C     0.14099   0.11312   0.18119   0.00000  Uiso   1.00
C17    C     0.18506   0.13599   0.24266   0.00000  Uiso   1.00
C18    C     0.08855   0.18944   0.91858   0.00000  Uiso   1.00
C19    C     0.08219   0.13138   0.82830   0.00000  Uiso   1.00
C20    C     0.09937   0.16261   0.72840   0.00000  Uiso   1.00
C21    C     0.03728   0.24705   0.06594   0.00000  Uiso   1.00
C22    C     0.98781   0.23743   0.09953   0.00000  Uiso   1.00
C23    C     0.96182   0.31716   0.12365   0.00000  Uiso   1.00
H24    H     0.13206   0.39489   0.01140   0.00000  Uiso   1.00
H25    H     0.20482   0.35541   0.15535   0.00000  Uiso   1.00
H26    H     0.14603   0.37367   0.80252   0.00000  Uiso   1.00
H27    H     0.05167   0.47970   0.07371   0.00000  Uiso   1.00
H28    H     0.27549   0.27361   0.31895   0.00000  Uiso   1.00
H29    H     0.15150   0.31213   0.57499   0.00000  Uiso   1.00
H30    H     0.95253   0.53572   0.14683   0.00000  Uiso   1.00
H31    H     0.05487   0.10198   0.04261   0.00000  Uiso   1.00
H32    H     0.12340   0.04642   0.18827   0.00000  Uiso   1.00
H33    H     0.06461   0.06468   0.83544   0.00000  Uiso   1.00
H34    H     0.97025   0.17071   0.10663   0.00000  Uiso   1.00
H35    H     0.20941   0.02282   0.34567   0.00000  Uiso   1.00
H36    H     0.08542   0.06135   0.60170   0.00000  Uiso   1.00
H37    H     0.88644   0.28493   0.17356   0.00000  Uiso   1.00
O38    O     0.28893   0.11694   0.42754   0.00000  Uiso   1.00
O39    O     0.12626   0.16750   0.45148   0.00000  Uiso   1.00
O40    O     0.86521   0.46083   0.20174   0.00000  Uiso   1.00
N41    N     0.25053   0.22222   0.30527   0.00000  Uiso   1.00
N42    N     0.13462   0.25823   0.60971   0.00000  Uiso   1.00
N43    N     0.94858   0.46726   0.14431   0.00000  Uiso   1.00
N44    N     0.21497   0.08727   0.31965   0.00000  Uiso   1.00
N45    N     0.09906   0.12328   0.62408   0.00000  Uiso   1.00
N46    N     0.91302   0.33232   0.15869   0.00000  Uiso   1.00
C47    C     0.61437   0.82778   0.01856   0.00000  Uiso   1.00
C48    C     0.64320   0.76572   0.10110   0.00000  Uiso   1.00
C49    C     0.68725   0.78870   0.16248   0.00000  Uiso   1.00
C50    C     0.70782   0.72235   0.23346   0.00000  Uiso   1.00
C51    C     0.75605   0.63907   0.36019   0.00000  Uiso   1.00
C52    C     0.61126   0.77563   0.90940   0.00000  Uiso   1.00
C53    C     0.62846   0.80696   0.80960   0.00000  Uiso   1.00
C54    C     0.62213   0.74896   0.71920   0.00000  Uiso   1.00
C55    C     0.62074   0.68111   0.54829   0.00000  Uiso   1.00
C56    C     0.56000   0.83324   0.05675   0.00000  Uiso   1.00
C57    C     0.53408   0.91301   0.08082   0.00000  Uiso   1.00
C58    C     0.48458   0.90351   0.11446   0.00000  Uiso   1.00
C59    C     0.40360   0.92511   0.17234   0.00000  Uiso   1.00
C60    C     0.57255   0.66909   0.03546   0.00000  Uiso   1.00
C61    C     0.62049   0.67952   0.11028   0.00000  Uiso   1.00
C62    C     0.64099   0.61312   0.18119   0.00000  Uiso   1.00
C63    C     0.68506   0.63599   0.24266   0.00000  Uiso   1.00
C64    C     0.58855   0.68944   0.91858   0.00000  Uiso   1.00
C65    C     0.58219   0.63138   0.82830   0.00000  Uiso   1.00
C66    C     0.59937   0.66261   0.72840   0.00000  Uiso   1.00
C67    C     0.53728   0.74705   0.06594   0.00000  Uiso   1.00
C68    C     0.48781   0.73743   0.09953   0.00000  Uiso   1.00
C69    C     0.46182   0.81716   0.12365   0.00000  Uiso   1.00
H70    H     0.63206   0.89489   0.01140   0.00000  Uiso   1.00
H71    H     0.70482   0.85541   0.15535   0.00000  Uiso   1.00
H72    H     0.64603   0.87367   0.80252   0.00000  Uiso   1.00
H73    H     0.55167   0.97970   0.07371   0.00000  Uiso   1.00
H74    H     0.77549   0.77361   0.31895   0.00000  Uiso   1.00
H75    H     0.65150   0.81213   0.57499   0.00000  Uiso   1.00
H76    H     0.45253   0.03572   0.14683   0.00000  Uiso   1.00
H77    H     0.55487   0.60198   0.04261   0.00000  Uiso   1.00
H78    H     0.62340   0.54642   0.18827   0.00000  Uiso   1.00
H79    H     0.56461   0.56468   0.83544   0.00000  Uiso   1.00
H80    H     0.47025   0.67071   0.10663   0.00000  Uiso   1.00
H81    H     0.70941   0.52282   0.34567   0.00000  Uiso   1.00
H82    H     0.58542   0.56135   0.60170   0.00000  Uiso   1.00
H83    H     0.38644   0.78493   0.17356   0.00000  Uiso   1.00
O84    O     0.78893   0.61694   0.42754   0.00000  Uiso   1.00
O85    O     0.62626   0.66750   0.45148   0.00000  Uiso   1.00
O86    O     0.36521   0.96083   0.20174   0.00000  Uiso   1.00
N87    N     0.75053   0.72222   0.30527   0.00000  Uiso   1.00
N88    N     0.63462   0.75823   0.60971   0.00000  Uiso   1.00
N89    N     0.44858   0.96726   0.14431   0.00000  Uiso   1.00
N90    N     0.71497   0.58727   0.31965   0.00000  Uiso   1.00
N91    N     0.59906   0.62328   0.62408   0.00000  Uiso   1.00
N92    N     0.41302   0.83232   0.15869   0.00000  Uiso   1.00
C93    C     0.88563   0.32778   0.48144   0.00000  Uiso   1.00
C94    C     0.85680   0.26572   0.39890   0.00000  Uiso   1.00
C95    C     0.81275   0.28870   0.33752   0.00000  Uiso   1.00
C96    C     0.79218   0.22235   0.26654   0.00000  Uiso   1.00
C97    C     0.74395   0.13907   0.13981   0.00000  Uiso   1.00
C98    C     0.88874   0.27563   0.59060   0.00000  Uiso   1.00
C99    C     0.87154   0.30696   0.69040   0.00000  Uiso   1.00
C100   C     0.87787   0.24896   0.78080   0.00000  Uiso   1.00
C101   C     0.87926   0.18111   0.95171   0.00000  Uiso   1.00
C102   C     0.94000   0.33324   0.44325   0.00000  Uiso   1.00
C103   C     0.96592   0.41301   0.41918   0.00000  Uiso   1.00
C104   C     0.01542   0.40351   0.38554   0.00000  Uiso   1.00
C105   C     0.09640   0.42511   0.32766   0.00000  Uiso   1.00
C106   C     0.92745   0.16909   0.46454   0.00000  Uiso   1.00
C107   C     0.87951   0.17952   0.38972   0.00000  Uiso   1.00
C108   C     0.85901   0.11312   0.31881   0.00000  Uiso   1.00
C109   C     0.81494   0.13599   0.25734   0.00000  Uiso   1.00
C110   C     0.91145   0.18944   0.58142   0.00000  Uiso   1.00
C111   C     0.91781   0.13138   0.67170   0.00000  Uiso   1.00
C112   C     0.90063   0.16261   0.77160   0.00000  Uiso   1.00
C113   C     0.96272   0.24705   0.43406   0.00000  Uiso   1.00
C114   C     0.01219   0.23743   0.40047   0.00000  Uiso   1.00
C115   C     0.03818   0.31716   0.37635   0.00000  Uiso   1.00
H116   H     0.86794   0.39489   0.48860   0.00000  Uiso   1.00
H117   H     0.79518   0.35541   0.34465   0.00000  Uiso   1.00
H118   H     0.85397   0.37367   0.69748   0.00000  Uiso   1.00
H119   H     0.94833   0.47970   0.42629   0.00000  Uiso   1.00
H120   H     0.72451   0.27361   0.18105   0.00000  Uiso   1.00
H121   H     0.84850   0.31213   0.92501   0.00000  Uiso   1.00
H122   H     0.04747   0.53572   0.35317   0.00000  Uiso   1.00
H123   H     0.94513   0.10198   0.45739   0.00000  Uiso   1.00
H124   H     0.87660   0.04642   0.31173   0.00000  Uiso   1.00
H125   H     0.93539   0.06468   0.66456   0.00000  Uiso   1.00
H126   H     0.02975   0.17071   0.39337   0.00000  Uiso   1.00
H127   H     0.79059   0.02282   0.15433   0.00000  Uiso   1.00
H128   H     0.91458   0.06135   0.89830   0.00000  Uiso   1.00
H129   H     0.11356   0.28493   0.32644   0.00000  Uiso   1.00
O130   O     0.71107   0.11694   0.07246   0.00000  Uiso   1.00
O131   O     0.87374   0.16750   0.04852   0.00000  Uiso   1.00
O132   O     0.13479   0.46083   0.29826   0.00000  Uiso   1.00
N133   N     0.74947   0.22222   0.19473   0.00000  Uiso   1.00
N134   N     0.86538   0.25823   0.89029   0.00000  Uiso   1.00
N135   N     0.05142   0.46726   0.35569   0.00000  Uiso   1.00
N136   N     0.78503   0.08727   0.18035   0.00000  Uiso   1.00
N137   N     0.90094   0.12328   0.87592   0.00000  Uiso   1.00
N138   N     0.08698   0.33232   0.34131   0.00000  Uiso   1.00
C139   C     0.38563   0.82778   0.48144   0.00000  Uiso   1.00
C140   C     0.35680   0.76572   0.39890   0.00000  Uiso   1.00
C141   C     0.31275   0.78870   0.33752   0.00000  Uiso   1.00
C142   C     0.29218   0.72235   0.26654   0.00000  Uiso   1.00
C143   C     0.24395   0.63907   0.13981   0.00000  Uiso   1.00
C144   C     0.38874   0.77563   0.59060   0.00000  Uiso   1.00
C145   C     0.37154   0.80696   0.69040   0.00000  Uiso   1.00
C146   C     0.37787   0.74896   0.78080   0.00000  Uiso   1.00
C147   C     0.37926   0.68111   0.95171   0.00000  Uiso   1.00
C148   C     0.44000   0.83324   0.44325   0.00000  Uiso   1.00
C149   C     0.46592   0.91301   0.41918   0.00000  Uiso   1.00
C150   C     0.51542   0.90351   0.38554   0.00000  Uiso   1.00
C151   C     0.59640   0.92511   0.32766   0.00000  Uiso   1.00
C152   C     0.42745   0.66909   0.46454   0.00000  Uiso   1.00
C153   C     0.37951   0.67952   0.38972   0.00000  Uiso   1.00
C154   C     0.35901   0.61312   0.31881   0.00000  Uiso   1.00
C155   C     0.31494   0.63599   0.25734   0.00000  Uiso   1.00
C156   C     0.41145   0.68944   0.58142   0.00000  Uiso   1.00
C157   C     0.41781   0.63138   0.67170   0.00000  Uiso   1.00
C158   C     0.40063   0.66261   0.77160   0.00000  Uiso   1.00
C159   C     0.46272   0.74705   0.43406   0.00000  Uiso   1.00
C160   C     0.51219   0.73743   0.40047   0.00000  Uiso   1.00
C161   C     0.53818   0.81716   0.37635   0.00000  Uiso   1.00
H162   H     0.36794   0.89489   0.48860   0.00000  Uiso   1.00
H163   H     0.29518   0.85541   0.34465   0.00000  Uiso   1.00
H164   H     0.35397   0.87367   0.69748   0.00000  Uiso   1.00
H165   H     0.44833   0.97970   0.42629   0.00000  Uiso   1.00
H166   H     0.22451   0.77361   0.18105   0.00000  Uiso   1.00
H167   H     0.34850   0.81213   0.92501   0.00000  Uiso   1.00
H168   H     0.54747   0.03572   0.35317   0.00000  Uiso   1.00
H169   H     0.44513   0.60198   0.45739   0.00000  Uiso   1.00
H170   H     0.37660   0.54642   0.31173   0.00000  Uiso   1.00
H171   H     0.43539   0.56468   0.66456   0.00000  Uiso   1.00
H172   H     0.52975   0.67071   0.39337   0.00000  Uiso   1.00
H173   H     0.29059   0.52282   0.15433   0.00000  Uiso   1.00
H174   H     0.41458   0.56135   0.89830   0.00000  Uiso   1.00
H175   H     0.61356   0.78493   0.32644   0.00000  Uiso   1.00
O176   O     0.21107   0.61694   0.07246   0.00000  Uiso   1.00
O177   O     0.37374   0.66750   0.04852   0.00000  Uiso   1.00
O178   O     0.63479   0.96083   0.29826   0.00000  Uiso   1.00
N179   N     0.24947   0.72222   0.19473   0.00000  Uiso   1.00
N180   N     0.36538   0.75823   0.89029   0.00000  Uiso   1.00
N181   N     0.55142   0.96726   0.35569   0.00000  Uiso   1.00
N182   N     0.28503   0.58727   0.18035   0.00000  Uiso   1.00
N183   N     0.40094   0.62328   0.87592   0.00000  Uiso   1.00
N184   N     0.58698   0.83232   0.34131   0.00000  Uiso   1.00
C185   C     0.88563   0.67222   0.98144   0.00000  Uiso   1.00
C186   C     0.85680   0.73428   0.89890   0.00000  Uiso   1.00
C187   C     0.81275   0.71130   0.83752   0.00000  Uiso   1.00
C188   C     0.79218   0.77765   0.76654   0.00000  Uiso   1.00
C189   C     0.74395   0.86093   0.63981   0.00000  Uiso   1.00
C190   C     0.88874   0.72437   0.09060   0.00000  Uiso   1.00
C191   C     0.87154   0.69304   0.19040   0.00000  Uiso   1.00
C192   C     0.87787   0.75104   0.28080   0.00000  Uiso   1.00
C193   C     0.87926   0.81889   0.45171   0.00000  Uiso   1.00
C194   C     0.94000   0.66676   0.94325   0.00000  Uiso   1.00
C195   C     0.96592   0.58699   0.91918   0.00000  Uiso   1.00
C196   C     0.01542   0.59649   0.88554   0.00000  Uiso   1.00
C197   C     0.09640   0.57489   0.82766   0.00000  Uiso   1.00
C198   C     0.92745   0.83091   0.96454   0.00000  Uiso   1.00
C199   C     0.87951   0.82048   0.88972   0.00000  Uiso   1.00
C200   C     0.85901   0.88688   0.81881   0.00000  Uiso   1.00
C201   C     0.81494   0.86401   0.75734   0.00000  Uiso   1.00
C202   C     0.91145   0.81056   0.08142   0.00000  Uiso   1.00
C203   C     0.91781   0.86862   0.17170   0.00000  Uiso   1.00
C204   C     0.90063   0.83739   0.27160   0.00000  Uiso   1.00
C205   C     0.96272   0.75295   0.93406   0.00000  Uiso   1.00
C206   C     0.01219   0.76257   0.90047   0.00000  Uiso   1.00
C207   C     0.03818   0.68284   0.87635   0.00000  Uiso   1.00
H208   H     0.86794   0.60511   0.98860   0.00000  Uiso   1.00
H209   H     0.79518   0.64459   0.84465   0.00000  Uiso   1.00
H210   H     0.85397   0.62633   0.19748   0.00000  Uiso   1.00
H211   H     0.94833   0.52030   0.92629   0.00000  Uiso   1.00
H212   H     0.72451   0.72639   0.68105   0.00000  Uiso   1.00
H213   H     0.84850   0.68787   0.42501   0.00000  Uiso   1.00
H214   H     0.04747   0.46428   0.85317   0.00000  Uiso   1.00
H215   H     0.94513   0.89802   0.95739   0.00000  Uiso   1.00
H216   H     0.87660   0.95358   0.81173   0.00000  Uiso   1.00
H217   H     0.93539   0.93532   0.16456   0.00000  Uiso   1.00
H218   H     0.02975   0.82929   0.89337   0.00000  Uiso   1.00
H219   H     0.79059   0.97718   0.65433   0.00000  Uiso   1.00
H220   H     0.91458   0.93865   0.39830   0.00000  Uiso   1.00
H221   H     0.11356   0.71507   0.82644   0.00000  Uiso   1.00
O222   O     0.71107   0.88306   0.57246   0.00000  Uiso   1.00
O223   O     0.87374   0.83250   0.54852   0.00000  Uiso   1.00
O224   O     0.13479   0.53917   0.79826   0.00000  Uiso   1.00
N225   N     0.74947   0.77778   0.69473   0.00000  Uiso   1.00
N226   N     0.86538   0.74177   0.39029   0.00000  Uiso   1.00
N227   N     0.05142   0.53274   0.85569   0.00000  Uiso   1.00
N228   N     0.78503   0.91273   0.68035   0.00000  Uiso   1.00
N229   N     0.90094   0.87672   0.37592   0.00000  Uiso   1.00
N230   N     0.08698   0.66768   0.84131   0.00000  Uiso   1.00
C231   C     0.38563   0.17222   0.98144   0.00000  Uiso   1.00
C232   C     0.35680   0.23428   0.89890   0.00000  Uiso   1.00
C233   C     0.31275   0.21130   0.83752   0.00000  Uiso   1.00
C234   C     0.29218   0.27765   0.76654   0.00000  Uiso   1.00
C235   C     0.24395   0.36093   0.63981   0.00000  Uiso   1.00
C236   C     0.38874   0.22437   0.09060   0.00000  Uiso   1.00
C237   C     0.37154   0.19304   0.19040   0.00000  Uiso   1.00
C238   C     0.37787   0.25104   0.28080   0.00000  Uiso   1.00
C239   C     0.37926   0.31889   0.45171   0.00000  Uiso   1.00
C240   C     0.44000   0.16676   0.94325   0.00000  Uiso   1.00
C241   C     0.46592   0.08699   0.91918   0.00000  Uiso   1.00
C242   C     0.51542   0.09649   0.88554   0.00000  Uiso   1.00
C243   C     0.59640   0.07489   0.82766   0.00000  Uiso   1.00
C244   C     0.42745   0.33091   0.96454   0.00000  Uiso   1.00
C245   C     0.37951   0.32048   0.88972   0.00000  Uiso   1.00
C246   C     0.35901   0.38688   0.81881   0.00000  Uiso   1.00
C247   C     0.31494   0.36401   0.75734   0.00000  Uiso   1.00
C248   C     0.41145   0.31056   0.08142   0.00000  Uiso   1.00
C249   C     0.41781   0.36862   0.17170   0.00000  Uiso   1.00
C250   C     0.40063   0.33739   0.27160   0.00000  Uiso   1.00
C251   C     0.46272   0.25295   0.93406   0.00000  Uiso   1.00
C252   C     0.51219   0.26257   0.90047   0.00000  Uiso   1.00
C253   C     0.53818   0.18284   0.87635   0.00000  Uiso   1.00
H254   H     0.36794   0.10511   0.98860   0.00000  Uiso   1.00
H255   H     0.29518   0.14459   0.84465   0.00000  Uiso   1.00
H256   H     0.35397   0.12633   0.19748   0.00000  Uiso   1.00
H257   H     0.44833   0.02030   0.92629   0.00000  Uiso   1.00
H258   H     0.22451   0.22639   0.68105   0.00000  Uiso   1.00
H259   H     0.34850   0.18787   0.42501   0.00000  Uiso   1.00
H260   H     0.54747   0.96428   0.85317   0.00000  Uiso   1.00
H261   H     0.44513   0.39802   0.95739   0.00000  Uiso   1.00
H262   H     0.37660   0.45358   0.81173   0.00000  Uiso   1.00
H263   H     0.43539   0.43532   0.16456   0.00000  Uiso   1.00
H264   H     0.52975   0.32929   0.89337   0.00000  Uiso   1.00
H265   H     0.29059   0.47718   0.65433   0.00000  Uiso   1.00
H266   H     0.41458   0.43865   0.39830   0.00000  Uiso   1.00
H267   H     0.61356   0.21507   0.82644   0.00000  Uiso   1.00
O268   O     0.21107   0.38306   0.57246   0.00000  Uiso   1.00
O269   O     0.37374   0.33250   0.54852   0.00000  Uiso   1.00
O270   O     0.63479   0.03917   0.79826   0.00000  Uiso   1.00
N271   N     0.24947   0.27778   0.69473   0.00000  Uiso   1.00
N272   N     0.36538   0.24177   0.39029   0.00000  Uiso   1.00
N273   N     0.55142   0.03274   0.85569   0.00000  Uiso   1.00
N274   N     0.28503   0.41273   0.68035   0.00000  Uiso   1.00
N275   N     0.40094   0.37672   0.37592   0.00000  Uiso   1.00
N276   N     0.58698   0.16768   0.84131   0.00000  Uiso   1.00
C277   C     0.11437   0.67222   0.51856   0.00000  Uiso   1.00
C278   C     0.14320   0.73428   0.60110   0.00000  Uiso   1.00
C279   C     0.18725   0.71130   0.66248   0.00000  Uiso   1.00
C280   C     0.20782   0.77765   0.73346   0.00000  Uiso   1.00
C281   C     0.25605   0.86093   0.86019   0.00000  Uiso   1.00
C282   C     0.11126   0.72437   0.40940   0.00000  Uiso   1.00
C283   C     0.12846   0.69304   0.30960   0.00000  Uiso   1.00
C284   C     0.12213   0.75104   0.21920   0.00000  Uiso   1.00
C285   C     0.12074   0.81889   0.04829   0.00000  Uiso   1.00
C286   C     0.06000   0.66676   0.55675   0.00000  Uiso   1.00
C287   C     0.03408   0.58699   0.58082   0.00000  Uiso   1.00
C288   C     0.98458   0.59649   0.61446   0.00000  Uiso   1.00
C289   C     0.90360   0.57489   0.67234   0.00000  Uiso   1.00
C290   C     0.07255   0.83091   0.53546   0.00000  Uiso   1.00
C291   C     0.12049   0.82048   0.61028   0.00000  Uiso   1.00
C292   C     0.14099   0.88688   0.68119   0.00000  Uiso   1.00
C293   C     0.18506   0.86401   0.74266   0.00000  Uiso   1.00
C294   C     0.08855   0.81056   0.41858   0.00000  Uiso   1.00
C295   C     0.08219   0.86862   0.32830   0.00000  Uiso   1.00
C296   C     0.09937   0.83739   0.22840   0.00000  Uiso   1.00
C297   C     0.03728   0.75295   0.56594   0.00000  Uiso   1.00
C298   C     0.98781   0.76257   0.59953   0.00000  Uiso   1.00
C299   C     0.96182   0.68284   0.62365   0.00000  Uiso   1.00
H300   H     0.13206   0.60511   0.51140   0.00000  Uiso   1.00
H301   H     0.20482   0.64459   0.65535   0.00000  Uiso   1.00
H302   H     0.14603   0.62633   0.30252   0.00000  Uiso   1.00
H303   H     0.05167   0.52030   0.57371   0.00000  Uiso   1.00
H304   H     0.27549   0.72639   0.81895   0.00000  Uiso   1.00
H305   H     0.15150   0.68787   0.07499   0.00000  Uiso   1.00
H306   H     0.95253   0.46428   0.64683   0.00000  Uiso   1.00
H307   H     0.05487   0.89802   0.54261   0.00000  Uiso   1.00
H308   H     0.12340   0.95358   0.68827   0.00000  Uiso   1.00
H309   H     0.06461   0.93532   0.33544   0.00000  Uiso   1.00
H310   H     0.97025   0.82929   0.60663   0.00000  Uiso   1.00
H311   H     0.20941   0.97718   0.84567   0.00000  Uiso   1.00
H312   H     0.08542   0.93865   0.10170   0.00000  Uiso   1.00
H313   H     0.88644   0.71507   0.67356   0.00000  Uiso   1.00
O314   O     0.28893   0.88306   0.92754   0.00000  Uiso   1.00
O315   O     0.12626   0.83250   0.95148   0.00000  Uiso   1.00
O316   O     0.86521   0.53917   0.70174   0.00000  Uiso   1.00
N317   N     0.25053   0.77778   0.80527   0.00000  Uiso   1.00
N318   N     0.13462   0.74177   0.10971   0.00000  Uiso   1.00
N319   N     0.94858   0.53274   0.64431   0.00000  Uiso   1.00
N320   N     0.21497   0.91273   0.81965   0.00000  Uiso   1.00
N321   N     0.09906   0.87672   0.12408   0.00000  Uiso   1.00
N322   N     0.91302   0.66768   0.65869   0.00000  Uiso   1.00
C323   C     0.61437   0.17222   0.51856   0.00000  Uiso   1.00
C324   C     0.64320   0.23428   0.60110   0.00000  Uiso   1.00
C325   C     0.68725   0.21130   0.66248   0.00000  Uiso   1.00
C326   C     0.70782   0.27765   0.73346   0.00000  Uiso   1.00
C327   C     0.75605   0.36093   0.86019   0.00000  Uiso   1.00
C328   C     0.61126   0.22437   0.40940   0.00000  Uiso   1.00
C329   C     0.62846   0.19304   0.30960   0.00000  Uiso   1.00
C330   C     0.62213   0.25104   0.21920   0.00000  Uiso   1.00
C331   C     0.62074   0.31889   0.04829   0.00000  Uiso   1.00
C332   C     0.56000   0.16676   0.55675   0.00000  Uiso   1.00
C333   C     0.53408   0.08699   0.58082   0.00000  Uiso   1.00
C334   C     0.48458   0.09649   0.61446   0.00000  Uiso   1.00
C335   C     0.40360   0.07489   0.67234   0.00000  Uiso   1.00
C336   C     0.57255   0.33091   0.53546   0.00000  Uiso   1.00
C337   C     0.62049   0.32048   0.61028   0.00000  Uiso   1.00
C338   C     0.64099   0.38688   0.68119   0.00000  Uiso   1.00
C339   C     0.68506   0.36401   0.74266   0.00000  Uiso   1.00
C340   C     0.58855   0.31056   0.41858   0.00000  Uiso   1.00
C341   C     0.58219   0.36862   0.32830   0.00000  Uiso   1.00
C342   C     0.59937   0.33739   0.22840   0.00000  Uiso   1.00
C343   C     0.53728   0.25295   0.56594   0.00000  Uiso   1.00
C344   C     0.48781   0.26257   0.59953   0.00000  Uiso   1.00
C345   C     0.46182   0.18284   0.62365   0.00000  Uiso   1.00
H346   H     0.63206   0.10511   0.51140   0.00000  Uiso   1.00
H347   H     0.70482   0.14459   0.65535   0.00000  Uiso   1.00
H348   H     0.64603   0.12633   0.30252   0.00000  Uiso   1.00
H349   H     0.55167   0.02030   0.57371   0.00000  Uiso   1.00
H350   H     0.77549   0.22639   0.81895   0.00000  Uiso   1.00
H351   H     0.65150   0.18787   0.07499   0.00000  Uiso   1.00
H352   H     0.45253   0.96428   0.64683   0.00000  Uiso   1.00
H353   H     0.55487   0.39802   0.54261   0.00000  Uiso   1.00
H354   H     0.62340   0.45358   0.68827   0.00000  Uiso   1.00
H355   H     0.56461   0.43532   0.33544   0.00000  Uiso   1.00
H356   H     0.47025   0.32929   0.60663   0.00000  Uiso   1.00
H357   H     0.70941   0.47718   0.84567   0.00000  Uiso   1.00
H358   H     0.58542   0.43865   0.10170   0.00000  Uiso   1.00
H359   H     0.38644   0.21507   0.67356   0.00000  Uiso   1.00
O360   O     0.78893   0.38306   0.92754   0.00000  Uiso   1.00
O361   O     0.62626   0.33250   0.95148   0.00000  Uiso   1.00
O362   O     0.36521   0.03917   0.70174   0.00000  Uiso   1.00
N363   N     0.75053   0.27778   0.80527   0.00000  Uiso   1.00
N364   N     0.63462   0.24177   0.10971   0.00000  Uiso   1.00
N365   N     0.44858   0.03274   0.64431   0.00000  Uiso   1.00
N366   N     0.71497   0.41273   0.81965   0.00000  Uiso   1.00
N367   N     0.59906   0.37672   0.12408   0.00000  Uiso   1.00
N368   N     0.41302   0.16768   0.65869   0.00000  Uiso   1.00
