data_job_07108
_audit_creation_date              2018-12-19
_audit_creation_method            'Materials Studio'
_symmetry_space_group_name_H-M    'P1'
_symmetry_Int_Tables_number       1
_symmetry_cell_setting            triclinic
loop_
_symmetry_equiv_pos_as_xyz
  x,y,z
_cell_length_a                    23.2194
_cell_length_b                    21.0072
_cell_length_c                    21.9317
_cell_angle_alpha                 89.1140
_cell_angle_beta                  84.1090
_cell_angle_gamma                 88.1163
loop_
_atom_site_label
_atom_site_type_symbol
_atom_site_fract_x
_atom_site_fract_y
_atom_site_fract_z
_atom_site_U_iso_or_equiv
_atom_site_adp_type
_atom_site_occupancy
C1     C     0.58021   0.37595   0.77523   0.00000  Uiso   1.00
C2     C     0.56585   0.44707   0.77022   0.00000  Uiso   1.00
C3     C     0.59965   0.49140   0.73691   0.00000  Uiso   1.00
C4     C     0.57896   0.55418   0.73816   0.00000  Uiso   1.00
C5     C     0.56467   0.66193   0.72532   0.00000  Uiso   1.00
C6     C     0.57963   0.36101   0.84355   0.00000  Uiso   1.00
C7     C     0.62501   0.33297   0.87190   0.00000  Uiso   1.00
C8     C     0.61592   0.32330   0.93488   0.00000  Uiso   1.00
C9     C     0.62301   0.29738   0.03589   0.00000  Uiso   1.00
C10    C     0.52880   0.34215   0.75403   0.00000  Uiso   1.00
C11    C     0.53144   0.29824   0.70712   0.00000  Uiso   1.00
C12    C     0.47956   0.27267   0.69473   0.00000  Uiso   1.00
C13    C     0.40773   0.21748   0.65675   0.00000  Uiso   1.00
C14    C     0.48337   0.40862   0.83667   0.00000  Uiso   1.00
C15    C     0.51325   0.46482   0.80359   0.00000  Uiso   1.00
C16    C     0.49251   0.52755   0.80488   0.00000  Uiso   1.00
C17    C     0.52627   0.57196   0.77158   0.00000  Uiso   1.00
C18    C     0.52703   0.37875   0.87692   0.00000  Uiso   1.00
C19    C     0.51787   0.36912   0.93987   0.00000  Uiso   1.00
C20    C     0.56322   0.34107   0.96831   0.00000  Uiso   1.00
C21    C     0.47620   0.35990   0.78740   0.00000  Uiso   1.00
C22    C     0.42430   0.33439   0.77509   0.00000  Uiso   1.00
C23    C     0.42686   0.29045   0.72816   0.00000  Uiso   1.00
H24    H     0.62116   0.36213   0.74926   0.00000  Uiso   1.00
H25    H     0.64035   0.47765   0.71110   0.00000  Uiso   1.00
H26    H     0.66571   0.31924   0.84606   0.00000  Uiso   1.00
H27    H     0.57215   0.28452   0.68131   0.00000  Uiso   1.00
H28    H     0.63844   0.61355   0.68353   0.00000  Uiso   1.00
H29    H     0.69190   0.27951   0.96811   0.00000  Uiso   1.00
H30    H     0.49462   0.20629   0.62068   0.00000  Uiso   1.00
H31    H     0.44242   0.42243   0.86265   0.00000  Uiso   1.00
H32    H     0.45180   0.54127   0.83071   0.00000  Uiso   1.00
H33    H     0.47716   0.38285   0.96568   0.00000  Uiso   1.00
H34    H     0.38361   0.34813   0.80092   0.00000  Uiso   1.00
H35    H     0.48541   0.66519   0.78061   0.00000  Uiso   1.00
H36    H     0.53886   0.33114   0.06519   0.00000  Uiso   1.00
H37    H     0.34159   0.25793   0.71777   0.00000  Uiso   1.00
O38    O     0.57133   0.71646   0.70903   0.00000  Uiso   1.00
O39    O     0.64146   0.27819   0.08238   0.00000  Uiso   1.00
O40    O     0.38264   0.18214   0.62657   0.00000  Uiso   1.00
N41    N     0.60113   0.60939   0.71075   0.00000  Uiso   1.00
N42    N     0.65111   0.29709   0.97682   0.00000  Uiso   1.00
N43    N     0.46668   0.22863   0.65201   0.00000  Uiso   1.00
N44    N     0.51878   0.63718   0.76299   0.00000  Uiso   1.00
N45    N     0.56877   0.32488   0.02906   0.00000  Uiso   1.00
N46    N     0.38433   0.25641   0.70425   0.00000  Uiso   1.00
C47    C     0.91392   0.65789   0.38290   0.00000  Uiso   1.00
C48    C     0.86694   0.63419   0.43079   0.00000  Uiso   1.00
C49    C     0.85702   0.65458   0.49094   0.00000  Uiso   1.00
C50    C     0.81193   0.62706   0.52753   0.00000  Uiso   1.00
C51    C     0.74415   0.59726   0.60536   0.00000  Uiso   1.00
C52    C     0.94934   0.59892   0.36029   0.00000  Uiso   1.00
C53    C     0.00871   0.58967   0.36116   0.00000  Uiso   1.00
C54    C     0.03298   0.53246   0.33839   0.00000  Uiso   1.00
C55    C     0.09313   0.44793   0.30672   0.00000  Uiso   1.00
C56    C     0.88269   0.68221   0.32886   0.00000  Uiso   1.00
C57    C     0.88603   0.74299   0.30329   0.00000  Uiso   1.00
C58    C     0.85420   0.75590   0.25405   0.00000  Uiso   1.00
C59    C     0.81088   0.80070   0.17358   0.00000  Uiso   1.00
C60    C     0.85146   0.57274   0.34090   0.00000  Uiso   1.00
C61    C     0.83301   0.58793   0.40797   0.00000  Uiso   1.00
C62    C     0.78792   0.56037   0.44447   0.00000  Uiso   1.00
C63    C     0.77794   0.58072   0.50467   0.00000  Uiso   1.00
C64    C     0.91541   0.55267   0.33747   0.00000  Uiso   1.00
C65    C     0.93960   0.49546   0.31469   0.00000  Uiso   1.00
C66    C     0.99899   0.48612   0.31553   0.00000  Uiso   1.00
C67    C     0.84876   0.63596   0.30604   0.00000  Uiso   1.00
C68    C     0.81693   0.64878   0.25682   0.00000  Uiso   1.00
C69    C     0.82022   0.70956   0.23119   0.00000  Uiso   1.00
H70    H     0.94034   0.69390   0.40066   0.00000  Uiso   1.00
H71    H     0.88329   0.69037   0.50858   0.00000  Uiso   1.00
H72    H     0.03495   0.62547   0.37881   0.00000  Uiso   1.00
H73    H     0.91229   0.77877   0.32096   0.00000  Uiso   1.00
H74    H     0.80509   0.66605   0.61818   0.00000  Uiso   1.00
H75    H     0.12488   0.52921   0.34453   0.00000  Uiso   1.00
H76    H     0.86624   0.85247   0.22253   0.00000  Uiso   1.00
H77    H     0.82505   0.53673   0.32314   0.00000  Uiso   1.00
H78    H     0.76167   0.52458   0.42681   0.00000  Uiso   1.00
H79    H     0.91333   0.45968   0.29703   0.00000  Uiso   1.00
H80    H     0.79068   0.61297   0.23918   0.00000  Uiso   1.00
H81    H     0.70639   0.53148   0.55181   0.00000  Uiso   1.00
H82    H     0.02617   0.39465   0.27815   0.00000  Uiso   1.00
H83    H     0.76753   0.71790   0.15616   0.00000  Uiso   1.00
O84    O     0.71614   0.59359   0.65459   0.00000  Uiso   1.00
O85    O     0.13569   0.41408   0.29556   0.00000  Uiso   1.00
O86    O     0.79635   0.83818   0.13551   0.00000  Uiso   1.00
N87    N     0.79055   0.63606   0.58833   0.00000  Uiso   1.00
N88    N     0.08953   0.50812   0.33249   0.00000  Uiso   1.00
N89    N     0.84774   0.81033   0.21842   0.00000  Uiso   1.00
N90    N     0.73744   0.56365   0.55261   0.00000  Uiso   1.00
N91    N     0.03642   0.43571   0.29677   0.00000  Uiso   1.00
N92    N     0.79462   0.73792   0.18271   0.00000  Uiso   1.00
C93    C     0.39327   0.87472   0.56202   0.00000  Uiso   1.00
C94    C     0.44914   0.83646   0.54363   0.00000  Uiso   1.00
C95    C     0.48720   0.81188   0.58348   0.00000  Uiso   1.00
C96    C     0.53591   0.77826   0.55763   0.00000  Uiso   1.00
C97    C     0.62112   0.72021   0.53873   0.00000  Uiso   1.00
C98    C     0.39845   0.93748   0.52629   0.00000  Uiso   1.00
C99    C     0.39389   0.99782   0.55155   0.00000  Uiso   1.00
C100   C     0.39992   0.04923   0.51110   0.00000  Uiso   1.00
C101   C     0.40639   0.14800   0.46527   0.00000  Uiso   1.00
C102   C     0.34512   0.83927   0.53612   0.00000  Uiso   1.00
C103   C     0.29571   0.81706   0.56964   0.00000  Uiso   1.00
C104   C     0.25684   0.78580   0.53747   0.00000  Uiso   1.00
C105   C     0.18051   0.73208   0.50690   0.00000  Uiso   1.00
C106   C     0.41209   0.85872   0.44526   0.00000  Uiso   1.00
C107   C     0.45936   0.82778   0.48022   0.00000  Uiso   1.00
C108   C     0.50803   0.79418   0.45430   0.00000  Uiso   1.00
C109   C     0.54616   0.76956   0.49410   0.00000  Uiso   1.00
C110   C     0.40867   0.92879   0.46287   0.00000  Uiso   1.00
C111   C     0.41471   0.98012   0.42238   0.00000  Uiso   1.00
C112   C     0.41016   0.04053   0.44757   0.00000  Uiso   1.00
C113   C     0.35535   0.83058   0.47270   0.00000  Uiso   1.00
C114   C     0.31654   0.79935   0.44047   0.00000  Uiso   1.00
C115   C     0.26708   0.77709   0.47394   0.00000  Uiso   1.00
H116   H     0.38531   0.88149   0.61138   0.00000  Uiso   1.00
H117   H     0.47928   0.81863   0.63255   0.00000  Uiso   1.00
H118   H     0.38597   0.00453   0.60062   0.00000  Uiso   1.00
H119   H     0.28782   0.82379   0.61871   0.00000  Uiso   1.00
H120   H     0.58798   0.74511   0.62804   0.00000  Uiso   1.00
H121   H     0.39121   0.13711   0.56073   0.00000  Uiso   1.00
H122   H     0.18423   0.75598   0.59888   0.00000  Uiso   1.00
H123   H     0.42005   0.85196   0.39589   0.00000  Uiso   1.00
H124   H     0.51593   0.78746   0.40523   0.00000  Uiso   1.00
H125   H     0.42262   0.97338   0.37331   0.00000  Uiso   1.00
H126   H     0.32447   0.79263   0.39140   0.00000  Uiso   1.00
H127   H     0.61773   0.71983   0.44354   0.00000  Uiso   1.00
H128   H     0.42095   0.11182   0.37623   0.00000  Uiso   1.00
H129   H     0.21398   0.73070   0.41438   0.00000  Uiso   1.00
O130   O     0.66530   0.69060   0.54582   0.00000  Uiso   1.00
O131   O     0.40714   0.20488   0.45751   0.00000  Uiso   1.00
O132   O     0.13559   0.70485   0.50756   0.00000  Uiso   1.00
N133   N     0.58182   0.74800   0.58334   0.00000  Uiso   1.00
N134   N     0.39786   0.11449   0.52041   0.00000  Uiso   1.00
N135   N     0.20434   0.75819   0.55607   0.00000  Uiso   1.00
N136   N     0.59782   0.73439   0.48406   0.00000  Uiso   1.00
N137   N     0.41386   0.10089   0.42113   0.00000  Uiso   1.00
N138   N     0.22035   0.74458   0.45679   0.00000  Uiso   1.00
C139   C     0.00819   0.46055   0.73384   0.00000  Uiso   1.00
C140   C     0.00523   0.44076   0.80125   0.00000  Uiso   1.00
C141   C     0.03447   0.38880   0.82483   0.00000  Uiso   1.00
C142   C     0.02604   0.37877   0.88779   0.00000  Uiso   1.00
C143   C     0.02700   0.34190   0.98669   0.00000  Uiso   1.00
C144   C     0.02758   0.52928   0.73063   0.00000  Uiso   1.00
C145   C     0.07561   0.55174   0.69482   0.00000  Uiso   1.00
C146   C     0.08598   0.61623   0.69833   0.00000  Uiso   1.00
C147   C     0.12162   0.71679   0.68755   0.00000  Uiso   1.00
C148   C     0.94587   0.46273   0.71753   0.00000  Uiso   1.00
C149   C     0.92520   0.42925   0.67069   0.00000  Uiso   1.00
C150   C     0.86678   0.43772   0.66316   0.00000  Uiso   1.00
C151   C     0.77555   0.43495   0.63204   0.00000  Uiso   1.00
C152   C     0.94122   0.53515   0.80372   0.00000  Uiso   1.00
C153   C     0.96886   0.48128   0.83921   0.00000  Uiso   1.00
C154   C     0.96038   0.47133   0.90215   0.00000  Uiso   1.00
C155   C     0.98960   0.41936   0.92582   0.00000  Uiso   1.00
C156   C     0.99121   0.56980   0.76858   0.00000  Uiso   1.00
C157   C     0.00151   0.63427   0.77214   0.00000  Uiso   1.00
C158   C     0.04954   0.65682   0.73635   0.00000  Uiso   1.00
C159   C     0.90950   0.50325   0.75549   0.00000  Uiso   1.00
C160   C     0.85111   0.51178   0.74802   0.00000  Uiso   1.00
C161   C     0.83034   0.47831   0.70118   0.00000  Uiso   1.00
H162   H     0.03651   0.42901   0.70428   0.00000  Uiso   1.00
H163   H     0.06262   0.35746   0.79544   0.00000  Uiso   1.00
H164   H     0.10374   0.52037   0.66545   0.00000  Uiso   1.00
H165   H     0.95336   0.39790   0.64133   0.00000  Uiso   1.00
H166   H     0.07554   0.29601   0.91324   0.00000  Uiso   1.00
H167   H     0.16224   0.63953   0.63913   0.00000  Uiso   1.00
H168   H     0.84513   0.38127   0.58827   0.00000  Uiso   1.00
H169   H     0.91290   0.56670   0.83328   0.00000  Uiso   1.00
H170   H     0.93223   0.50269   0.93151   0.00000  Uiso   1.00
H171   H     0.97335   0.66561   0.80152   0.00000  Uiso   1.00
H172   H     0.82297   0.54314   0.77740   0.00000  Uiso   1.00
H173   H     0.96972   0.41389   0.02369   0.00000  Uiso   1.00
H174   H     0.05641   0.75742   0.74957   0.00000  Uiso   1.00
H175   H     0.73930   0.49915   0.69871   0.00000  Uiso   1.00
O176   O     0.03759   0.31038   0.03076   0.00000  Uiso   1.00
O177   O     0.15133   0.76107   0.67113   0.00000  Uiso   1.00
O178   O     0.73528   0.42223   0.60440   0.00000  Uiso   1.00
N179   N     0.04798   0.33253   0.92575   0.00000  Uiso   1.00
N180   N     0.12904   0.65370   0.66948   0.00000  Uiso   1.00
N181   N     0.83257   0.41226   0.62192   0.00000  Uiso   1.00
N182   N     0.99103   0.39596   0.98518   0.00000  Uiso   1.00
N183   N     0.07209   0.71713   0.72891   0.00000  Uiso   1.00
N184   N     0.77562   0.47569   0.68135   0.00000  Uiso   1.00
C185   C     0.25080   0.96578   0.99741   0.00000  Uiso   1.00
C186   C     0.23863   0.02728   0.96250   0.00000  Uiso   1.00
C187   C     0.19650   0.07346   0.98066   0.00000  Uiso   1.00
C188   C     0.19224   0.12628   0.94237   0.00000  Uiso   1.00
C189   C     0.16780   0.22084   0.89647   0.00000  Uiso   1.00
C190   C     0.31464   0.96624   0.00813   0.00000  Uiso   1.00
C191   C     0.33643   0.96108   0.06467   0.00000  Uiso   1.00
C192   C     0.39615   0.96252   0.06479   0.00000  Uiso   1.00
C193   C     0.48972   0.96225   0.08974   0.00000  Uiso   1.00
C194   C     0.24528   0.91183   0.95285   0.00000  Uiso   1.00
C195   C     0.20876   0.86090   0.96291   0.00000  Uiso   1.00
C196   C     0.21010   0.81652   0.91649   0.00000  Uiso   1.00
C197   C     0.19598   0.73177   0.85560   0.00000  Uiso   1.00
C198   C     0.31814   0.97748   0.89709   0.00000  Uiso   1.00
C199   C     0.27521   0.03364   0.90801   0.00000  Uiso   1.00
C200   C     0.27100   0.08641   0.86968   0.00000  Uiso   1.00
C201   C     0.22888   0.13265   0.88779   0.00000  Uiso   1.00
C202   C     0.35122   0.97260   0.95365   0.00000  Uiso   1.00
C203   C     0.41093   0.97404   0.95369   0.00000  Uiso   1.00
C204   C     0.43280   0.96889   0.01021   0.00000  Uiso   1.00
C205   C     0.28186   0.91819   0.89836   0.00000  Uiso   1.00
C206   C     0.28326   0.87386   0.85192   0.00000  Uiso   1.00
C207   C     0.24675   0.82289   0.86191   0.00000  Uiso   1.00
H208   H     0.22233   0.96082   0.03983   0.00000  Uiso   1.00
H209   H     0.16821   0.06852   0.02284   0.00000  Uiso   1.00
H210   H     0.30811   0.95616   0.10683   0.00000  Uiso   1.00
H211   H     0.18046   0.85600   0.00508   0.00000  Uiso   1.00
H212   H     0.12435   0.19074   0.97998   0.00000  Uiso   1.00
H213   H     0.41934   0.95379   0.15708   0.00000  Uiso   1.00
H214   H     0.15018   0.74259   0.94252   0.00000  Uiso   1.00
H215   H     0.34662   0.98243   0.85467   0.00000  Uiso   1.00
H216   H     0.29932   0.09132   0.82752   0.00000  Uiso   1.00
H217   H     0.43922   0.97896   0.91152   0.00000  Uiso   1.00
H218   H     0.31157   0.87880   0.80976   0.00000  Uiso   1.00
H219   H     0.23077   0.20925   0.82146   0.00000  Uiso   1.00
H220   H     0.52576   0.97229   0.99856   0.00000  Uiso   1.00
H221   H     0.25659   0.76109   0.78400   0.00000  Uiso   1.00
O222   O     0.14421   0.27124   0.88621   0.00000  Uiso   1.00
O223   O     0.53123   0.96036   0.11856   0.00000  Uiso   1.00
O224   O     0.17809   0.68327   0.83706   0.00000  Uiso   1.00
N225   N     0.15588   0.18015   0.94639   0.00000  Uiso   1.00
N226   N     0.43168   0.95862   0.11197   0.00000  Uiso   1.00
N227   N     0.18004   0.76116   0.91138   0.00000  Uiso   1.00
N228   N     0.21314   0.19010   0.86109   0.00000  Uiso   1.00
N229   N     0.48894   0.96858   0.02667   0.00000  Uiso   1.00
N230   N     0.23730   0.77111   0.82608   0.00000  Uiso   1.00
C231   C     0.80462   0.16738   0.18808   0.00000  Uiso   1.00
C232   C     0.84892   0.14457   0.13621   0.00000  Uiso   1.00
C233   C     0.88477   0.18319   0.09824   0.00000  Uiso   1.00
C234   C     0.92233   0.15316   0.05353   0.00000  Uiso   1.00
C235   C     0.99088   0.12783   0.97400   0.00000  Uiso   1.00
C236   C     0.82031   0.13204   0.24564   0.00000  Uiso   1.00
C237   C     0.83209   0.16011   0.29968   0.00000  Uiso   1.00
C238   C     0.84556   0.11952   0.34709   0.00000  Uiso   1.00
C239   C     0.86965   0.07473   0.43747   0.00000  Uiso   1.00
C240   C     0.74667   0.14191   0.17424   0.00000  Uiso   1.00
C241   C     0.69654   0.17828   0.16825   0.00000  Uiso   1.00
C242   C     0.64800   0.14600   0.15556   0.00000  Uiso   1.00
C243   C     0.55777   0.11654   0.13506   0.00000  Uiso   1.00
C244   C     0.80757   0.04537   0.17620   0.00000  Uiso   1.00
C245   C     0.85052   0.07830   0.12976   0.00000  Uiso   1.00
C246   C     0.88803   0.04820   0.08509   0.00000  Uiso   1.00
C247   C     0.92393   0.08677   0.04706   0.00000  Uiso   1.00
C248   C     0.82191   0.06577   0.23919   0.00000  Uiso   1.00
C249   C     0.83536   0.02512   0.28653   0.00000  Uiso   1.00
C250   C     0.84716   0.05313   0.34063   0.00000  Uiso   1.00
C251   C     0.74827   0.07564   0.16778   0.00000  Uiso   1.00
C252   C     0.69981   0.04329   0.15510   0.00000  Uiso   1.00
C253   C     0.64961   0.07961   0.14909   0.00000  Uiso   1.00
H254   H     0.80338   0.21897   0.19311   0.00000  Uiso   1.00
H255   H     0.88352   0.23448   0.10325   0.00000  Uiso   1.00
H256   H     0.83084   0.21140   0.30466   0.00000  Uiso   1.00
H257   H     0.69531   0.22957   0.17325   0.00000  Uiso   1.00
H258   H     0.97309   0.22244   0.00080   0.00000  Uiso   1.00
H259   H     0.86201   0.17378   0.42549   0.00000  Uiso   1.00
H260   H     0.57621   0.21209   0.14838   0.00000  Uiso   1.00
H261   H     0.80882   0.99377   0.17117   0.00000  Uiso   1.00
H262   H     0.88926   0.99692   0.08011   0.00000  Uiso   1.00
H263   H     0.83659   0.97384   0.28152   0.00000  Uiso   1.00
H264   H     0.70106   0.99201   0.15011   0.00000  Uiso   1.00
H265   H     0.97776   0.02963   0.98202   0.00000  Uiso   1.00
H266   H     0.86667   0.98097   0.40672   0.00000  Uiso   1.00
H267   H     0.58088   0.01928   0.12960   0.00000  Uiso   1.00
O268   O     0.02826   0.13217   0.93192   0.00000  Uiso   1.00
O269   O     0.88251   0.06833   0.48910   0.00000  Uiso   1.00
O270   O     0.50756   0.11859   0.12554   0.00000  Uiso   1.00
N271   N     0.96314   0.17663   0.00887   0.00000  Uiso   1.00
N272   N     0.85929   0.13114   0.40593   0.00000  Uiso   1.00
N273   N     0.59210   0.16695   0.14687   0.00000  Uiso   1.00
N274   N     0.96565   0.07288   0.99876   0.00000  Uiso   1.00
N275   N     0.86180   0.02739   0.39582   0.00000  Uiso   1.00
N276   N     0.59461   0.06320   0.13676   0.00000  Uiso   1.00
C277   C     0.48579   0.72504   0.07003   0.00000  Uiso   1.00
C278   C     0.50213   0.65422   0.07259   0.00000  Uiso   1.00
C279   C     0.46884   0.60747   0.10281   0.00000  Uiso   1.00
C280   C     0.49141   0.54544   0.09969   0.00000  Uiso   1.00
C281   C     0.50856   0.43769   0.10853   0.00000  Uiso   1.00
C282   C     0.48810   0.74290   0.00219   0.00000  Uiso   1.00
C283   C     0.44302   0.77072   0.97321   0.00000  Uiso   1.00
C284   C     0.45378   0.78336   0.91083   0.00000  Uiso   1.00
C285   C     0.44917   0.81334   0.81038   0.00000  Uiso   1.00
C286   C     0.53518   0.75949   0.09470   0.00000  Uiso   1.00
C287   C     0.52967   0.80128   0.14350   0.00000  Uiso   1.00
C288   C     0.58007   0.82789   0.15900   0.00000  Uiso   1.00
C289   C     0.64855   0.88363   0.20219   0.00000  Uiso   1.00
C290   C     0.58507   0.69802   0.01076   0.00000  Uiso   1.00
C291   C     0.55606   0.63954   0.04039   0.00000  Uiso   1.00
C292   C     0.57868   0.57757   0.03723   0.00000  Uiso   1.00
C293   C     0.54543   0.53074   0.06744   0.00000  Uiso   1.00
C294   C     0.54203   0.72823   0.96999   0.00000  Uiso   1.00
C295   C     0.55286   0.74083   0.90764   0.00000  Uiso   1.00
C296   C     0.50780   0.76865   0.87858   0.00000  Uiso   1.00
C297   C     0.58910   0.74482   0.06251   0.00000  Uiso   1.00
C298   C     0.63952   0.77138   0.07793   0.00000  Uiso   1.00
C299   C     0.63409   0.81319   0.12675   0.00000  Uiso   1.00
H300   H     0.44381   0.73647   0.09509   0.00000  Uiso   1.00
H301   H     0.42711   0.61884   0.12771   0.00000  Uiso   1.00
H302   H     0.40129   0.78208   0.99814   0.00000  Uiso   1.00
H303   H     0.48794   0.81262   0.16840   0.00000  Uiso   1.00
H304   H     0.43236   0.48196   0.14966   0.00000  Uiso   1.00
H305   H     0.37794   0.82617   0.87645   0.00000  Uiso   1.00
H306   H     0.56064   0.89058   0.23549   0.00000  Uiso   1.00
H307   H     0.62706   0.68660   0.98570   0.00000  Uiso   1.00
H308   H     0.62041   0.56623   0.01231   0.00000  Uiso   1.00
H309   H     0.59460   0.72946   0.88274   0.00000  Uiso   1.00
H310   H     0.68124   0.76001   0.05300   0.00000  Uiso   1.00
H311   H     0.58925   0.43925   0.05600   0.00000  Uiso   1.00
H312   H     0.53483   0.78346   0.78279   0.00000  Uiso   1.00
H313   H     0.71753   0.84787   0.14182   0.00000  Uiso   1.00
O314   O     0.50312   0.38232   0.12229   0.00000  Uiso   1.00
O315   O     0.43172   0.83392   0.76386   0.00000  Uiso   1.00
O316   O     0.67142   0.91843   0.23491   0.00000  Uiso   1.00
N317   N     0.47020   0.48842   0.12397   0.00000  Uiso   1.00
N318   N     0.41931   0.81023   0.86854   0.00000  Uiso   1.00
N319   N     0.59013   0.87047   0.20420   0.00000  Uiso   1.00
N320   N     0.55463   0.46545   0.07357   0.00000  Uiso   1.00
N321   N     0.50374   0.78725   0.81814   0.00000  Uiso   1.00
N322   N     0.67455   0.84749   0.15380   0.00000  Uiso   1.00
C323   C     0.19375   0.33099   0.43720   0.00000  Uiso   1.00
C324   C     0.21582   0.39627   0.41665   0.00000  Uiso   1.00
C325   C     0.25960   0.40771   0.37017   0.00000  Uiso   1.00
C326   C     0.27345   0.47081   0.35835   0.00000  Uiso   1.00
C327   C     0.31211   0.56458   0.32134   0.00000  Uiso   1.00
C328   C     0.12879   0.33384   0.43157   0.00000  Uiso   1.00
C329   C     0.09940   0.29280   0.39763   0.00000  Uiso   1.00
C330   C     0.03998   0.30334   0.39837   0.00000  Uiso   1.00
C331   C     0.94352   0.30017   0.38455   0.00000  Uiso   1.00
C332   C     0.20014   0.32571   0.50561   0.00000  Uiso   1.00
C333   C     0.23071   0.27783   0.53394   0.00000  Uiso   1.00
C334   C     0.23135   0.28151   0.59702   0.00000  Uiso   1.00
C335   C     0.24565   0.26573   0.69816   0.00000  Uiso   1.00
C336   C     0.14051   0.42268   0.49885   0.00000  Uiso   1.00
C337   C     0.18690   0.44607   0.45015   0.00000  Uiso   1.00
C338   C     0.20069   0.50916   0.43839   0.00000  Uiso   1.00
C339   C     0.24448   0.52070   0.39190   0.00000  Uiso   1.00
C340   C     0.09988   0.38364   0.46506   0.00000  Uiso   1.00
C341   C     0.04049   0.39424   0.46585   0.00000  Uiso   1.00
C342   C     0.01101   0.35323   0.43192   0.00000  Uiso   1.00
C343   C     0.17122   0.37552   0.53910   0.00000  Uiso   1.00
C344   C     0.17181   0.37927   0.60215   0.00000  Uiso   1.00
C345   C     0.20238   0.33141   0.63057   0.00000  Uiso   1.00
H346   H     0.21626   0.29222   0.41112   0.00000  Uiso   1.00
H347   H     0.28196   0.36916   0.34426   0.00000  Uiso   1.00
H348   H     0.12179   0.25426   0.37173   0.00000  Uiso   1.00
H349   H     0.25308   0.23930   0.50801   0.00000  Uiso   1.00
H350   H     0.34204   0.47643   0.28489   0.00000  Uiso   1.00
H351   H     0.00430   0.23413   0.34281   0.00000  Uiso   1.00
H352   H     0.28115   0.20258   0.63019   0.00000  Uiso   1.00
H353   H     0.11799   0.46146   0.52493   0.00000  Uiso   1.00
H354   H     0.17831   0.54769   0.46432   0.00000  Uiso   1.00
H355   H     0.01813   0.43278   0.49178   0.00000  Uiso   1.00
H356   H     0.14942   0.41782   0.62806   0.00000  Uiso   1.00
H357   H     0.25791   0.62132   0.38233   0.00000  Uiso   1.00
H358   H     0.92016   0.37903   0.44025   0.00000  Uiso   1.00
H359   H     0.19702   0.34748   0.72763   0.00000  Uiso   1.00
O360   O     0.34141   0.60255   0.29167   0.00000  Uiso   1.00
O361   O     0.89831   0.28466   0.36767   0.00000  Uiso   1.00
O362   O     0.26154   0.24326   0.74470   0.00000  Uiso   1.00
N363   N     0.31397   0.49869   0.31615   0.00000  Uiso   1.00
N364   N     0.99820   0.27217   0.37030   0.00000  Uiso   1.00
N365   N     0.25703   0.24266   0.63897   0.00000  Uiso   1.00
N366   N     0.26870   0.57666   0.36858   0.00000  Uiso   1.00
N367   N     0.95293   0.35014   0.42273   0.00000  Uiso   1.00
N368   N     0.21176   0.32063   0.69140   0.00000  Uiso   1.00
C369   C     0.63407   0.22044   0.32492   0.00000  Uiso   1.00
C370   C     0.57828   0.26057   0.32352   0.00000  Uiso   1.00
C371   C     0.56003   0.29204   0.27247   0.00000  Uiso   1.00
C372   C     0.50769   0.32625   0.28063   0.00000  Uiso   1.00
C373   C     0.42605   0.38815   0.26975   0.00000  Uiso   1.00
C374   C     0.61580   0.15491   0.34910   0.00000  Uiso   1.00
C375   C     0.62912   0.09754   0.31957   0.00000  Uiso   1.00
C376   C     0.60836   0.04281   0.34928   0.00000  Uiso   1.00
C377   C     0.58502   0.94066   0.37813   0.00000  Uiso   1.00
C378   C     0.66664   0.24911   0.37429   0.00000  Uiso   1.00
C379   C     0.72271   0.27092   0.36594   0.00000  Uiso   1.00
C380   C     0.74477   0.29547   0.41686   0.00000  Uiso   1.00
C381   C     0.80036   0.33957   0.48482   0.00000  Uiso   1.00
C382   C     0.57354   0.22523   0.43020   0.00000  Uiso   1.00
C383   C     0.54541   0.26318   0.38070   0.00000  Uiso   1.00
C384   C     0.49307   0.29735   0.38894   0.00000  Uiso   1.00
C385   C     0.47476   0.32886   0.33792   0.00000  Uiso   1.00
C386   C     0.58293   0.15752   0.40628   0.00000  Uiso   1.00
C387   C     0.56216   0.10285   0.43604   0.00000  Uiso   1.00
C388   C     0.57543   0.04541   0.40656   0.00000  Uiso   1.00
C389   C     0.63377   0.25171   0.43147   0.00000  Uiso   1.00
C390   C     0.65575   0.27623   0.48241   0.00000  Uiso   1.00
C391   C     0.71183   0.29808   0.47414   0.00000  Uiso   1.00
H392   H     0.65966   0.21841   0.28041   0.00000  Uiso   1.00
H393   H     0.58548   0.29001   0.22822   0.00000  Uiso   1.00
H394   H     0.65456   0.09554   0.27532   0.00000  Uiso   1.00
H395   H     0.74813   0.26890   0.32168   0.00000  Uiso   1.00
H396   H     0.48874   0.37052   0.19558   0.00000  Uiso   1.00
H397   H     0.63441   0.96048   0.29490   0.00000  Uiso   1.00
H398   H     0.83173   0.32602   0.39266   0.00000  Uiso   1.00
H399   H     0.54795   0.22726   0.47472   0.00000  Uiso   1.00
H400   H     0.46764   0.29935   0.43320   0.00000  Uiso   1.00
H401   H     0.53672   0.10488   0.48029   0.00000  Uiso   1.00
H402   H     0.63030   0.27823   0.52666   0.00000  Uiso   1.00
H403   H     0.39310   0.37811   0.36195   0.00000  Uiso   1.00
H404   H     0.53877   0.96806   0.46126   0.00000  Uiso   1.00
H405   H     0.73609   0.33360   0.55903   0.00000  Uiso   1.00
O406   O     0.39010   0.42156   0.24794   0.00000  Uiso   1.00
O407   O     0.58122   0.88360   0.37824   0.00000  Uiso   1.00
O408   O     0.84010   0.36319   0.50650   0.00000  Uiso   1.00
N409   N     0.47726   0.36243   0.24044   0.00000  Uiso   1.00
N410   N     0.61344   0.97906   0.33329   0.00000  Uiso   1.00
N411   N     0.79793   0.32080   0.42469   0.00000  Uiso   1.00
N412   N     0.42579   0.36651   0.32996   0.00000  Uiso   1.00
N413   N     0.56197   0.98314   0.42281   0.00000  Uiso   1.00
N414   N     0.74646   0.32487   0.51421   0.00000  Uiso   1.00
C415   C     0.99265   0.63647   0.14532   0.00000  Uiso   1.00
C416   C     0.01024   0.65553   0.07880   0.00000  Uiso   1.00
C417   C     0.98470   0.70436   0.04662   0.00000  Uiso   1.00
C418   C     0.00705   0.71425   0.98617   0.00000  Uiso   1.00
C419   C     0.02730   0.74954   0.88702   0.00000  Uiso   1.00
C420   C     0.97890   0.56602   0.14456   0.00000  Uiso   1.00
C421   C     0.92702   0.53960   0.16767   0.00000  Uiso   1.00
C422   C     0.92300   0.47413   0.16258   0.00000  Uiso   1.00
C423   C     0.89463   0.37046   0.16557   0.00000  Uiso   1.00
C424   C     0.04714   0.64038   0.17824   0.00000  Uiso   1.00
C425   C     0.05264   0.67647   0.22968   0.00000  Uiso   1.00
C426   C     0.10607   0.67360   0.25295   0.00000  Uiso   1.00
C427   C     0.18365   0.68538   0.30823   0.00000  Uiso   1.00
C428   C     0.07777   0.56719   0.09520   0.00000  Uiso   1.00
C429   C     0.05647   0.61789   0.05158   0.00000  Uiso   1.00
C430   C     0.07887   0.62771   0.99116   0.00000  Uiso   1.00
C431   C     0.05337   0.67655   0.95889   0.00000  Uiso   1.00
C432   C     0.02513   0.52839   0.11734   0.00000  Uiso   1.00
C433   C     0.02120   0.46295   0.11222   0.00000  Uiso   1.00
C434   C     0.96932   0.43643   0.13531   0.00000  Uiso   1.00
C435   C     0.09338   0.60275   0.15102   0.00000  Uiso   1.00
C436   C     0.14682   0.59982   0.17422   0.00000  Uiso   1.00
C437   C     0.15239   0.63590   0.22568   0.00000  Uiso   1.00
H438   H     0.95665   0.66577   0.16652   0.00000  Uiso   1.00
H439   H     0.94891   0.73347   0.06770   0.00000  Uiso   1.00
H440   H     0.89125   0.56873   0.18874   0.00000  Uiso   1.00
H441   H     0.01685   0.70558   0.25073   0.00000  Uiso   1.00
H442   H     0.96070   0.79192   0.94614   0.00000  Uiso   1.00
H443   H     0.83913   0.44456   0.20138   0.00000  Uiso   1.00
H444   H     0.10398   0.73314   0.33210   0.00000  Uiso   1.00
H445   H     0.11377   0.53789   0.07400   0.00000  Uiso   1.00
H446   H     0.11465   0.59858   0.97011   0.00000  Uiso   1.00
H447   H     0.05699   0.43384   0.09115   0.00000  Uiso   1.00
H448   H     0.18259   0.57069   0.15314   0.00000  Uiso   1.00
H449   H     0.09522   0.68244   0.86692   0.00000  Uiso   1.00
H450   H     0.97365   0.33508   0.12217   0.00000  Uiso   1.00
H451   H     0.23850   0.62365   0.25289   0.00000  Uiso   1.00
O452   O     0.02570   0.77940   0.83985   0.00000  Uiso   1.00
O453   O     0.86620   0.32367   0.17473   0.00000  Uiso   1.00
O454   O     0.21367   0.70228   0.34623   0.00000  Uiso   1.00
N455   N     0.99225   0.75784   0.94175   0.00000  Uiso   1.00
N456   N     0.87858   0.43308   0.18038   0.00000  Uiso   1.00
N457   N     0.12619   0.70286   0.30261   0.00000  Uiso   1.00
N458   N     0.06463   0.69892   0.89913   0.00000  Uiso   1.00
N459   N     0.95096   0.37416   0.13776   0.00000  Uiso   1.00
N460   N     0.19857   0.64394   0.25998   0.00000  Uiso   1.00
C461   C     0.77985   0.14528   0.87552   0.00000  Uiso   1.00
C462   C     0.79596   0.08264   0.90650   0.00000  Uiso   1.00
C463   C     0.83555   0.03674   0.88173   0.00000  Uiso   1.00
C464   C     0.84422   0.98273   0.91734   0.00000  Uiso   1.00
C465   C     0.87375   0.88663   0.95658   0.00000  Uiso   1.00
C466   C     0.71432   0.14568   0.87407   0.00000  Uiso   1.00
C467   C     0.68528   0.15279   0.82202   0.00000  Uiso   1.00
C468   C     0.62523   0.15186   0.83033   0.00000  Uiso   1.00
C469   C     0.52802   0.15367   0.81921   0.00000  Uiso   1.00
C470   C     0.79156   0.19773   0.91951   0.00000  Uiso   1.00
C471   C     0.82746   0.24861   0.90567   0.00000  Uiso   1.00
C472   C     0.83243   0.29150   0.95224   0.00000  Uiso   1.00
C473   C     0.85515   0.37413   0.01168   0.00000  Uiso   1.00
C474   C     0.72482   0.13099   0.98283   0.00000  Uiso   1.00
C475   C     0.76606   0.07488   0.96479   0.00000  Uiso   1.00
C476   C     0.77467   0.02093   0.00045   0.00000  Uiso   1.00
C477   C     0.81428   0.97496   0.97573   0.00000  Uiso   1.00
C478   C     0.68443   0.13792   0.93235   0.00000  Uiso   1.00
C479   C     0.62440   0.13698   0.94074   0.00000  Uiso   1.00
C480   C     0.59528   0.14408   0.88872   0.00000  Uiso   1.00
C481   C     0.76168   0.18997   0.97780   0.00000  Uiso   1.00
C482   C     0.76658   0.23280   0.02440   0.00000  Uiso   1.00
C483   C     0.80248   0.28373   0.01063   0.00000  Uiso   1.00
H484   H     0.80312   0.15132   0.83014   0.00000  Uiso   1.00
H485   H     0.85867   0.04276   0.83661   0.00000  Uiso   1.00
H486   H     0.70843   0.15880   0.77692   0.00000  Uiso   1.00
H487   H     0.85058   0.25460   0.86056   0.00000  Uiso   1.00
H488   H     0.90707   0.91896   0.86949   0.00000  Uiso   1.00
H489   H     0.59026   0.16366   0.74362   0.00000  Uiso   1.00
H490   H     0.89003   0.36568   0.91999   0.00000  Uiso   1.00
H491   H     0.70155   0.12495   0.02821   0.00000  Uiso   1.00
H492   H     0.75154   0.01494   0.04556   0.00000  Uiso   1.00
H493   H     0.60129   0.13098   0.98585   0.00000  Uiso   1.00
H494   H     0.74345   0.22677   0.06949   0.00000  Uiso   1.00
H495   H     0.82011   0.89638   0.03908   0.00000  Uiso   1.00
H496   H     0.50330   0.14108   0.91320   0.00000  Uiso   1.00
H497   H     0.80307   0.34309   0.08957   0.00000  Uiso   1.00
O498   O     0.89829   0.83577   0.96211   0.00000  Uiso   1.00
O499   O     0.48265   0.15681   0.79697   0.00000  Uiso   1.00
O500   O     0.87594   0.42185   0.02837   0.00000  Uiso   1.00
N501   N     0.87975   0.92875   0.90703   0.00000  Uiso   1.00
N502   N     0.58356   0.15752   0.78934   0.00000  Uiso   1.00
N503   N     0.86380   0.34640   0.95423   0.00000  Uiso   1.00
N504   N     0.83296   0.91660   0.99828   0.00000  Uiso   1.00
N505   N     0.53677   0.14537   0.88059   0.00000  Uiso   1.00
N506   N     0.81701   0.33424   0.04548   0.00000  Uiso   1.00
C507   C     0.23007   0.94875   0.68429   0.00000  Uiso   1.00
C508   C     0.18457   0.96735   0.73666   0.00000  Uiso   1.00
C509   C     0.15031   0.92554   0.77274   0.00000  Uiso   1.00
C510   C     0.11125   0.95198   0.81831   0.00000  Uiso   1.00
C511   C     0.04129   0.97084   0.89822   0.00000  Uiso   1.00
C512   C     0.21326   0.98553   0.62796   0.00000  Uiso   1.00
C513   C     0.20311   0.95900   0.57264   0.00000  Uiso   1.00
C514   C     0.18821   0.00074   0.52670   0.00000  Uiso   1.00
C515   C     0.16281   0.04783   0.43784   0.00000  Uiso   1.00
C516   C     0.28660   0.97648   0.69974   0.00000  Uiso   1.00
C517   C     0.33813   0.94236   0.70477   0.00000  Uiso   1.00
C518   C     0.38499   0.97648   0.71926   0.00000  Uiso   1.00
C519   C     0.47347   0.00953   0.74186   0.00000  Uiso   1.00
C520   C     0.22165   0.07004   0.70106   0.00000  Uiso   1.00
C521   C     0.18000   0.03323   0.74577   0.00000  Uiso   1.00
C522   C     0.14099   0.05974   0.79130   0.00000  Uiso   1.00
C523   C     0.10667   0.01798   0.82744   0.00000  Uiso   1.00
C524   C     0.20868   0.05141   0.63707   0.00000  Uiso   1.00
C525   C     0.19380   0.09320   0.59120   0.00000  Uiso   1.00
C526   C     0.18363   0.06674   0.53583   0.00000  Uiso   1.00
C527   C     0.28203   0.04237   0.70886   0.00000  Uiso   1.00
C528   C     0.32882   0.07655   0.72334   0.00000  Uiso   1.00
C529   C     0.38041   0.04248   0.72839   0.00000  Uiso   1.00
H530   H     0.23363   0.89746   0.67719   0.00000  Uiso   1.00
H531   H     0.15385   0.87456   0.76567   0.00000  Uiso   1.00
H532   H     0.20666   0.90801   0.56560   0.00000  Uiso   1.00
H533   H     0.34165   0.89137   0.69772   0.00000  Uiso   1.00
H534   H     0.06338   0.87823   0.86776   0.00000  Uiso   1.00
H535   H     0.17474   0.94877   0.44590   0.00000  Uiso   1.00
H536   H     0.45941   0.91368   0.72449   0.00000  Uiso   1.00
H537   H     0.21809   0.12134   0.70816   0.00000  Uiso   1.00
H538   H     0.13746   0.11072   0.79834   0.00000  Uiso   1.00
H539   H     0.19027   0.14418   0.59827   0.00000  Uiso   1.00
H540   H     0.32526   0.12754   0.73038   0.00000  Uiso   1.00
H541   H     0.05007   0.06991   0.89428   0.00000  Uiso   1.00
H542   H     0.16143   0.14045   0.47242   0.00000  Uiso   1.00
H543   H     0.44610   0.10536   0.75101   0.00000  Uiso   1.00
O544   O     0.00395   0.96305   0.93977   0.00000  Uiso   1.00
O545   O     0.15006   0.05560   0.38630   0.00000  Uiso   1.00
O546   O     0.52354   0.00956   0.75181   0.00000  Uiso   1.00
N547   N     0.07132   0.92480   0.86164   0.00000  Uiso   1.00
N548   N     0.17542   0.99075   0.46723   0.00000  Uiso   1.00
N549   N     0.44157   0.95794   0.72767   0.00000  Uiso   1.00
N550   N     0.06416   0.02794   0.87590   0.00000  Uiso   1.00
N551   N     0.16826   0.09389   0.48149   0.00000  Uiso   1.00
N552   N     0.43441   0.06109   0.74194   0.00000  Uiso   1.00
