data_job_02193
_audit_creation_date              2018-12-19
_audit_creation_method            'Materials Studio'
_symmetry_space_group_name_H-M    'P1'
_symmetry_Int_Tables_number       1
_symmetry_cell_setting            triclinic
loop_
_symmetry_equiv_pos_as_xyz
  x,y,z
_cell_length_a                    22.7558
_cell_length_b                    21.7612
_cell_length_c                    14.2254
_cell_angle_alpha                 90.0000
_cell_angle_beta                  120.7140
_cell_angle_gamma                 90.0000
loop_
_atom_site_label
_atom_site_type_symbol
_atom_site_fract_x
_atom_site_fract_y
_atom_site_fract_z
_atom_site_U_iso_or_equiv
_atom_site_adp_type
_atom_site_occupancy
C1     C     0.07242   0.71444   0.10673   0.00000  Uiso   1.00
C2     C     0.09382   0.74794   0.03477   0.00000  Uiso   1.00
C3     C     0.12937   0.80307   0.05993   0.00000  Uiso   1.00
C4     C     0.14408   0.82622   0.98328   0.00000  Uiso   1.00
C5     C     0.18034   0.88296   0.88647   0.00000  Uiso   1.00
C6     C     0.99516   0.70628   0.03697   0.00000  Uiso   1.00
C7     C     0.94775   0.72637   0.06398   0.00000  Uiso   1.00
C8     C     0.87941   0.71444   0.98919   0.00000  Uiso   1.00
C9     C     0.76250   0.70644   0.89582   0.00000  Uiso   1.00
C10    C     0.10288   0.65011   0.12451   0.00000  Uiso   1.00
C11    C     0.14603   0.62297   0.22513   0.00000  Uiso   1.00
C12    C     0.16837   0.56374   0.22404   0.00000  Uiso   1.00
C13    C     0.21870   0.46854   0.26659   0.00000  Uiso   1.00
C14    C     0.03535   0.65752   0.92588   0.00000  Uiso   1.00
C15    C     0.07368   0.71702   0.93654   0.00000  Uiso   1.00
C16    C     0.08835   0.74009   0.85984   0.00000  Uiso   1.00
C17    C     0.12391   0.79525   0.88488   0.00000  Uiso   1.00
C18    C     0.97502   0.67536   0.93874   0.00000  Uiso   1.00
C19    C     0.90674   0.66339   0.86389   0.00000  Uiso   1.00
C20    C     0.85924   0.68346   0.89078   0.00000  Uiso   1.00
C21    C     0.08275   0.61919   0.02628   0.00000  Uiso   1.00
C22    C     0.10501   0.55999   0.02504   0.00000  Uiso   1.00
C23    C     0.14819   0.53276   0.12563   0.00000  Uiso   1.00
H24    H     0.08810   0.73852   0.18320   0.00000  Uiso   1.00
H25    H     0.14493   0.82699   0.13595   0.00000  Uiso   1.00
H26    H     0.96335   0.75029   0.14001   0.00000  Uiso   1.00
H27    H     0.16160   0.64691   0.30112   0.00000  Uiso   1.00
H28    H     0.19905   0.91146   0.04023   0.00000  Uiso   1.00
H29    H     0.81617   0.74971   0.04879   0.00000  Uiso   1.00
H30    H     0.23421   0.53171   0.38855   0.00000  Uiso   1.00
H31    H     0.01967   0.63345   0.84940   0.00000  Uiso   1.00
H32    H     0.07276   0.71616   0.78383   0.00000  Uiso   1.00
H33    H     0.89117   0.63946   0.78789   0.00000  Uiso   1.00
H34    H     0.08942   0.53608   0.94901   0.00000  Uiso   1.00
H35    H     0.14047   0.82150   0.75443   0.00000  Uiso   1.00
H36    H     0.75758   0.65976   0.76300   0.00000  Uiso   1.00
H37    H     0.17563   0.44175   0.10275   0.00000  Uiso   1.00
O38    O     0.20589   0.92279   0.86020   0.00000  Uiso   1.00
O39    O     0.70357   0.71058   0.87145   0.00000  Uiso   1.00
O40    O     0.25204   0.42457   0.31720   0.00000  Uiso   1.00
N41    N     0.17799   0.87893   0.98197   0.00000  Uiso   1.00
N42    N     0.82002   0.72772   0.98997   0.00000  Uiso   1.00
N43    N     0.21084   0.52389   0.30762   0.00000  Uiso   1.00
N44    N     0.14647   0.83052   0.82819   0.00000  Uiso   1.00
N45    N     0.78849   0.67931   0.83619   0.00000  Uiso   1.00
N46    N     0.17932   0.47549   0.15383   0.00000  Uiso   1.00
C47    C     0.57242   0.21444   0.10673   0.00000  Uiso   1.00
C48    C     0.59382   0.24794   0.03477   0.00000  Uiso   1.00
C49    C     0.62937   0.30307   0.05993   0.00000  Uiso   1.00
C50    C     0.64408   0.32622   0.98328   0.00000  Uiso   1.00
C51    C     0.68034   0.38296   0.88647   0.00000  Uiso   1.00
C52    C     0.49516   0.20628   0.03697   0.00000  Uiso   1.00
C53    C     0.44775   0.22637   0.06398   0.00000  Uiso   1.00
C54    C     0.37941   0.21444   0.98919   0.00000  Uiso   1.00
C55    C     0.26250   0.20644   0.89582   0.00000  Uiso   1.00
C56    C     0.60288   0.15011   0.12451   0.00000  Uiso   1.00
C57    C     0.64603   0.12297   0.22513   0.00000  Uiso   1.00
C58    C     0.66837   0.06374   0.22404   0.00000  Uiso   1.00
C59    C     0.71870   0.96854   0.26659   0.00000  Uiso   1.00
C60    C     0.53535   0.15752   0.92588   0.00000  Uiso   1.00
C61    C     0.57368   0.21702   0.93654   0.00000  Uiso   1.00
C62    C     0.58835   0.24009   0.85984   0.00000  Uiso   1.00
C63    C     0.62391   0.29525   0.88488   0.00000  Uiso   1.00
C64    C     0.47502   0.17536   0.93874   0.00000  Uiso   1.00
C65    C     0.40674   0.16339   0.86389   0.00000  Uiso   1.00
C66    C     0.35924   0.18346   0.89078   0.00000  Uiso   1.00
C67    C     0.58275   0.11919   0.02628   0.00000  Uiso   1.00
C68    C     0.60501   0.05999   0.02504   0.00000  Uiso   1.00
C69    C     0.64819   0.03276   0.12563   0.00000  Uiso   1.00
H70    H     0.58810   0.23852   0.18320   0.00000  Uiso   1.00
H71    H     0.64493   0.32699   0.13595   0.00000  Uiso   1.00
H72    H     0.46335   0.25029   0.14001   0.00000  Uiso   1.00
H73    H     0.66160   0.14691   0.30112   0.00000  Uiso   1.00
H74    H     0.69905   0.41146   0.04023   0.00000  Uiso   1.00
H75    H     0.31617   0.24971   0.04879   0.00000  Uiso   1.00
H76    H     0.73421   0.03171   0.38855   0.00000  Uiso   1.00
H77    H     0.51967   0.13345   0.84940   0.00000  Uiso   1.00
H78    H     0.57276   0.21616   0.78383   0.00000  Uiso   1.00
H79    H     0.39117   0.13946   0.78789   0.00000  Uiso   1.00
H80    H     0.58942   0.03608   0.94901   0.00000  Uiso   1.00
H81    H     0.64047   0.32150   0.75443   0.00000  Uiso   1.00
H82    H     0.25758   0.15976   0.76300   0.00000  Uiso   1.00
H83    H     0.67563   0.94175   0.10275   0.00000  Uiso   1.00
O84    O     0.70589   0.42279   0.86020   0.00000  Uiso   1.00
O85    O     0.20357   0.21058   0.87145   0.00000  Uiso   1.00
O86    O     0.75204   0.92457   0.31720   0.00000  Uiso   1.00
N87    N     0.67799   0.37893   0.98197   0.00000  Uiso   1.00
N88    N     0.32002   0.22772   0.98997   0.00000  Uiso   1.00
N89    N     0.71084   0.02389   0.30762   0.00000  Uiso   1.00
N90    N     0.64647   0.33052   0.82819   0.00000  Uiso   1.00
N91    N     0.28849   0.17931   0.83619   0.00000  Uiso   1.00
N92    N     0.67932   0.97549   0.15383   0.00000  Uiso   1.00
C93    C     0.92758   0.71444   0.39327   0.00000  Uiso   1.00
C94    C     0.90618   0.74794   0.46523   0.00000  Uiso   1.00
C95    C     0.87063   0.80307   0.44007   0.00000  Uiso   1.00
C96    C     0.85592   0.82622   0.51672   0.00000  Uiso   1.00
C97    C     0.81966   0.88296   0.61353   0.00000  Uiso   1.00
C98    C     0.00484   0.70628   0.46303   0.00000  Uiso   1.00
C99    C     0.05225   0.72637   0.43602   0.00000  Uiso   1.00
C100   C     0.12059   0.71444   0.51081   0.00000  Uiso   1.00
C101   C     0.23750   0.70644   0.60418   0.00000  Uiso   1.00
C102   C     0.89712   0.65011   0.37549   0.00000  Uiso   1.00
C103   C     0.85397   0.62297   0.27487   0.00000  Uiso   1.00
C104   C     0.83163   0.56374   0.27596   0.00000  Uiso   1.00
C105   C     0.78130   0.46854   0.23341   0.00000  Uiso   1.00
C106   C     0.96465   0.65752   0.57412   0.00000  Uiso   1.00
C107   C     0.92632   0.71702   0.56346   0.00000  Uiso   1.00
C108   C     0.91165   0.74009   0.64016   0.00000  Uiso   1.00
C109   C     0.87609   0.79525   0.61512   0.00000  Uiso   1.00
C110   C     0.02498   0.67536   0.56126   0.00000  Uiso   1.00
C111   C     0.09326   0.66339   0.63611   0.00000  Uiso   1.00
C112   C     0.14076   0.68346   0.60922   0.00000  Uiso   1.00
C113   C     0.91725   0.61919   0.47372   0.00000  Uiso   1.00
C114   C     0.89499   0.55999   0.47496   0.00000  Uiso   1.00
C115   C     0.85181   0.53276   0.37437   0.00000  Uiso   1.00
H116   H     0.91190   0.73852   0.31680   0.00000  Uiso   1.00
H117   H     0.85507   0.82699   0.36405   0.00000  Uiso   1.00
H118   H     0.03665   0.75029   0.35999   0.00000  Uiso   1.00
H119   H     0.83840   0.64691   0.19888   0.00000  Uiso   1.00
H120   H     0.80095   0.91146   0.45977   0.00000  Uiso   1.00
H121   H     0.18383   0.74971   0.45121   0.00000  Uiso   1.00
H122   H     0.76579   0.53171   0.11145   0.00000  Uiso   1.00
H123   H     0.98033   0.63345   0.65060   0.00000  Uiso   1.00
H124   H     0.92724   0.71616   0.71617   0.00000  Uiso   1.00
H125   H     0.10883   0.63946   0.71211   0.00000  Uiso   1.00
H126   H     0.91058   0.53608   0.55099   0.00000  Uiso   1.00
H127   H     0.85953   0.82150   0.74557   0.00000  Uiso   1.00
H128   H     0.24242   0.65976   0.73700   0.00000  Uiso   1.00
H129   H     0.82437   0.44175   0.39725   0.00000  Uiso   1.00
O130   O     0.79411   0.92279   0.63980   0.00000  Uiso   1.00
O131   O     0.29643   0.71058   0.62855   0.00000  Uiso   1.00
O132   O     0.74796   0.42457   0.18280   0.00000  Uiso   1.00
N133   N     0.82201   0.87893   0.51803   0.00000  Uiso   1.00
N134   N     0.17998   0.72772   0.51003   0.00000  Uiso   1.00
N135   N     0.78916   0.52389   0.19238   0.00000  Uiso   1.00
N136   N     0.85353   0.83052   0.67181   0.00000  Uiso   1.00
N137   N     0.21151   0.67931   0.66381   0.00000  Uiso   1.00
N138   N     0.82068   0.47549   0.34617   0.00000  Uiso   1.00
C139   C     0.42758   0.21444   0.39327   0.00000  Uiso   1.00
C140   C     0.40618   0.24794   0.46523   0.00000  Uiso   1.00
C141   C     0.37063   0.30307   0.44007   0.00000  Uiso   1.00
C142   C     0.35592   0.32622   0.51672   0.00000  Uiso   1.00
C143   C     0.31966   0.38296   0.61353   0.00000  Uiso   1.00
C144   C     0.50484   0.20628   0.46303   0.00000  Uiso   1.00
C145   C     0.55225   0.22637   0.43602   0.00000  Uiso   1.00
C146   C     0.62059   0.21444   0.51081   0.00000  Uiso   1.00
C147   C     0.73750   0.20644   0.60418   0.00000  Uiso   1.00
C148   C     0.39712   0.15011   0.37549   0.00000  Uiso   1.00
C149   C     0.35397   0.12297   0.27487   0.00000  Uiso   1.00
C150   C     0.33163   0.06374   0.27596   0.00000  Uiso   1.00
C151   C     0.28130   0.96854   0.23341   0.00000  Uiso   1.00
C152   C     0.46465   0.15752   0.57412   0.00000  Uiso   1.00
C153   C     0.42632   0.21702   0.56346   0.00000  Uiso   1.00
C154   C     0.41165   0.24009   0.64016   0.00000  Uiso   1.00
C155   C     0.37609   0.29525   0.61512   0.00000  Uiso   1.00
C156   C     0.52498   0.17536   0.56126   0.00000  Uiso   1.00
C157   C     0.59326   0.16339   0.63611   0.00000  Uiso   1.00
C158   C     0.64076   0.18346   0.60922   0.00000  Uiso   1.00
C159   C     0.41725   0.11919   0.47372   0.00000  Uiso   1.00
C160   C     0.39499   0.05999   0.47496   0.00000  Uiso   1.00
C161   C     0.35181   0.03276   0.37437   0.00000  Uiso   1.00
H162   H     0.41190   0.23852   0.31680   0.00000  Uiso   1.00
H163   H     0.35507   0.32699   0.36405   0.00000  Uiso   1.00
H164   H     0.53665   0.25029   0.35999   0.00000  Uiso   1.00
H165   H     0.33840   0.14691   0.19888   0.00000  Uiso   1.00
H166   H     0.30095   0.41146   0.45977   0.00000  Uiso   1.00
H167   H     0.68383   0.24971   0.45121   0.00000  Uiso   1.00
H168   H     0.26579   0.03171   0.11145   0.00000  Uiso   1.00
H169   H     0.48033   0.13345   0.65060   0.00000  Uiso   1.00
H170   H     0.42724   0.21616   0.71617   0.00000  Uiso   1.00
H171   H     0.60883   0.13946   0.71211   0.00000  Uiso   1.00
H172   H     0.41058   0.03608   0.55099   0.00000  Uiso   1.00
H173   H     0.35953   0.32150   0.74557   0.00000  Uiso   1.00
H174   H     0.74242   0.15976   0.73700   0.00000  Uiso   1.00
H175   H     0.32437   0.94175   0.39725   0.00000  Uiso   1.00
O176   O     0.29411   0.42279   0.63980   0.00000  Uiso   1.00
O177   O     0.79643   0.21058   0.62855   0.00000  Uiso   1.00
O178   O     0.24796   0.92457   0.18280   0.00000  Uiso   1.00
N179   N     0.32201   0.37893   0.51803   0.00000  Uiso   1.00
N180   N     0.67998   0.22772   0.51003   0.00000  Uiso   1.00
N181   N     0.28916   0.02389   0.19238   0.00000  Uiso   1.00
N182   N     0.35353   0.33052   0.67181   0.00000  Uiso   1.00
N183   N     0.71151   0.17931   0.66381   0.00000  Uiso   1.00
N184   N     0.32068   0.97549   0.34617   0.00000  Uiso   1.00
C185   C     0.92758   0.28556   0.89327   0.00000  Uiso   1.00
C186   C     0.90618   0.25206   0.96523   0.00000  Uiso   1.00
C187   C     0.87063   0.19693   0.94007   0.00000  Uiso   1.00
C188   C     0.85592   0.17378   0.01672   0.00000  Uiso   1.00
C189   C     0.81966   0.11704   0.11353   0.00000  Uiso   1.00
C190   C     0.00484   0.29372   0.96303   0.00000  Uiso   1.00
C191   C     0.05225   0.27363   0.93602   0.00000  Uiso   1.00
C192   C     0.12059   0.28556   0.01081   0.00000  Uiso   1.00
C193   C     0.23750   0.29356   0.10418   0.00000  Uiso   1.00
C194   C     0.89712   0.34989   0.87549   0.00000  Uiso   1.00
C195   C     0.85397   0.37703   0.77487   0.00000  Uiso   1.00
C196   C     0.83163   0.43626   0.77596   0.00000  Uiso   1.00
C197   C     0.78130   0.53146   0.73341   0.00000  Uiso   1.00
C198   C     0.96465   0.34248   0.07412   0.00000  Uiso   1.00
C199   C     0.92632   0.28298   0.06346   0.00000  Uiso   1.00
C200   C     0.91165   0.25991   0.14016   0.00000  Uiso   1.00
C201   C     0.87609   0.20475   0.11512   0.00000  Uiso   1.00
C202   C     0.02498   0.32464   0.06126   0.00000  Uiso   1.00
C203   C     0.09326   0.33661   0.13611   0.00000  Uiso   1.00
C204   C     0.14076   0.31654   0.10922   0.00000  Uiso   1.00
C205   C     0.91725   0.38081   0.97372   0.00000  Uiso   1.00
C206   C     0.89499   0.44001   0.97496   0.00000  Uiso   1.00
C207   C     0.85181   0.46724   0.87437   0.00000  Uiso   1.00
H208   H     0.91190   0.26148   0.81680   0.00000  Uiso   1.00
H209   H     0.85507   0.17301   0.86405   0.00000  Uiso   1.00
H210   H     0.03665   0.24971   0.85999   0.00000  Uiso   1.00
H211   H     0.83840   0.35309   0.69888   0.00000  Uiso   1.00
H212   H     0.80095   0.08854   0.95977   0.00000  Uiso   1.00
H213   H     0.18383   0.25029   0.95121   0.00000  Uiso   1.00
H214   H     0.76579   0.46829   0.61145   0.00000  Uiso   1.00
H215   H     0.98033   0.36655   0.15060   0.00000  Uiso   1.00
H216   H     0.92724   0.28384   0.21617   0.00000  Uiso   1.00
H217   H     0.10883   0.36054   0.21211   0.00000  Uiso   1.00
H218   H     0.91058   0.46392   0.05099   0.00000  Uiso   1.00
H219   H     0.85953   0.17850   0.24557   0.00000  Uiso   1.00
H220   H     0.24242   0.34024   0.23700   0.00000  Uiso   1.00
H221   H     0.82437   0.55825   0.89725   0.00000  Uiso   1.00
O222   O     0.79411   0.07721   0.13980   0.00000  Uiso   1.00
O223   O     0.29643   0.28942   0.12855   0.00000  Uiso   1.00
O224   O     0.74796   0.57543   0.68280   0.00000  Uiso   1.00
N225   N     0.82201   0.12107   0.01803   0.00000  Uiso   1.00
N226   N     0.17998   0.27228   0.01003   0.00000  Uiso   1.00
N227   N     0.78916   0.47611   0.69238   0.00000  Uiso   1.00
N228   N     0.85353   0.16948   0.17181   0.00000  Uiso   1.00
N229   N     0.21151   0.32069   0.16381   0.00000  Uiso   1.00
N230   N     0.82068   0.52451   0.84617   0.00000  Uiso   1.00
C231   C     0.42758   0.78556   0.89327   0.00000  Uiso   1.00
C232   C     0.40618   0.75206   0.96523   0.00000  Uiso   1.00
C233   C     0.37063   0.69693   0.94007   0.00000  Uiso   1.00
C234   C     0.35592   0.67378   0.01672   0.00000  Uiso   1.00
C235   C     0.31966   0.61704   0.11353   0.00000  Uiso   1.00
C236   C     0.50484   0.79372   0.96303   0.00000  Uiso   1.00
C237   C     0.55225   0.77363   0.93602   0.00000  Uiso   1.00
C238   C     0.62059   0.78556   0.01081   0.00000  Uiso   1.00
C239   C     0.73750   0.79356   0.10418   0.00000  Uiso   1.00
C240   C     0.39712   0.84989   0.87549   0.00000  Uiso   1.00
C241   C     0.35397   0.87703   0.77487   0.00000  Uiso   1.00
C242   C     0.33163   0.93626   0.77596   0.00000  Uiso   1.00
C243   C     0.28130   0.03146   0.73341   0.00000  Uiso   1.00
C244   C     0.46465   0.84248   0.07412   0.00000  Uiso   1.00
C245   C     0.42632   0.78298   0.06346   0.00000  Uiso   1.00
C246   C     0.41165   0.75991   0.14016   0.00000  Uiso   1.00
C247   C     0.37609   0.70475   0.11512   0.00000  Uiso   1.00
C248   C     0.52498   0.82464   0.06126   0.00000  Uiso   1.00
C249   C     0.59326   0.83661   0.13611   0.00000  Uiso   1.00
C250   C     0.64076   0.81654   0.10922   0.00000  Uiso   1.00
C251   C     0.41725   0.88081   0.97372   0.00000  Uiso   1.00
C252   C     0.39499   0.94001   0.97496   0.00000  Uiso   1.00
C253   C     0.35181   0.96724   0.87437   0.00000  Uiso   1.00
H254   H     0.41190   0.76148   0.81680   0.00000  Uiso   1.00
H255   H     0.35507   0.67301   0.86405   0.00000  Uiso   1.00
H256   H     0.53665   0.74971   0.85999   0.00000  Uiso   1.00
H257   H     0.33840   0.85309   0.69888   0.00000  Uiso   1.00
H258   H     0.30095   0.58854   0.95977   0.00000  Uiso   1.00
H259   H     0.68383   0.75029   0.95121   0.00000  Uiso   1.00
H260   H     0.26579   0.96829   0.61145   0.00000  Uiso   1.00
H261   H     0.48033   0.86655   0.15060   0.00000  Uiso   1.00
H262   H     0.42724   0.78384   0.21617   0.00000  Uiso   1.00
H263   H     0.60883   0.86054   0.21211   0.00000  Uiso   1.00
H264   H     0.41058   0.96392   0.05099   0.00000  Uiso   1.00
H265   H     0.35953   0.67850   0.24557   0.00000  Uiso   1.00
H266   H     0.74242   0.84024   0.23700   0.00000  Uiso   1.00
H267   H     0.32437   0.05825   0.89725   0.00000  Uiso   1.00
O268   O     0.29411   0.57721   0.13980   0.00000  Uiso   1.00
O269   O     0.79643   0.78942   0.12855   0.00000  Uiso   1.00
O270   O     0.24796   0.07543   0.68280   0.00000  Uiso   1.00
N271   N     0.32201   0.62107   0.01803   0.00000  Uiso   1.00
N272   N     0.67998   0.77228   0.01003   0.00000  Uiso   1.00
N273   N     0.28916   0.97611   0.69238   0.00000  Uiso   1.00
N274   N     0.35353   0.66948   0.17181   0.00000  Uiso   1.00
N275   N     0.71151   0.82069   0.16381   0.00000  Uiso   1.00
N276   N     0.32068   0.02451   0.84617   0.00000  Uiso   1.00
C277   C     0.07242   0.28556   0.60673   0.00000  Uiso   1.00
C278   C     0.09382   0.25206   0.53477   0.00000  Uiso   1.00
C279   C     0.12937   0.19693   0.55993   0.00000  Uiso   1.00
C280   C     0.14408   0.17378   0.48328   0.00000  Uiso   1.00
C281   C     0.18034   0.11704   0.38647   0.00000  Uiso   1.00
C282   C     0.99516   0.29372   0.53697   0.00000  Uiso   1.00
C283   C     0.94775   0.27363   0.56398   0.00000  Uiso   1.00
C284   C     0.87941   0.28556   0.48919   0.00000  Uiso   1.00
C285   C     0.76250   0.29356   0.39582   0.00000  Uiso   1.00
C286   C     0.10288   0.34989   0.62451   0.00000  Uiso   1.00
C287   C     0.14603   0.37703   0.72513   0.00000  Uiso   1.00
C288   C     0.16837   0.43626   0.72404   0.00000  Uiso   1.00
C289   C     0.21870   0.53146   0.76659   0.00000  Uiso   1.00
C290   C     0.03535   0.34248   0.42588   0.00000  Uiso   1.00
C291   C     0.07368   0.28298   0.43654   0.00000  Uiso   1.00
C292   C     0.08835   0.25991   0.35984   0.00000  Uiso   1.00
C293   C     0.12391   0.20475   0.38488   0.00000  Uiso   1.00
C294   C     0.97502   0.32464   0.43874   0.00000  Uiso   1.00
C295   C     0.90674   0.33661   0.36389   0.00000  Uiso   1.00
C296   C     0.85924   0.31654   0.39078   0.00000  Uiso   1.00
C297   C     0.08275   0.38081   0.52628   0.00000  Uiso   1.00
C298   C     0.10501   0.44001   0.52504   0.00000  Uiso   1.00
C299   C     0.14819   0.46724   0.62563   0.00000  Uiso   1.00
H300   H     0.08810   0.26148   0.68320   0.00000  Uiso   1.00
H301   H     0.14493   0.17301   0.63595   0.00000  Uiso   1.00
H302   H     0.96335   0.24971   0.64001   0.00000  Uiso   1.00
H303   H     0.16160   0.35309   0.80112   0.00000  Uiso   1.00
H304   H     0.19905   0.08854   0.54023   0.00000  Uiso   1.00
H305   H     0.81617   0.25029   0.54879   0.00000  Uiso   1.00
H306   H     0.23421   0.46829   0.88855   0.00000  Uiso   1.00
H307   H     0.01967   0.36655   0.34940   0.00000  Uiso   1.00
H308   H     0.07276   0.28384   0.28383   0.00000  Uiso   1.00
H309   H     0.89117   0.36054   0.28789   0.00000  Uiso   1.00
H310   H     0.08942   0.46392   0.44901   0.00000  Uiso   1.00
H311   H     0.14047   0.17850   0.25443   0.00000  Uiso   1.00
H312   H     0.75758   0.34024   0.26300   0.00000  Uiso   1.00
H313   H     0.17563   0.55825   0.60275   0.00000  Uiso   1.00
O314   O     0.20589   0.07721   0.36020   0.00000  Uiso   1.00
O315   O     0.70357   0.28942   0.37145   0.00000  Uiso   1.00
O316   O     0.25204   0.57543   0.81720   0.00000  Uiso   1.00
N317   N     0.17799   0.12107   0.48197   0.00000  Uiso   1.00
N318   N     0.82002   0.27228   0.48997   0.00000  Uiso   1.00
N319   N     0.21084   0.47611   0.80762   0.00000  Uiso   1.00
N320   N     0.14647   0.16948   0.32819   0.00000  Uiso   1.00
N321   N     0.78849   0.32069   0.33619   0.00000  Uiso   1.00
N322   N     0.17932   0.52451   0.65383   0.00000  Uiso   1.00
C323   C     0.57242   0.78556   0.60673   0.00000  Uiso   1.00
C324   C     0.59382   0.75206   0.53477   0.00000  Uiso   1.00
C325   C     0.62937   0.69693   0.55993   0.00000  Uiso   1.00
C326   C     0.64408   0.67378   0.48328   0.00000  Uiso   1.00
C327   C     0.68034   0.61704   0.38647   0.00000  Uiso   1.00
C328   C     0.49516   0.79372   0.53697   0.00000  Uiso   1.00
C329   C     0.44775   0.77363   0.56398   0.00000  Uiso   1.00
C330   C     0.37941   0.78556   0.48919   0.00000  Uiso   1.00
C331   C     0.26250   0.79356   0.39582   0.00000  Uiso   1.00
C332   C     0.60288   0.84989   0.62451   0.00000  Uiso   1.00
C333   C     0.64603   0.87703   0.72513   0.00000  Uiso   1.00
C334   C     0.66837   0.93626   0.72404   0.00000  Uiso   1.00
C335   C     0.71870   0.03146   0.76659   0.00000  Uiso   1.00
C336   C     0.53535   0.84248   0.42588   0.00000  Uiso   1.00
C337   C     0.57368   0.78298   0.43654   0.00000  Uiso   1.00
C338   C     0.58835   0.75991   0.35984   0.00000  Uiso   1.00
C339   C     0.62391   0.70475   0.38488   0.00000  Uiso   1.00
C340   C     0.47502   0.82464   0.43874   0.00000  Uiso   1.00
C341   C     0.40674   0.83661   0.36389   0.00000  Uiso   1.00
C342   C     0.35924   0.81654   0.39078   0.00000  Uiso   1.00
C343   C     0.58275   0.88081   0.52628   0.00000  Uiso   1.00
C344   C     0.60501   0.94001   0.52504   0.00000  Uiso   1.00
C345   C     0.64819   0.96724   0.62563   0.00000  Uiso   1.00
H346   H     0.58810   0.76148   0.68320   0.00000  Uiso   1.00
H347   H     0.64493   0.67301   0.63595   0.00000  Uiso   1.00
H348   H     0.46335   0.74971   0.64001   0.00000  Uiso   1.00
H349   H     0.66160   0.85309   0.80112   0.00000  Uiso   1.00
H350   H     0.69905   0.58854   0.54023   0.00000  Uiso   1.00
H351   H     0.31617   0.75029   0.54879   0.00000  Uiso   1.00
H352   H     0.73421   0.96829   0.88855   0.00000  Uiso   1.00
H353   H     0.51967   0.86655   0.34940   0.00000  Uiso   1.00
H354   H     0.57276   0.78384   0.28383   0.00000  Uiso   1.00
H355   H     0.39117   0.86054   0.28789   0.00000  Uiso   1.00
H356   H     0.58942   0.96392   0.44901   0.00000  Uiso   1.00
H357   H     0.64047   0.67850   0.25443   0.00000  Uiso   1.00
H358   H     0.25758   0.84024   0.26300   0.00000  Uiso   1.00
H359   H     0.67563   0.05825   0.60275   0.00000  Uiso   1.00
O360   O     0.70589   0.57721   0.36020   0.00000  Uiso   1.00
O361   O     0.20357   0.78942   0.37145   0.00000  Uiso   1.00
O362   O     0.75204   0.07543   0.81720   0.00000  Uiso   1.00
N363   N     0.67799   0.62107   0.48197   0.00000  Uiso   1.00
N364   N     0.32002   0.77228   0.48997   0.00000  Uiso   1.00
N365   N     0.71084   0.97611   0.80762   0.00000  Uiso   1.00
N366   N     0.64647   0.66948   0.32819   0.00000  Uiso   1.00
N367   N     0.28849   0.82069   0.33619   0.00000  Uiso   1.00
N368   N     0.67932   0.02451   0.65383   0.00000  Uiso   1.00
