data_job_04169
_audit_creation_date              2018-12-19
_audit_creation_method            'Materials Studio'
_symmetry_space_group_name_H-M    'P1'
_symmetry_Int_Tables_number       1
_symmetry_cell_setting            triclinic
loop_
_symmetry_equiv_pos_as_xyz
  x,y,z
_cell_length_a                    23.5290
_cell_length_b                    14.0101
_cell_length_c                    11.6057
_cell_angle_alpha                 90.0000
_cell_angle_beta                  90.0000
_cell_angle_gamma                 90.0000
loop_
_atom_site_label
_atom_site_type_symbol
_atom_site_fract_x
_atom_site_fract_y
_atom_site_fract_z
_atom_site_U_iso_or_equiv
_atom_site_adp_type
_atom_site_occupancy
C1     C     0.63660   0.99861   0.68679   0.00000  Uiso   1.00
C2     C     0.62577   0.01436   0.81494   0.00000  Uiso   1.00
C3     C     0.60238   0.94822   0.89026   0.00000  Uiso   1.00
C4     C     0.59592   0.97636   0.00422   0.00000  Uiso   1.00
C5     C     0.57658   0.98699   0.19753   0.00000  Uiso   1.00
C6     C     0.60499   0.07830   0.62432   0.00000  Uiso   1.00
C7     C     0.56413   0.06590   0.53937   0.00000  Uiso   1.00
C8     C     0.54019   0.14788   0.49285   0.00000  Uiso   1.00
C9     C     0.48862   0.25777   0.39016   0.00000  Uiso   1.00
C10    C     0.69969   0.01804   0.66801   0.00000  Uiso   1.00
C11    C     0.73847   0.95499   0.61976   0.00000  Uiso   1.00
C12    C     0.79426   0.98624   0.61000   0.00000  Uiso   1.00
C13    C     0.88973   0.00257   0.57515   0.00000  Uiso   1.00
C14    C     0.66673   0.16622   0.75521   0.00000  Uiso   1.00
C15    C     0.64213   0.10540   0.85210   0.00000  Uiso   1.00
C16    C     0.63571   0.13366   0.96597   0.00000  Uiso   1.00
C17    C     0.61232   0.06757   0.04145   0.00000  Uiso   1.00
C18    C     0.62135   0.16934   0.66148   0.00000  Uiso   1.00
C19    C     0.59747   0.25135   0.61507   0.00000  Uiso   1.00
C20    C     0.55659   0.23909   0.53008   0.00000  Uiso   1.00
C21    C     0.71606   0.10908   0.70517   0.00000  Uiso   1.00
C22    C     0.77180   0.14044   0.69547   0.00000  Uiso   1.00
C23    C     0.81065   0.07745   0.64723   0.00000  Uiso   1.00
H24    H     0.62386   0.92773   0.65785   0.00000  Uiso   1.00
H25    H     0.58971   0.87777   0.86147   0.00000  Uiso   1.00
H26    H     0.55148   0.99544   0.51062   0.00000  Uiso   1.00
H27    H     0.72579   0.88455   0.59101   0.00000  Uiso   1.00
H28    H     0.55906   0.86254   0.10359   0.00000  Uiso   1.00
H29    H     0.47845   0.11066   0.36378   0.00000  Uiso   1.00
H30    H     0.84601   0.87681   0.53330   0.00000  Uiso   1.00
H31    H     0.67947   0.23711   0.78415   0.00000  Uiso   1.00
H32    H     0.64838   0.20412   0.99470   0.00000  Uiso   1.00
H33    H     0.61015   0.32179   0.64385   0.00000  Uiso   1.00
H34    H     0.78445   0.21090   0.72424   0.00000  Uiso   1.00
H35    H     0.60667   0.12742   0.21173   0.00000  Uiso   1.00
H36    H     0.52607   0.37554   0.47191   0.00000  Uiso   1.00
H37    H     0.89362   0.14169   0.64143   0.00000  Uiso   1.00
O38    O     0.56139   0.96771   0.29388   0.00000  Uiso   1.00
O39    O     0.45565   0.29323   0.32326   0.00000  Uiso   1.00
O40    O     0.93787   0.98642   0.54567   0.00000  Uiso   1.00
N41    N     0.57454   0.92940   0.10015   0.00000  Uiso   1.00
N42    N     0.49917   0.16137   0.40849   0.00000  Uiso   1.00
N43    N     0.84281   0.94276   0.56694   0.00000  Uiso   1.00
N44    N     0.60016   0.07193   0.15834   0.00000  Uiso   1.00
N45    N     0.52480   0.30390   0.46667   0.00000  Uiso   1.00
N46    N     0.86843   0.08529   0.62513   0.00000  Uiso   1.00
C47    C     0.36340   0.00139   0.68679   0.00000  Uiso   1.00
C48    C     0.37423   0.98564   0.81494   0.00000  Uiso   1.00
C49    C     0.39762   0.05178   0.89026   0.00000  Uiso   1.00
C50    C     0.40408   0.02364   0.00422   0.00000  Uiso   1.00
C51    C     0.42342   0.01301   0.19753   0.00000  Uiso   1.00
C52    C     0.39501   0.92170   0.62432   0.00000  Uiso   1.00
C53    C     0.43587   0.93410   0.53937   0.00000  Uiso   1.00
C54    C     0.45981   0.85212   0.49285   0.00000  Uiso   1.00
C55    C     0.51138   0.74223   0.39016   0.00000  Uiso   1.00
C56    C     0.30031   0.98196   0.66801   0.00000  Uiso   1.00
C57    C     0.26153   0.04501   0.61976   0.00000  Uiso   1.00
C58    C     0.20574   0.01376   0.61000   0.00000  Uiso   1.00
C59    C     0.11027   0.99743   0.57515   0.00000  Uiso   1.00
C60    C     0.33327   0.83378   0.75521   0.00000  Uiso   1.00
C61    C     0.35787   0.89460   0.85210   0.00000  Uiso   1.00
C62    C     0.36429   0.86634   0.96597   0.00000  Uiso   1.00
C63    C     0.38768   0.93243   0.04145   0.00000  Uiso   1.00
C64    C     0.37865   0.83066   0.66148   0.00000  Uiso   1.00
C65    C     0.40253   0.74865   0.61507   0.00000  Uiso   1.00
C66    C     0.44341   0.76091   0.53008   0.00000  Uiso   1.00
C67    C     0.28394   0.89092   0.70517   0.00000  Uiso   1.00
C68    C     0.22820   0.85956   0.69547   0.00000  Uiso   1.00
C69    C     0.18935   0.92255   0.64723   0.00000  Uiso   1.00
H70    H     0.37614   0.07227   0.65785   0.00000  Uiso   1.00
H71    H     0.41029   0.12223   0.86147   0.00000  Uiso   1.00
H72    H     0.44852   0.00456   0.51062   0.00000  Uiso   1.00
H73    H     0.27421   0.11545   0.59101   0.00000  Uiso   1.00
H74    H     0.44094   0.13746   0.10359   0.00000  Uiso   1.00
H75    H     0.52155   0.88934   0.36378   0.00000  Uiso   1.00
H76    H     0.15399   0.12319   0.53330   0.00000  Uiso   1.00
H77    H     0.32053   0.76289   0.78415   0.00000  Uiso   1.00
H78    H     0.35162   0.79588   0.99470   0.00000  Uiso   1.00
H79    H     0.38985   0.67821   0.64385   0.00000  Uiso   1.00
H80    H     0.21555   0.78910   0.72424   0.00000  Uiso   1.00
H81    H     0.39333   0.87258   0.21173   0.00000  Uiso   1.00
H82    H     0.47393   0.62446   0.47191   0.00000  Uiso   1.00
H83    H     0.10638   0.85831   0.64143   0.00000  Uiso   1.00
O84    O     0.43861   0.03229   0.29388   0.00000  Uiso   1.00
O85    O     0.54435   0.70677   0.32326   0.00000  Uiso   1.00
O86    O     0.06213   0.01358   0.54567   0.00000  Uiso   1.00
N87    N     0.42546   0.07060   0.10015   0.00000  Uiso   1.00
N88    N     0.50083   0.83863   0.40849   0.00000  Uiso   1.00
N89    N     0.15719   0.05724   0.56694   0.00000  Uiso   1.00
N90    N     0.39984   0.92807   0.15834   0.00000  Uiso   1.00
N91    N     0.47520   0.69610   0.46667   0.00000  Uiso   1.00
N92    N     0.13157   0.91471   0.62513   0.00000  Uiso   1.00
C93    C     0.86340   0.49861   0.31321   0.00000  Uiso   1.00
C94    C     0.87423   0.51436   0.18506   0.00000  Uiso   1.00
C95    C     0.89762   0.44822   0.10974   0.00000  Uiso   1.00
C96    C     0.90408   0.47636   0.99578   0.00000  Uiso   1.00
C97    C     0.92342   0.48699   0.80247   0.00000  Uiso   1.00
C98    C     0.89501   0.57830   0.37568   0.00000  Uiso   1.00
C99    C     0.93587   0.56590   0.46063   0.00000  Uiso   1.00
C100   C     0.95981   0.64788   0.50715   0.00000  Uiso   1.00
C101   C     0.01138   0.75777   0.60984   0.00000  Uiso   1.00
C102   C     0.80031   0.51804   0.33199   0.00000  Uiso   1.00
C103   C     0.76153   0.45499   0.38024   0.00000  Uiso   1.00
C104   C     0.70574   0.48624   0.39000   0.00000  Uiso   1.00
C105   C     0.61027   0.50257   0.42485   0.00000  Uiso   1.00
C106   C     0.83327   0.66622   0.24479   0.00000  Uiso   1.00
C107   C     0.85787   0.60540   0.14790   0.00000  Uiso   1.00
C108   C     0.86429   0.63366   0.03403   0.00000  Uiso   1.00
C109   C     0.88768   0.56757   0.95855   0.00000  Uiso   1.00
C110   C     0.87865   0.66934   0.33852   0.00000  Uiso   1.00
C111   C     0.90253   0.75135   0.38493   0.00000  Uiso   1.00
C112   C     0.94341   0.73909   0.46992   0.00000  Uiso   1.00
C113   C     0.78394   0.60908   0.29483   0.00000  Uiso   1.00
C114   C     0.72820   0.64044   0.30453   0.00000  Uiso   1.00
C115   C     0.68935   0.57745   0.35277   0.00000  Uiso   1.00
H116   H     0.87614   0.42773   0.34215   0.00000  Uiso   1.00
H117   H     0.91029   0.37777   0.13853   0.00000  Uiso   1.00
H118   H     0.94852   0.49544   0.48938   0.00000  Uiso   1.00
H119   H     0.77421   0.38455   0.40899   0.00000  Uiso   1.00
H120   H     0.94094   0.36254   0.89641   0.00000  Uiso   1.00
H121   H     0.02155   0.61066   0.63622   0.00000  Uiso   1.00
H122   H     0.65399   0.37681   0.46670   0.00000  Uiso   1.00
H123   H     0.82053   0.73711   0.21585   0.00000  Uiso   1.00
H124   H     0.85162   0.70412   0.00530   0.00000  Uiso   1.00
H125   H     0.88985   0.82179   0.35615   0.00000  Uiso   1.00
H126   H     0.71555   0.71090   0.27576   0.00000  Uiso   1.00
H127   H     0.89333   0.62742   0.78827   0.00000  Uiso   1.00
H128   H     0.97393   0.87554   0.52809   0.00000  Uiso   1.00
H129   H     0.60638   0.64169   0.35857   0.00000  Uiso   1.00
O130   O     0.93861   0.46771   0.70612   0.00000  Uiso   1.00
O131   O     0.04435   0.79323   0.67674   0.00000  Uiso   1.00
O132   O     0.56213   0.48642   0.45433   0.00000  Uiso   1.00
N133   N     0.92546   0.42940   0.89985   0.00000  Uiso   1.00
N134   N     0.00083   0.66137   0.59151   0.00000  Uiso   1.00
N135   N     0.65719   0.44276   0.43306   0.00000  Uiso   1.00
N136   N     0.89984   0.57193   0.84166   0.00000  Uiso   1.00
N137   N     0.97520   0.80390   0.53333   0.00000  Uiso   1.00
N138   N     0.63157   0.58529   0.37487   0.00000  Uiso   1.00
C139   C     0.13660   0.50139   0.31321   0.00000  Uiso   1.00
C140   C     0.12577   0.48564   0.18506   0.00000  Uiso   1.00
C141   C     0.10238   0.55178   0.10974   0.00000  Uiso   1.00
C142   C     0.09592   0.52364   0.99578   0.00000  Uiso   1.00
C143   C     0.07658   0.51301   0.80247   0.00000  Uiso   1.00
C144   C     0.10499   0.42170   0.37568   0.00000  Uiso   1.00
C145   C     0.06413   0.43410   0.46063   0.00000  Uiso   1.00
C146   C     0.04019   0.35212   0.50715   0.00000  Uiso   1.00
C147   C     0.98862   0.24223   0.60984   0.00000  Uiso   1.00
C148   C     0.19969   0.48196   0.33199   0.00000  Uiso   1.00
C149   C     0.23847   0.54501   0.38024   0.00000  Uiso   1.00
C150   C     0.29426   0.51376   0.39000   0.00000  Uiso   1.00
C151   C     0.38973   0.49743   0.42485   0.00000  Uiso   1.00
C152   C     0.16673   0.33378   0.24479   0.00000  Uiso   1.00
C153   C     0.14213   0.39460   0.14790   0.00000  Uiso   1.00
C154   C     0.13571   0.36634   0.03403   0.00000  Uiso   1.00
C155   C     0.11232   0.43243   0.95855   0.00000  Uiso   1.00
C156   C     0.12135   0.33066   0.33852   0.00000  Uiso   1.00
C157   C     0.09747   0.24865   0.38493   0.00000  Uiso   1.00
C158   C     0.05659   0.26091   0.46992   0.00000  Uiso   1.00
C159   C     0.21606   0.39092   0.29483   0.00000  Uiso   1.00
C160   C     0.27180   0.35956   0.30453   0.00000  Uiso   1.00
C161   C     0.31065   0.42255   0.35277   0.00000  Uiso   1.00
H162   H     0.12386   0.57227   0.34215   0.00000  Uiso   1.00
H163   H     0.08971   0.62223   0.13853   0.00000  Uiso   1.00
H164   H     0.05148   0.50456   0.48938   0.00000  Uiso   1.00
H165   H     0.22579   0.61545   0.40899   0.00000  Uiso   1.00
H166   H     0.05906   0.63746   0.89641   0.00000  Uiso   1.00
H167   H     0.97845   0.38934   0.63622   0.00000  Uiso   1.00
H168   H     0.34601   0.62319   0.46670   0.00000  Uiso   1.00
H169   H     0.17947   0.26289   0.21585   0.00000  Uiso   1.00
H170   H     0.14838   0.29588   0.00530   0.00000  Uiso   1.00
H171   H     0.11015   0.17821   0.35615   0.00000  Uiso   1.00
H172   H     0.28445   0.28910   0.27576   0.00000  Uiso   1.00
H173   H     0.10667   0.37258   0.78827   0.00000  Uiso   1.00
H174   H     0.02607   0.12446   0.52809   0.00000  Uiso   1.00
H175   H     0.39362   0.35831   0.35857   0.00000  Uiso   1.00
O176   O     0.06139   0.53229   0.70612   0.00000  Uiso   1.00
O177   O     0.95565   0.20677   0.67674   0.00000  Uiso   1.00
O178   O     0.43787   0.51358   0.45433   0.00000  Uiso   1.00
N179   N     0.07454   0.57060   0.89985   0.00000  Uiso   1.00
N180   N     0.99917   0.33863   0.59151   0.00000  Uiso   1.00
N181   N     0.34281   0.55724   0.43306   0.00000  Uiso   1.00
N182   N     0.10016   0.42807   0.84166   0.00000  Uiso   1.00
N183   N     0.02480   0.19610   0.53333   0.00000  Uiso   1.00
N184   N     0.36843   0.41471   0.37487   0.00000  Uiso   1.00
