data_job_01747
_audit_creation_date              2018-12-19
_audit_creation_method            'Materials Studio'
_symmetry_space_group_name_H-M    'P1'
_symmetry_Int_Tables_number       1
_symmetry_cell_setting            triclinic
loop_
_symmetry_equiv_pos_as_xyz
  x,y,z
_cell_length_a                    37.0958
_cell_length_b                    12.0300
_cell_length_c                    12.9771
_cell_angle_alpha                 90.0000
_cell_angle_beta                  90.0000
_cell_angle_gamma                 90.0000
loop_
_atom_site_label
_atom_site_type_symbol
_atom_site_fract_x
_atom_site_fract_y
_atom_site_fract_z
_atom_site_U_iso_or_equiv
_atom_site_adp_type
_atom_site_occupancy
C1     C     0.82439   0.73815   0.57027   0.00000  Uiso   1.00
C2     C     0.81312   0.66931   0.47702   0.00000  Uiso   1.00
C3     C     0.78056   0.61379   0.46571   0.00000  Uiso   1.00
C4     C     0.77540   0.55537   0.37463   0.00000  Uiso   1.00
C5     C     0.75387   0.44884   0.24155   0.00000  Uiso   1.00
C6     C     0.85985   0.68832   0.60775   0.00000  Uiso   1.00
C7     C     0.86658   0.64880   0.70636   0.00000  Uiso   1.00
C8     C     0.90076   0.60641   0.72533   0.00000  Uiso   1.00
C9     C     0.95179   0.52948   0.79524   0.00000  Uiso   1.00
C10    C     0.83360   0.85338   0.52899   0.00000  Uiso   1.00
C11    C     0.81828   0.95265   0.56140   0.00000  Uiso   1.00
C12    C     0.83037   0.04922   0.51408   0.00000  Uiso   1.00
C13    C     0.84064   0.22856   0.46170   0.00000  Uiso   1.00
C14    C     0.87311   0.73314   0.42863   0.00000  Uiso   1.00
C15    C     0.83958   0.66659   0.40008   0.00000  Uiso   1.00
C16    C     0.83446   0.60824   0.30899   0.00000  Uiso   1.00
C17    C     0.80190   0.55265   0.29755   0.00000  Uiso   1.00
C18    C     0.88630   0.68560   0.53082   0.00000  Uiso   1.00
C19    C     0.92048   0.64326   0.54965   0.00000  Uiso   1.00
C20    C     0.92726   0.60368   0.64826   0.00000  Uiso   1.00
C21    C     0.86006   0.85066   0.45205   0.00000  Uiso   1.00
C22    C     0.87217   0.94710   0.40468   0.00000  Uiso   1.00
C23    C     0.85687   0.04650   0.43700   0.00000  Uiso   1.00
H24    H     0.80380   0.74027   0.63018   0.00000  Uiso   1.00
H25    H     0.76010   0.61590   0.52527   0.00000  Uiso   1.00
H26    H     0.84611   0.65093   0.76589   0.00000  Uiso   1.00
H27    H     0.79781   0.95472   0.62094   0.00000  Uiso   1.00
H28    H     0.72332   0.47679   0.37506   0.00000  Uiso   1.00
H29    H     0.90468   0.55068   0.88241   0.00000  Uiso   1.00
H30    H     0.80283   0.19128   0.57677   0.00000  Uiso   1.00
H31    H     0.89371   0.73102   0.36873   0.00000  Uiso   1.00
H32    H     0.85494   0.60615   0.24947   0.00000  Uiso   1.00
H33    H     0.94095   0.64118   0.49009   0.00000  Uiso   1.00
H34    H     0.89265   0.94497   0.34514   0.00000  Uiso   1.00
H35    H     0.80030   0.46887   0.15121   0.00000  Uiso   1.00
H36    H     0.98165   0.54276   0.65857   0.00000  Uiso   1.00
H37    H     0.87981   0.18337   0.35292   0.00000  Uiso   1.00
O38    O     0.73469   0.39082   0.18941   0.00000  Uiso   1.00
O39    O     0.97262   0.48778   0.85505   0.00000  Uiso   1.00
O40    O     0.83900   0.32824   0.45405   0.00000  Uiso   1.00
N41    N     0.74675   0.49208   0.33873   0.00000  Uiso   1.00
N42    N     0.91631   0.56115   0.81307   0.00000  Uiso   1.00
N43    N     0.82110   0.16006   0.52734   0.00000  Uiso   1.00
N44    N     0.78817   0.48782   0.21828   0.00000  Uiso   1.00
N45    N     0.95773   0.55689   0.69262   0.00000  Uiso   1.00
N46    N     0.86252   0.15580   0.40689   0.00000  Uiso   1.00
C47    C     0.67561   0.76185   0.07027   0.00000  Uiso   1.00
C48    C     0.68688   0.83069   0.97702   0.00000  Uiso   1.00
C49    C     0.71944   0.88621   0.96571   0.00000  Uiso   1.00
C50    C     0.72460   0.94463   0.87463   0.00000  Uiso   1.00
C51    C     0.74613   0.05116   0.74155   0.00000  Uiso   1.00
C52    C     0.64015   0.81168   0.10775   0.00000  Uiso   1.00
C53    C     0.63342   0.85120   0.20636   0.00000  Uiso   1.00
C54    C     0.59924   0.89359   0.22533   0.00000  Uiso   1.00
C55    C     0.54821   0.97052   0.29524   0.00000  Uiso   1.00
C56    C     0.66640   0.64662   0.02899   0.00000  Uiso   1.00
C57    C     0.68172   0.54735   0.06140   0.00000  Uiso   1.00
C58    C     0.66963   0.45078   0.01408   0.00000  Uiso   1.00
C59    C     0.65936   0.27144   0.96170   0.00000  Uiso   1.00
C60    C     0.62689   0.76686   0.92863   0.00000  Uiso   1.00
C61    C     0.66042   0.83341   0.90008   0.00000  Uiso   1.00
C62    C     0.66554   0.89176   0.80899   0.00000  Uiso   1.00
C63    C     0.69810   0.94735   0.79755   0.00000  Uiso   1.00
C64    C     0.61370   0.81440   0.03082   0.00000  Uiso   1.00
C65    C     0.57952   0.85674   0.04965   0.00000  Uiso   1.00
C66    C     0.57274   0.89632   0.14826   0.00000  Uiso   1.00
C67    C     0.63994   0.64934   0.95205   0.00000  Uiso   1.00
C68    C     0.62783   0.55290   0.90468   0.00000  Uiso   1.00
C69    C     0.64313   0.45350   0.93700   0.00000  Uiso   1.00
H70    H     0.69620   0.75973   0.13018   0.00000  Uiso   1.00
H71    H     0.73990   0.88410   0.02527   0.00000  Uiso   1.00
H72    H     0.65389   0.84907   0.26589   0.00000  Uiso   1.00
H73    H     0.70219   0.54528   0.12094   0.00000  Uiso   1.00
H74    H     0.77668   0.02321   0.87506   0.00000  Uiso   1.00
H75    H     0.59532   0.94932   0.38241   0.00000  Uiso   1.00
H76    H     0.69717   0.30872   0.07677   0.00000  Uiso   1.00
H77    H     0.60629   0.76898   0.86873   0.00000  Uiso   1.00
H78    H     0.64506   0.89385   0.74947   0.00000  Uiso   1.00
H79    H     0.55905   0.85882   0.99009   0.00000  Uiso   1.00
H80    H     0.60735   0.55503   0.84514   0.00000  Uiso   1.00
H81    H     0.69970   0.03113   0.65121   0.00000  Uiso   1.00
H82    H     0.51835   0.95724   0.15857   0.00000  Uiso   1.00
H83    H     0.62019   0.31663   0.85292   0.00000  Uiso   1.00
O84    O     0.76531   0.10918   0.68941   0.00000  Uiso   1.00
O85    O     0.52738   0.01222   0.35505   0.00000  Uiso   1.00
O86    O     0.66100   0.17176   0.95405   0.00000  Uiso   1.00
N87    N     0.75325   0.00792   0.83873   0.00000  Uiso   1.00
N88    N     0.58369   0.93885   0.31307   0.00000  Uiso   1.00
N89    N     0.67890   0.33994   0.02734   0.00000  Uiso   1.00
N90    N     0.71183   0.01218   0.71828   0.00000  Uiso   1.00
N91    N     0.54227   0.94311   0.19262   0.00000  Uiso   1.00
N92    N     0.63748   0.34420   0.90689   0.00000  Uiso   1.00
C93    C     0.17561   0.73815   0.92973   0.00000  Uiso   1.00
C94    C     0.18688   0.66931   0.02298   0.00000  Uiso   1.00
C95    C     0.21944   0.61379   0.03429   0.00000  Uiso   1.00
C96    C     0.22460   0.55537   0.12537   0.00000  Uiso   1.00
C97    C     0.24613   0.44884   0.25845   0.00000  Uiso   1.00
C98    C     0.14015   0.68832   0.89225   0.00000  Uiso   1.00
C99    C     0.13342   0.64880   0.79364   0.00000  Uiso   1.00
C100   C     0.09924   0.60641   0.77467   0.00000  Uiso   1.00
C101   C     0.04821   0.52948   0.70476   0.00000  Uiso   1.00
C102   C     0.16640   0.85338   0.97101   0.00000  Uiso   1.00
C103   C     0.18172   0.95265   0.93860   0.00000  Uiso   1.00
C104   C     0.16963   0.04922   0.98592   0.00000  Uiso   1.00
C105   C     0.15936   0.22856   0.03830   0.00000  Uiso   1.00
C106   C     0.12689   0.73314   0.07137   0.00000  Uiso   1.00
C107   C     0.16042   0.66659   0.09992   0.00000  Uiso   1.00
C108   C     0.16554   0.60824   0.19101   0.00000  Uiso   1.00
C109   C     0.19810   0.55265   0.20245   0.00000  Uiso   1.00
C110   C     0.11370   0.68560   0.96918   0.00000  Uiso   1.00
C111   C     0.07952   0.64326   0.95035   0.00000  Uiso   1.00
C112   C     0.07274   0.60368   0.85174   0.00000  Uiso   1.00
C113   C     0.13994   0.85066   0.04795   0.00000  Uiso   1.00
C114   C     0.12783   0.94710   0.09532   0.00000  Uiso   1.00
C115   C     0.14313   0.04650   0.06300   0.00000  Uiso   1.00
H116   H     0.19620   0.74027   0.86982   0.00000  Uiso   1.00
H117   H     0.23990   0.61590   0.97473   0.00000  Uiso   1.00
H118   H     0.15389   0.65093   0.73411   0.00000  Uiso   1.00
H119   H     0.20219   0.95472   0.87906   0.00000  Uiso   1.00
H120   H     0.27668   0.47679   0.12494   0.00000  Uiso   1.00
H121   H     0.09532   0.55068   0.61759   0.00000  Uiso   1.00
H122   H     0.19717   0.19128   0.92323   0.00000  Uiso   1.00
H123   H     0.10629   0.73102   0.13127   0.00000  Uiso   1.00
H124   H     0.14506   0.60615   0.25053   0.00000  Uiso   1.00
H125   H     0.05905   0.64118   0.00991   0.00000  Uiso   1.00
H126   H     0.10735   0.94497   0.15486   0.00000  Uiso   1.00
H127   H     0.19970   0.46887   0.34879   0.00000  Uiso   1.00
H128   H     0.01835   0.54276   0.84143   0.00000  Uiso   1.00
H129   H     0.12019   0.18337   0.14708   0.00000  Uiso   1.00
O130   O     0.26531   0.39082   0.31059   0.00000  Uiso   1.00
O131   O     0.02738   0.48778   0.64495   0.00000  Uiso   1.00
O132   O     0.16100   0.32824   0.04595   0.00000  Uiso   1.00
N133   N     0.25325   0.49208   0.16127   0.00000  Uiso   1.00
N134   N     0.08369   0.56115   0.68693   0.00000  Uiso   1.00
N135   N     0.17890   0.16006   0.97266   0.00000  Uiso   1.00
N136   N     0.21183   0.48782   0.28172   0.00000  Uiso   1.00
N137   N     0.04227   0.55689   0.80738   0.00000  Uiso   1.00
N138   N     0.13748   0.15580   0.09311   0.00000  Uiso   1.00
C139   C     0.32439   0.76185   0.42973   0.00000  Uiso   1.00
C140   C     0.31312   0.83069   0.52298   0.00000  Uiso   1.00
C141   C     0.28056   0.88621   0.53429   0.00000  Uiso   1.00
C142   C     0.27540   0.94463   0.62537   0.00000  Uiso   1.00
C143   C     0.25387   0.05116   0.75845   0.00000  Uiso   1.00
C144   C     0.35985   0.81168   0.39225   0.00000  Uiso   1.00
C145   C     0.36658   0.85120   0.29364   0.00000  Uiso   1.00
C146   C     0.40076   0.89359   0.27467   0.00000  Uiso   1.00
C147   C     0.45179   0.97052   0.20476   0.00000  Uiso   1.00
C148   C     0.33360   0.64662   0.47101   0.00000  Uiso   1.00
C149   C     0.31828   0.54735   0.43860   0.00000  Uiso   1.00
C150   C     0.33037   0.45078   0.48592   0.00000  Uiso   1.00
C151   C     0.34064   0.27144   0.53830   0.00000  Uiso   1.00
C152   C     0.37311   0.76686   0.57137   0.00000  Uiso   1.00
C153   C     0.33958   0.83341   0.59992   0.00000  Uiso   1.00
C154   C     0.33446   0.89176   0.69101   0.00000  Uiso   1.00
C155   C     0.30190   0.94735   0.70245   0.00000  Uiso   1.00
C156   C     0.38630   0.81440   0.46918   0.00000  Uiso   1.00
C157   C     0.42048   0.85674   0.45035   0.00000  Uiso   1.00
C158   C     0.42726   0.89632   0.35174   0.00000  Uiso   1.00
C159   C     0.36006   0.64934   0.54795   0.00000  Uiso   1.00
C160   C     0.37217   0.55290   0.59532   0.00000  Uiso   1.00
C161   C     0.35687   0.45350   0.56300   0.00000  Uiso   1.00
H162   H     0.30380   0.75973   0.36982   0.00000  Uiso   1.00
H163   H     0.26010   0.88410   0.47473   0.00000  Uiso   1.00
H164   H     0.34611   0.84907   0.23411   0.00000  Uiso   1.00
H165   H     0.29781   0.54528   0.37906   0.00000  Uiso   1.00
H166   H     0.22332   0.02321   0.62494   0.00000  Uiso   1.00
H167   H     0.40468   0.94932   0.11759   0.00000  Uiso   1.00
H168   H     0.30283   0.30872   0.42323   0.00000  Uiso   1.00
H169   H     0.39371   0.76898   0.63127   0.00000  Uiso   1.00
H170   H     0.35494   0.89385   0.75053   0.00000  Uiso   1.00
H171   H     0.44095   0.85882   0.50991   0.00000  Uiso   1.00
H172   H     0.39265   0.55503   0.65486   0.00000  Uiso   1.00
H173   H     0.30030   0.03113   0.84879   0.00000  Uiso   1.00
H174   H     0.48165   0.95724   0.34143   0.00000  Uiso   1.00
H175   H     0.37981   0.31663   0.64708   0.00000  Uiso   1.00
O176   O     0.23469   0.10918   0.81059   0.00000  Uiso   1.00
O177   O     0.47262   0.01222   0.14495   0.00000  Uiso   1.00
O178   O     0.33900   0.17176   0.54595   0.00000  Uiso   1.00
N179   N     0.24675   0.00792   0.66127   0.00000  Uiso   1.00
N180   N     0.41631   0.93885   0.18693   0.00000  Uiso   1.00
N181   N     0.32110   0.33994   0.47266   0.00000  Uiso   1.00
N182   N     0.28817   0.01218   0.78172   0.00000  Uiso   1.00
N183   N     0.45773   0.94311   0.30738   0.00000  Uiso   1.00
N184   N     0.36252   0.34420   0.59311   0.00000  Uiso   1.00
C185   C     0.17561   0.26185   0.42973   0.00000  Uiso   1.00
C186   C     0.18688   0.33069   0.52298   0.00000  Uiso   1.00
C187   C     0.21944   0.38621   0.53429   0.00000  Uiso   1.00
C188   C     0.22460   0.44463   0.62537   0.00000  Uiso   1.00
C189   C     0.24613   0.55116   0.75845   0.00000  Uiso   1.00
C190   C     0.14015   0.31168   0.39225   0.00000  Uiso   1.00
C191   C     0.13342   0.35120   0.29364   0.00000  Uiso   1.00
C192   C     0.09924   0.39359   0.27467   0.00000  Uiso   1.00
C193   C     0.04821   0.47052   0.20476   0.00000  Uiso   1.00
C194   C     0.16640   0.14662   0.47101   0.00000  Uiso   1.00
C195   C     0.18172   0.04735   0.43860   0.00000  Uiso   1.00
C196   C     0.16963   0.95078   0.48592   0.00000  Uiso   1.00
C197   C     0.15936   0.77144   0.53830   0.00000  Uiso   1.00
C198   C     0.12689   0.26686   0.57137   0.00000  Uiso   1.00
C199   C     0.16042   0.33341   0.59992   0.00000  Uiso   1.00
C200   C     0.16554   0.39176   0.69101   0.00000  Uiso   1.00
C201   C     0.19810   0.44735   0.70245   0.00000  Uiso   1.00
C202   C     0.11370   0.31440   0.46918   0.00000  Uiso   1.00
C203   C     0.07952   0.35674   0.45035   0.00000  Uiso   1.00
C204   C     0.07274   0.39632   0.35174   0.00000  Uiso   1.00
C205   C     0.13994   0.14934   0.54795   0.00000  Uiso   1.00
C206   C     0.12783   0.05290   0.59532   0.00000  Uiso   1.00
C207   C     0.14313   0.95350   0.56300   0.00000  Uiso   1.00
H208   H     0.19620   0.25973   0.36982   0.00000  Uiso   1.00
H209   H     0.23990   0.38410   0.47473   0.00000  Uiso   1.00
H210   H     0.15389   0.34907   0.23411   0.00000  Uiso   1.00
H211   H     0.20219   0.04528   0.37906   0.00000  Uiso   1.00
H212   H     0.27668   0.52321   0.62494   0.00000  Uiso   1.00
H213   H     0.09532   0.44932   0.11759   0.00000  Uiso   1.00
H214   H     0.19717   0.80872   0.42323   0.00000  Uiso   1.00
H215   H     0.10629   0.26898   0.63127   0.00000  Uiso   1.00
H216   H     0.14506   0.39385   0.75053   0.00000  Uiso   1.00
H217   H     0.05905   0.35882   0.50991   0.00000  Uiso   1.00
H218   H     0.10735   0.05503   0.65486   0.00000  Uiso   1.00
H219   H     0.19970   0.53113   0.84879   0.00000  Uiso   1.00
H220   H     0.01835   0.45724   0.34143   0.00000  Uiso   1.00
H221   H     0.12019   0.81663   0.64708   0.00000  Uiso   1.00
O222   O     0.26531   0.60918   0.81059   0.00000  Uiso   1.00
O223   O     0.02738   0.51222   0.14495   0.00000  Uiso   1.00
O224   O     0.16100   0.67176   0.54595   0.00000  Uiso   1.00
N225   N     0.25325   0.50792   0.66127   0.00000  Uiso   1.00
N226   N     0.08369   0.43885   0.18693   0.00000  Uiso   1.00
N227   N     0.17890   0.83994   0.47266   0.00000  Uiso   1.00
N228   N     0.21183   0.51218   0.78172   0.00000  Uiso   1.00
N229   N     0.04227   0.44311   0.30738   0.00000  Uiso   1.00
N230   N     0.13748   0.84420   0.59311   0.00000  Uiso   1.00
C231   C     0.32439   0.23815   0.92973   0.00000  Uiso   1.00
C232   C     0.31312   0.16931   0.02298   0.00000  Uiso   1.00
C233   C     0.28056   0.11379   0.03429   0.00000  Uiso   1.00
C234   C     0.27540   0.05537   0.12537   0.00000  Uiso   1.00
C235   C     0.25387   0.94884   0.25845   0.00000  Uiso   1.00
C236   C     0.35985   0.18832   0.89225   0.00000  Uiso   1.00
C237   C     0.36658   0.14880   0.79364   0.00000  Uiso   1.00
C238   C     0.40076   0.10641   0.77467   0.00000  Uiso   1.00
C239   C     0.45179   0.02948   0.70476   0.00000  Uiso   1.00
C240   C     0.33360   0.35338   0.97101   0.00000  Uiso   1.00
C241   C     0.31828   0.45265   0.93860   0.00000  Uiso   1.00
C242   C     0.33037   0.54922   0.98592   0.00000  Uiso   1.00
C243   C     0.34064   0.72856   0.03830   0.00000  Uiso   1.00
C244   C     0.37311   0.23314   0.07137   0.00000  Uiso   1.00
C245   C     0.33958   0.16659   0.09992   0.00000  Uiso   1.00
C246   C     0.33446   0.10824   0.19101   0.00000  Uiso   1.00
C247   C     0.30190   0.05265   0.20245   0.00000  Uiso   1.00
C248   C     0.38630   0.18560   0.96918   0.00000  Uiso   1.00
C249   C     0.42048   0.14326   0.95035   0.00000  Uiso   1.00
C250   C     0.42726   0.10368   0.85174   0.00000  Uiso   1.00
C251   C     0.36006   0.35066   0.04795   0.00000  Uiso   1.00
C252   C     0.37217   0.44710   0.09532   0.00000  Uiso   1.00
C253   C     0.35687   0.54650   0.06300   0.00000  Uiso   1.00
H254   H     0.30380   0.24027   0.86982   0.00000  Uiso   1.00
H255   H     0.26010   0.11590   0.97473   0.00000  Uiso   1.00
H256   H     0.34611   0.15093   0.73411   0.00000  Uiso   1.00
H257   H     0.29781   0.45472   0.87906   0.00000  Uiso   1.00
H258   H     0.22332   0.97679   0.12494   0.00000  Uiso   1.00
H259   H     0.40468   0.05068   0.61759   0.00000  Uiso   1.00
H260   H     0.30283   0.69128   0.92323   0.00000  Uiso   1.00
H261   H     0.39371   0.23102   0.13127   0.00000  Uiso   1.00
H262   H     0.35494   0.10615   0.25053   0.00000  Uiso   1.00
H263   H     0.44095   0.14118   0.00991   0.00000  Uiso   1.00
H264   H     0.39265   0.44497   0.15486   0.00000  Uiso   1.00
H265   H     0.30030   0.96887   0.34879   0.00000  Uiso   1.00
H266   H     0.48165   0.04276   0.84143   0.00000  Uiso   1.00
H267   H     0.37981   0.68337   0.14708   0.00000  Uiso   1.00
O268   O     0.23469   0.89082   0.31059   0.00000  Uiso   1.00
O269   O     0.47262   0.98778   0.64495   0.00000  Uiso   1.00
O270   O     0.33900   0.82824   0.04595   0.00000  Uiso   1.00
N271   N     0.24675   0.99208   0.16127   0.00000  Uiso   1.00
N272   N     0.41631   0.06115   0.68693   0.00000  Uiso   1.00
N273   N     0.32110   0.66006   0.97266   0.00000  Uiso   1.00
N274   N     0.28817   0.98782   0.28172   0.00000  Uiso   1.00
N275   N     0.45773   0.05689   0.80738   0.00000  Uiso   1.00
N276   N     0.36252   0.65580   0.09311   0.00000  Uiso   1.00
C277   C     0.82439   0.26185   0.07027   0.00000  Uiso   1.00
C278   C     0.81312   0.33069   0.97702   0.00000  Uiso   1.00
C279   C     0.78056   0.38621   0.96571   0.00000  Uiso   1.00
C280   C     0.77540   0.44463   0.87463   0.00000  Uiso   1.00
C281   C     0.75387   0.55116   0.74155   0.00000  Uiso   1.00
C282   C     0.85985   0.31168   0.10775   0.00000  Uiso   1.00
C283   C     0.86658   0.35120   0.20636   0.00000  Uiso   1.00
C284   C     0.90076   0.39359   0.22533   0.00000  Uiso   1.00
C285   C     0.95179   0.47052   0.29524   0.00000  Uiso   1.00
C286   C     0.83360   0.14662   0.02899   0.00000  Uiso   1.00
C287   C     0.81828   0.04735   0.06140   0.00000  Uiso   1.00
C288   C     0.83037   0.95078   0.01408   0.00000  Uiso   1.00
C289   C     0.84064   0.77144   0.96170   0.00000  Uiso   1.00
C290   C     0.87311   0.26686   0.92863   0.00000  Uiso   1.00
C291   C     0.83958   0.33341   0.90008   0.00000  Uiso   1.00
C292   C     0.83446   0.39176   0.80899   0.00000  Uiso   1.00
C293   C     0.80190   0.44735   0.79755   0.00000  Uiso   1.00
C294   C     0.88630   0.31440   0.03082   0.00000  Uiso   1.00
C295   C     0.92048   0.35674   0.04965   0.00000  Uiso   1.00
C296   C     0.92726   0.39632   0.14826   0.00000  Uiso   1.00
C297   C     0.86006   0.14934   0.95205   0.00000  Uiso   1.00
C298   C     0.87217   0.05290   0.90468   0.00000  Uiso   1.00
C299   C     0.85687   0.95350   0.93700   0.00000  Uiso   1.00
H300   H     0.80380   0.25973   0.13018   0.00000  Uiso   1.00
H301   H     0.76010   0.38410   0.02527   0.00000  Uiso   1.00
H302   H     0.84611   0.34907   0.26589   0.00000  Uiso   1.00
H303   H     0.79781   0.04528   0.12094   0.00000  Uiso   1.00
H304   H     0.72332   0.52321   0.87506   0.00000  Uiso   1.00
H305   H     0.90468   0.44932   0.38241   0.00000  Uiso   1.00
H306   H     0.80283   0.80872   0.07677   0.00000  Uiso   1.00
H307   H     0.89371   0.26898   0.86873   0.00000  Uiso   1.00
H308   H     0.85494   0.39385   0.74947   0.00000  Uiso   1.00
H309   H     0.94095   0.35882   0.99009   0.00000  Uiso   1.00
H310   H     0.89265   0.05503   0.84514   0.00000  Uiso   1.00
H311   H     0.80030   0.53113   0.65121   0.00000  Uiso   1.00
H312   H     0.98165   0.45724   0.15857   0.00000  Uiso   1.00
H313   H     0.87981   0.81663   0.85292   0.00000  Uiso   1.00
O314   O     0.73469   0.60918   0.68941   0.00000  Uiso   1.00
O315   O     0.97262   0.51222   0.35505   0.00000  Uiso   1.00
O316   O     0.83900   0.67176   0.95405   0.00000  Uiso   1.00
N317   N     0.74675   0.50792   0.83873   0.00000  Uiso   1.00
N318   N     0.91631   0.43885   0.31307   0.00000  Uiso   1.00
N319   N     0.82110   0.83994   0.02734   0.00000  Uiso   1.00
N320   N     0.78817   0.51218   0.71828   0.00000  Uiso   1.00
N321   N     0.95773   0.44311   0.19262   0.00000  Uiso   1.00
N322   N     0.86252   0.84420   0.90689   0.00000  Uiso   1.00
C323   C     0.67561   0.23815   0.57027   0.00000  Uiso   1.00
C324   C     0.68688   0.16931   0.47702   0.00000  Uiso   1.00
C325   C     0.71944   0.11379   0.46571   0.00000  Uiso   1.00
C326   C     0.72460   0.05537   0.37463   0.00000  Uiso   1.00
C327   C     0.74613   0.94884   0.24155   0.00000  Uiso   1.00
C328   C     0.64015   0.18832   0.60775   0.00000  Uiso   1.00
C329   C     0.63342   0.14880   0.70636   0.00000  Uiso   1.00
C330   C     0.59924   0.10641   0.72533   0.00000  Uiso   1.00
C331   C     0.54821   0.02948   0.79524   0.00000  Uiso   1.00
C332   C     0.66640   0.35338   0.52899   0.00000  Uiso   1.00
C333   C     0.68172   0.45265   0.56140   0.00000  Uiso   1.00
C334   C     0.66963   0.54922   0.51408   0.00000  Uiso   1.00
C335   C     0.65936   0.72856   0.46170   0.00000  Uiso   1.00
C336   C     0.62689   0.23314   0.42863   0.00000  Uiso   1.00
C337   C     0.66042   0.16659   0.40008   0.00000  Uiso   1.00
C338   C     0.66554   0.10824   0.30899   0.00000  Uiso   1.00
C339   C     0.69810   0.05265   0.29755   0.00000  Uiso   1.00
C340   C     0.61370   0.18560   0.53082   0.00000  Uiso   1.00
C341   C     0.57952   0.14326   0.54965   0.00000  Uiso   1.00
C342   C     0.57274   0.10368   0.64826   0.00000  Uiso   1.00
C343   C     0.63994   0.35066   0.45205   0.00000  Uiso   1.00
C344   C     0.62783   0.44710   0.40468   0.00000  Uiso   1.00
C345   C     0.64313   0.54650   0.43700   0.00000  Uiso   1.00
H346   H     0.69620   0.24027   0.63018   0.00000  Uiso   1.00
H347   H     0.73990   0.11590   0.52527   0.00000  Uiso   1.00
H348   H     0.65389   0.15093   0.76589   0.00000  Uiso   1.00
H349   H     0.70219   0.45472   0.62094   0.00000  Uiso   1.00
H350   H     0.77668   0.97679   0.37506   0.00000  Uiso   1.00
H351   H     0.59532   0.05068   0.88241   0.00000  Uiso   1.00
H352   H     0.69717   0.69128   0.57677   0.00000  Uiso   1.00
H353   H     0.60629   0.23102   0.36873   0.00000  Uiso   1.00
H354   H     0.64506   0.10615   0.24947   0.00000  Uiso   1.00
H355   H     0.55905   0.14118   0.49009   0.00000  Uiso   1.00
H356   H     0.60735   0.44497   0.34514   0.00000  Uiso   1.00
H357   H     0.69970   0.96887   0.15121   0.00000  Uiso   1.00
H358   H     0.51835   0.04276   0.65857   0.00000  Uiso   1.00
H359   H     0.62019   0.68337   0.35292   0.00000  Uiso   1.00
O360   O     0.76531   0.89082   0.18941   0.00000  Uiso   1.00
O361   O     0.52738   0.98778   0.85505   0.00000  Uiso   1.00
O362   O     0.66100   0.82824   0.45405   0.00000  Uiso   1.00
N363   N     0.75325   0.99208   0.33873   0.00000  Uiso   1.00
N364   N     0.58369   0.06115   0.81307   0.00000  Uiso   1.00
N365   N     0.67890   0.66006   0.52734   0.00000  Uiso   1.00
N366   N     0.71183   0.98782   0.21828   0.00000  Uiso   1.00
N367   N     0.54227   0.05689   0.69262   0.00000  Uiso   1.00
N368   N     0.63748   0.65580   0.40689   0.00000  Uiso   1.00
