data_job_03664
_audit_creation_date              2018-12-19
_audit_creation_method            'Materials Studio'
_symmetry_space_group_name_H-M    'P1'
_symmetry_Int_Tables_number       1
_symmetry_cell_setting            triclinic
loop_
_symmetry_equiv_pos_as_xyz
  x,y,z
_cell_length_a                    23.3589
_cell_length_b                    12.0905
_cell_length_c                    34.0672
_cell_angle_alpha                 90.0000
_cell_angle_beta                  136.0185
_cell_angle_gamma                 90.0000
loop_
_atom_site_label
_atom_site_type_symbol
_atom_site_fract_x
_atom_site_fract_y
_atom_site_fract_z
_atom_site_U_iso_or_equiv
_atom_site_adp_type
_atom_site_occupancy
C1     C     0.00892   0.63857   0.60391   0.00000  Uiso   1.00
C2     C     0.00896   0.52066   0.61982   0.00000  Uiso   1.00
C3     C     0.94058   0.45224   0.58920   0.00000  Uiso   1.00
C4     C     0.95344   0.34722   0.61085   0.00000  Uiso   1.00
C5     C     0.94157   0.16951   0.62790   0.00000  Uiso   1.00
C6     C     0.04541   0.71052   0.65431   0.00000  Uiso   1.00
C7     C     0.00768   0.80175   0.65268   0.00000  Uiso   1.00
C8     C     0.05123   0.85657   0.70337   0.00000  Uiso   1.00
C9     C     0.09597   0.97368   0.77395   0.00000  Uiso   1.00
C10    C     0.07136   0.64009   0.60126   0.00000  Uiso   1.00
C11    C     0.05546   0.67213   0.55504   0.00000  Uiso   1.00
C12    C     0.12087   0.66768   0.56106   0.00000  Uiso   1.00
C13    C     0.20590   0.67543   0.54928   0.00000  Uiso   1.00
C14    C     0.15336   0.57373   0.69681   0.00000  Uiso   1.00
C15    C     0.08742   0.48544   0.67028   0.00000  Uiso   1.00
C16    C     0.10039   0.38050   0.69199   0.00000  Uiso   1.00
C17    C     0.03203   0.31193   0.66140   0.00000  Uiso   1.00
C18    C     0.12386   0.67531   0.70477   0.00000  Uiso   1.00
C19    C     0.16748   0.73001   0.75547   0.00000  Uiso   1.00
C20    C     0.12983   0.82129   0.75392   0.00000  Uiso   1.00
C21    C     0.14982   0.60487   0.65172   0.00000  Uiso   1.00
C22    C     0.21526   0.60038   0.65783   0.00000  Uiso   1.00
C23    C     0.19946   0.63239   0.61162   0.00000  Uiso   1.00
H24    H     0.94784   0.66600   0.56462   0.00000  Uiso   1.00
H25    H     0.87987   0.47953   0.55015   0.00000  Uiso   1.00
H26    H     0.94697   0.82899   0.61362   0.00000  Uiso   1.00
H27    H     0.99474   0.69938   0.51599   0.00000  Uiso   1.00
H28    H     0.83912   0.25728   0.55637   0.00000  Uiso   1.00
H29    H     0.98060   0.99417   0.69020   0.00000  Uiso   1.00
H30    H     0.08133   0.72086   0.48433   0.00000  Uiso   1.00
H31    H     0.21444   0.54631   0.73610   0.00000  Uiso   1.00
H32    H     0.16110   0.35327   0.73104   0.00000  Uiso   1.00
H33    H     0.22820   0.70273   0.79451   0.00000  Uiso   1.00
H34    H     0.27597   0.57312   0.69688   0.00000  Uiso   1.00
H35    H     0.06737   0.15480   0.70319   0.00000  Uiso   1.00
H36    H     0.20885   0.89169   0.83702   0.00000  Uiso   1.00
H37    H     0.30959   0.61838   0.63115   0.00000  Uiso   1.00
O38    O     0.91334   0.08123   0.62336   0.00000  Uiso   1.00
O39    O     0.09897   0.04800   0.79894   0.00000  Uiso   1.00
O40    O     0.23113   0.68942   0.52884   0.00000  Uiso   1.00
N41    N     0.90016   0.25965   0.59161   0.00000  Uiso   1.00
N42    N     0.03243   0.94858   0.71674   0.00000  Uiso   1.00
N43    N     0.12661   0.69309   0.52427   0.00000  Uiso   1.00
N44    N     0.02298   0.20450   0.67061   0.00000  Uiso   1.00
N45    N     0.15525   0.89344   0.79574   0.00000  Uiso   1.00
N46    N     0.24944   0.63794   0.60327   0.00000  Uiso   1.00
C47    C     0.50892   0.13857   0.60391   0.00000  Uiso   1.00
C48    C     0.50896   0.02066   0.61982   0.00000  Uiso   1.00
C49    C     0.44058   0.95224   0.58920   0.00000  Uiso   1.00
C50    C     0.45344   0.84722   0.61085   0.00000  Uiso   1.00
C51    C     0.44157   0.66951   0.62790   0.00000  Uiso   1.00
C52    C     0.54541   0.21052   0.65431   0.00000  Uiso   1.00
C53    C     0.50768   0.30175   0.65268   0.00000  Uiso   1.00
C54    C     0.55123   0.35657   0.70337   0.00000  Uiso   1.00
C55    C     0.59597   0.47368   0.77395   0.00000  Uiso   1.00
C56    C     0.57136   0.14009   0.60126   0.00000  Uiso   1.00
C57    C     0.55546   0.17213   0.55504   0.00000  Uiso   1.00
C58    C     0.62087   0.16768   0.56106   0.00000  Uiso   1.00
C59    C     0.70590   0.17543   0.54928   0.00000  Uiso   1.00
C60    C     0.65336   0.07373   0.69681   0.00000  Uiso   1.00
C61    C     0.58742   0.98544   0.67028   0.00000  Uiso   1.00
C62    C     0.60039   0.88050   0.69199   0.00000  Uiso   1.00
C63    C     0.53203   0.81193   0.66140   0.00000  Uiso   1.00
C64    C     0.62386   0.17531   0.70477   0.00000  Uiso   1.00
C65    C     0.66748   0.23001   0.75547   0.00000  Uiso   1.00
C66    C     0.62983   0.32129   0.75392   0.00000  Uiso   1.00
C67    C     0.64982   0.10487   0.65172   0.00000  Uiso   1.00
C68    C     0.71526   0.10038   0.65783   0.00000  Uiso   1.00
C69    C     0.69946   0.13239   0.61162   0.00000  Uiso   1.00
H70    H     0.44784   0.16600   0.56462   0.00000  Uiso   1.00
H71    H     0.37987   0.97953   0.55015   0.00000  Uiso   1.00
H72    H     0.44697   0.32899   0.61362   0.00000  Uiso   1.00
H73    H     0.49474   0.19938   0.51599   0.00000  Uiso   1.00
H74    H     0.33912   0.75728   0.55637   0.00000  Uiso   1.00
H75    H     0.48060   0.49417   0.69020   0.00000  Uiso   1.00
H76    H     0.58133   0.22086   0.48433   0.00000  Uiso   1.00
H77    H     0.71444   0.04631   0.73610   0.00000  Uiso   1.00
H78    H     0.66110   0.85327   0.73104   0.00000  Uiso   1.00
H79    H     0.72820   0.20273   0.79451   0.00000  Uiso   1.00
H80    H     0.77597   0.07312   0.69688   0.00000  Uiso   1.00
H81    H     0.56737   0.65480   0.70319   0.00000  Uiso   1.00
H82    H     0.70885   0.39169   0.83702   0.00000  Uiso   1.00
H83    H     0.80959   0.11838   0.63115   0.00000  Uiso   1.00
O84    O     0.41334   0.58123   0.62336   0.00000  Uiso   1.00
O85    O     0.59897   0.54800   0.79894   0.00000  Uiso   1.00
O86    O     0.73113   0.18942   0.52884   0.00000  Uiso   1.00
N87    N     0.40016   0.75965   0.59161   0.00000  Uiso   1.00
N88    N     0.53243   0.44858   0.71674   0.00000  Uiso   1.00
N89    N     0.62661   0.19309   0.52427   0.00000  Uiso   1.00
N90    N     0.52298   0.70450   0.67061   0.00000  Uiso   1.00
N91    N     0.65525   0.39344   0.79574   0.00000  Uiso   1.00
N92    N     0.74944   0.13794   0.60327   0.00000  Uiso   1.00
C93    C     0.99108   0.63857   0.89609   0.00000  Uiso   1.00
C94    C     0.99104   0.52066   0.88018   0.00000  Uiso   1.00
C95    C     0.05942   0.45224   0.91080   0.00000  Uiso   1.00
C96    C     0.04656   0.34722   0.88915   0.00000  Uiso   1.00
C97    C     0.05843   0.16951   0.87210   0.00000  Uiso   1.00
C98    C     0.95459   0.71052   0.84569   0.00000  Uiso   1.00
C99    C     0.99232   0.80175   0.84732   0.00000  Uiso   1.00
C100   C     0.94877   0.85657   0.79663   0.00000  Uiso   1.00
C101   C     0.90403   0.97368   0.72605   0.00000  Uiso   1.00
C102   C     0.92864   0.64009   0.89874   0.00000  Uiso   1.00
C103   C     0.94454   0.67213   0.94496   0.00000  Uiso   1.00
C104   C     0.87913   0.66768   0.93894   0.00000  Uiso   1.00
C105   C     0.79410   0.67543   0.95072   0.00000  Uiso   1.00
C106   C     0.84664   0.57373   0.80319   0.00000  Uiso   1.00
C107   C     0.91258   0.48544   0.82972   0.00000  Uiso   1.00
C108   C     0.89961   0.38050   0.80801   0.00000  Uiso   1.00
C109   C     0.96797   0.31193   0.83860   0.00000  Uiso   1.00
C110   C     0.87614   0.67531   0.79523   0.00000  Uiso   1.00
C111   C     0.83252   0.73001   0.74453   0.00000  Uiso   1.00
C112   C     0.87017   0.82129   0.74608   0.00000  Uiso   1.00
C113   C     0.85018   0.60487   0.84828   0.00000  Uiso   1.00
C114   C     0.78474   0.60038   0.84217   0.00000  Uiso   1.00
C115   C     0.80054   0.63239   0.88838   0.00000  Uiso   1.00
H116   H     0.05216   0.66600   0.93538   0.00000  Uiso   1.00
H117   H     0.12013   0.47953   0.94985   0.00000  Uiso   1.00
H118   H     0.05303   0.82899   0.88638   0.00000  Uiso   1.00
H119   H     0.00526   0.69938   0.98401   0.00000  Uiso   1.00
H120   H     0.16088   0.25728   0.94363   0.00000  Uiso   1.00
H121   H     0.01940   0.99417   0.80980   0.00000  Uiso   1.00
H122   H     0.91867   0.72086   0.01567   0.00000  Uiso   1.00
H123   H     0.78556   0.54631   0.76390   0.00000  Uiso   1.00
H124   H     0.83890   0.35327   0.76896   0.00000  Uiso   1.00
H125   H     0.77180   0.70273   0.70549   0.00000  Uiso   1.00
H126   H     0.72403   0.57312   0.80312   0.00000  Uiso   1.00
H127   H     0.93263   0.15480   0.79681   0.00000  Uiso   1.00
H128   H     0.79115   0.89169   0.66298   0.00000  Uiso   1.00
H129   H     0.69041   0.61838   0.86885   0.00000  Uiso   1.00
O130   O     0.08666   0.08123   0.87664   0.00000  Uiso   1.00
O131   O     0.90103   0.04800   0.70106   0.00000  Uiso   1.00
O132   O     0.76887   0.68942   0.97116   0.00000  Uiso   1.00
N133   N     0.09984   0.25965   0.90839   0.00000  Uiso   1.00
N134   N     0.96757   0.94858   0.78326   0.00000  Uiso   1.00
N135   N     0.87339   0.69309   0.97573   0.00000  Uiso   1.00
N136   N     0.97702   0.20450   0.82939   0.00000  Uiso   1.00
N137   N     0.84475   0.89344   0.70426   0.00000  Uiso   1.00
N138   N     0.75056   0.63794   0.89673   0.00000  Uiso   1.00
C139   C     0.49108   0.13857   0.89609   0.00000  Uiso   1.00
C140   C     0.49104   0.02066   0.88018   0.00000  Uiso   1.00
C141   C     0.55942   0.95224   0.91080   0.00000  Uiso   1.00
C142   C     0.54656   0.84722   0.88915   0.00000  Uiso   1.00
C143   C     0.55843   0.66951   0.87210   0.00000  Uiso   1.00
C144   C     0.45459   0.21052   0.84569   0.00000  Uiso   1.00
C145   C     0.49232   0.30175   0.84732   0.00000  Uiso   1.00
C146   C     0.44877   0.35657   0.79663   0.00000  Uiso   1.00
C147   C     0.40403   0.47368   0.72605   0.00000  Uiso   1.00
C148   C     0.42864   0.14009   0.89874   0.00000  Uiso   1.00
C149   C     0.44454   0.17213   0.94496   0.00000  Uiso   1.00
C150   C     0.37913   0.16768   0.93894   0.00000  Uiso   1.00
C151   C     0.29410   0.17543   0.95072   0.00000  Uiso   1.00
C152   C     0.34664   0.07373   0.80319   0.00000  Uiso   1.00
C153   C     0.41258   0.98544   0.82972   0.00000  Uiso   1.00
C154   C     0.39961   0.88050   0.80801   0.00000  Uiso   1.00
C155   C     0.46797   0.81193   0.83860   0.00000  Uiso   1.00
C156   C     0.37614   0.17531   0.79523   0.00000  Uiso   1.00
C157   C     0.33252   0.23001   0.74453   0.00000  Uiso   1.00
C158   C     0.37017   0.32129   0.74608   0.00000  Uiso   1.00
C159   C     0.35018   0.10487   0.84828   0.00000  Uiso   1.00
C160   C     0.28474   0.10038   0.84217   0.00000  Uiso   1.00
C161   C     0.30054   0.13239   0.88838   0.00000  Uiso   1.00
H162   H     0.55216   0.16600   0.93538   0.00000  Uiso   1.00
H163   H     0.62013   0.97953   0.94985   0.00000  Uiso   1.00
H164   H     0.55303   0.32899   0.88638   0.00000  Uiso   1.00
H165   H     0.50526   0.19938   0.98401   0.00000  Uiso   1.00
H166   H     0.66088   0.75728   0.94363   0.00000  Uiso   1.00
H167   H     0.51940   0.49417   0.80980   0.00000  Uiso   1.00
H168   H     0.41867   0.22086   0.01567   0.00000  Uiso   1.00
H169   H     0.28556   0.04631   0.76390   0.00000  Uiso   1.00
H170   H     0.33890   0.85327   0.76896   0.00000  Uiso   1.00
H171   H     0.27180   0.20273   0.70549   0.00000  Uiso   1.00
H172   H     0.22403   0.07312   0.80312   0.00000  Uiso   1.00
H173   H     0.43263   0.65480   0.79681   0.00000  Uiso   1.00
H174   H     0.29115   0.39169   0.66298   0.00000  Uiso   1.00
H175   H     0.19041   0.11838   0.86885   0.00000  Uiso   1.00
O176   O     0.58666   0.58123   0.87664   0.00000  Uiso   1.00
O177   O     0.40103   0.54800   0.70106   0.00000  Uiso   1.00
O178   O     0.26887   0.18942   0.97116   0.00000  Uiso   1.00
N179   N     0.59984   0.75965   0.90839   0.00000  Uiso   1.00
N180   N     0.46757   0.44858   0.78326   0.00000  Uiso   1.00
N181   N     0.37339   0.19309   0.97573   0.00000  Uiso   1.00
N182   N     0.47702   0.70450   0.82939   0.00000  Uiso   1.00
N183   N     0.34475   0.39344   0.70426   0.00000  Uiso   1.00
N184   N     0.25056   0.13794   0.89673   0.00000  Uiso   1.00
C185   C     0.99108   0.36143   0.39609   0.00000  Uiso   1.00
C186   C     0.99104   0.47934   0.38018   0.00000  Uiso   1.00
C187   C     0.05942   0.54776   0.41080   0.00000  Uiso   1.00
C188   C     0.04656   0.65278   0.38915   0.00000  Uiso   1.00
C189   C     0.05843   0.83049   0.37210   0.00000  Uiso   1.00
C190   C     0.95459   0.28948   0.34569   0.00000  Uiso   1.00
C191   C     0.99232   0.19825   0.34732   0.00000  Uiso   1.00
C192   C     0.94877   0.14343   0.29663   0.00000  Uiso   1.00
C193   C     0.90403   0.02632   0.22605   0.00000  Uiso   1.00
C194   C     0.92864   0.35991   0.39874   0.00000  Uiso   1.00
C195   C     0.94454   0.32787   0.44496   0.00000  Uiso   1.00
C196   C     0.87913   0.33232   0.43894   0.00000  Uiso   1.00
C197   C     0.79410   0.32457   0.45072   0.00000  Uiso   1.00
C198   C     0.84664   0.42627   0.30319   0.00000  Uiso   1.00
C199   C     0.91258   0.51456   0.32972   0.00000  Uiso   1.00
C200   C     0.89961   0.61950   0.30801   0.00000  Uiso   1.00
C201   C     0.96797   0.68807   0.33860   0.00000  Uiso   1.00
C202   C     0.87614   0.32469   0.29523   0.00000  Uiso   1.00
C203   C     0.83252   0.26999   0.24453   0.00000  Uiso   1.00
C204   C     0.87017   0.17871   0.24608   0.00000  Uiso   1.00
C205   C     0.85018   0.39513   0.34828   0.00000  Uiso   1.00
C206   C     0.78474   0.39962   0.34217   0.00000  Uiso   1.00
C207   C     0.80054   0.36761   0.38838   0.00000  Uiso   1.00
H208   H     0.05216   0.33400   0.43538   0.00000  Uiso   1.00
H209   H     0.12013   0.52047   0.44985   0.00000  Uiso   1.00
H210   H     0.05303   0.17101   0.38638   0.00000  Uiso   1.00
H211   H     0.00526   0.30062   0.48401   0.00000  Uiso   1.00
H212   H     0.16088   0.74272   0.44363   0.00000  Uiso   1.00
H213   H     0.01940   0.00583   0.30980   0.00000  Uiso   1.00
H214   H     0.91867   0.27914   0.51567   0.00000  Uiso   1.00
H215   H     0.78556   0.45369   0.26390   0.00000  Uiso   1.00
H216   H     0.83890   0.64673   0.26896   0.00000  Uiso   1.00
H217   H     0.77180   0.29727   0.20549   0.00000  Uiso   1.00
H218   H     0.72403   0.42688   0.30312   0.00000  Uiso   1.00
H219   H     0.93263   0.84520   0.29681   0.00000  Uiso   1.00
H220   H     0.79115   0.10831   0.16298   0.00000  Uiso   1.00
H221   H     0.69041   0.38162   0.36885   0.00000  Uiso   1.00
O222   O     0.08666   0.91877   0.37664   0.00000  Uiso   1.00
O223   O     0.90103   0.95200   0.20106   0.00000  Uiso   1.00
O224   O     0.76887   0.31058   0.47116   0.00000  Uiso   1.00
N225   N     0.09984   0.74035   0.40839   0.00000  Uiso   1.00
N226   N     0.96757   0.05142   0.28326   0.00000  Uiso   1.00
N227   N     0.87339   0.30691   0.47573   0.00000  Uiso   1.00
N228   N     0.97702   0.79550   0.32939   0.00000  Uiso   1.00
N229   N     0.84475   0.10656   0.20426   0.00000  Uiso   1.00
N230   N     0.75056   0.36206   0.39673   0.00000  Uiso   1.00
C231   C     0.49108   0.86143   0.39609   0.00000  Uiso   1.00
C232   C     0.49104   0.97934   0.38018   0.00000  Uiso   1.00
C233   C     0.55942   0.04776   0.41080   0.00000  Uiso   1.00
C234   C     0.54656   0.15278   0.38915   0.00000  Uiso   1.00
C235   C     0.55843   0.33049   0.37210   0.00000  Uiso   1.00
C236   C     0.45459   0.78948   0.34569   0.00000  Uiso   1.00
C237   C     0.49232   0.69825   0.34732   0.00000  Uiso   1.00
C238   C     0.44877   0.64343   0.29663   0.00000  Uiso   1.00
C239   C     0.40403   0.52632   0.22605   0.00000  Uiso   1.00
C240   C     0.42864   0.85991   0.39874   0.00000  Uiso   1.00
C241   C     0.44454   0.82787   0.44496   0.00000  Uiso   1.00
C242   C     0.37913   0.83232   0.43894   0.00000  Uiso   1.00
C243   C     0.29410   0.82457   0.45072   0.00000  Uiso   1.00
C244   C     0.34664   0.92627   0.30319   0.00000  Uiso   1.00
C245   C     0.41258   0.01456   0.32972   0.00000  Uiso   1.00
C246   C     0.39961   0.11950   0.30801   0.00000  Uiso   1.00
C247   C     0.46797   0.18807   0.33860   0.00000  Uiso   1.00
C248   C     0.37614   0.82469   0.29523   0.00000  Uiso   1.00
C249   C     0.33252   0.76999   0.24453   0.00000  Uiso   1.00
C250   C     0.37017   0.67871   0.24608   0.00000  Uiso   1.00
C251   C     0.35018   0.89513   0.34828   0.00000  Uiso   1.00
C252   C     0.28474   0.89962   0.34217   0.00000  Uiso   1.00
C253   C     0.30054   0.86761   0.38838   0.00000  Uiso   1.00
H254   H     0.55216   0.83400   0.43538   0.00000  Uiso   1.00
H255   H     0.62013   0.02047   0.44985   0.00000  Uiso   1.00
H256   H     0.55303   0.67101   0.38638   0.00000  Uiso   1.00
H257   H     0.50526   0.80062   0.48401   0.00000  Uiso   1.00
H258   H     0.66088   0.24272   0.44363   0.00000  Uiso   1.00
H259   H     0.51940   0.50583   0.30980   0.00000  Uiso   1.00
H260   H     0.41867   0.77914   0.51567   0.00000  Uiso   1.00
H261   H     0.28556   0.95369   0.26390   0.00000  Uiso   1.00
H262   H     0.33890   0.14673   0.26896   0.00000  Uiso   1.00
H263   H     0.27180   0.79727   0.20549   0.00000  Uiso   1.00
H264   H     0.22403   0.92688   0.30312   0.00000  Uiso   1.00
H265   H     0.43263   0.34520   0.29681   0.00000  Uiso   1.00
H266   H     0.29115   0.60831   0.16298   0.00000  Uiso   1.00
H267   H     0.19041   0.88162   0.36885   0.00000  Uiso   1.00
O268   O     0.58666   0.41877   0.37664   0.00000  Uiso   1.00
O269   O     0.40103   0.45200   0.20106   0.00000  Uiso   1.00
O270   O     0.26887   0.81058   0.47116   0.00000  Uiso   1.00
N271   N     0.59984   0.24035   0.40839   0.00000  Uiso   1.00
N272   N     0.46757   0.55142   0.28326   0.00000  Uiso   1.00
N273   N     0.37339   0.80691   0.47573   0.00000  Uiso   1.00
N274   N     0.47702   0.29550   0.32939   0.00000  Uiso   1.00
N275   N     0.34475   0.60656   0.20426   0.00000  Uiso   1.00
N276   N     0.25056   0.86206   0.39673   0.00000  Uiso   1.00
C277   C     0.00892   0.36143   0.10391   0.00000  Uiso   1.00
C278   C     0.00896   0.47934   0.11982   0.00000  Uiso   1.00
C279   C     0.94058   0.54776   0.08920   0.00000  Uiso   1.00
C280   C     0.95344   0.65278   0.11085   0.00000  Uiso   1.00
C281   C     0.94157   0.83049   0.12790   0.00000  Uiso   1.00
C282   C     0.04541   0.28948   0.15431   0.00000  Uiso   1.00
C283   C     0.00768   0.19825   0.15268   0.00000  Uiso   1.00
C284   C     0.05123   0.14343   0.20337   0.00000  Uiso   1.00
C285   C     0.09597   0.02632   0.27395   0.00000  Uiso   1.00
C286   C     0.07136   0.35991   0.10126   0.00000  Uiso   1.00
C287   C     0.05546   0.32787   0.05504   0.00000  Uiso   1.00
C288   C     0.12087   0.33232   0.06106   0.00000  Uiso   1.00
C289   C     0.20590   0.32457   0.04928   0.00000  Uiso   1.00
C290   C     0.15336   0.42627   0.19681   0.00000  Uiso   1.00
C291   C     0.08742   0.51456   0.17028   0.00000  Uiso   1.00
C292   C     0.10039   0.61950   0.19199   0.00000  Uiso   1.00
C293   C     0.03203   0.68807   0.16140   0.00000  Uiso   1.00
C294   C     0.12386   0.32469   0.20477   0.00000  Uiso   1.00
C295   C     0.16748   0.26999   0.25547   0.00000  Uiso   1.00
C296   C     0.12983   0.17871   0.25392   0.00000  Uiso   1.00
C297   C     0.14982   0.39513   0.15172   0.00000  Uiso   1.00
C298   C     0.21526   0.39962   0.15783   0.00000  Uiso   1.00
C299   C     0.19946   0.36761   0.11162   0.00000  Uiso   1.00
H300   H     0.94784   0.33400   0.06462   0.00000  Uiso   1.00
H301   H     0.87987   0.52047   0.05015   0.00000  Uiso   1.00
H302   H     0.94697   0.17101   0.11362   0.00000  Uiso   1.00
H303   H     0.99474   0.30062   0.01599   0.00000  Uiso   1.00
H304   H     0.83912   0.74272   0.05637   0.00000  Uiso   1.00
H305   H     0.98060   0.00583   0.19020   0.00000  Uiso   1.00
H306   H     0.08133   0.27914   0.98433   0.00000  Uiso   1.00
H307   H     0.21444   0.45369   0.23610   0.00000  Uiso   1.00
H308   H     0.16110   0.64673   0.23104   0.00000  Uiso   1.00
H309   H     0.22820   0.29727   0.29451   0.00000  Uiso   1.00
H310   H     0.27597   0.42688   0.19688   0.00000  Uiso   1.00
H311   H     0.06737   0.84520   0.20319   0.00000  Uiso   1.00
H312   H     0.20885   0.10831   0.33702   0.00000  Uiso   1.00
H313   H     0.30959   0.38162   0.13115   0.00000  Uiso   1.00
O314   O     0.91334   0.91877   0.12336   0.00000  Uiso   1.00
O315   O     0.09897   0.95200   0.29894   0.00000  Uiso   1.00
O316   O     0.23113   0.31058   0.02884   0.00000  Uiso   1.00
N317   N     0.90016   0.74035   0.09161   0.00000  Uiso   1.00
N318   N     0.03243   0.05142   0.21674   0.00000  Uiso   1.00
N319   N     0.12661   0.30691   0.02427   0.00000  Uiso   1.00
N320   N     0.02298   0.79550   0.17061   0.00000  Uiso   1.00
N321   N     0.15525   0.10656   0.29574   0.00000  Uiso   1.00
N322   N     0.24944   0.36206   0.10327   0.00000  Uiso   1.00
C323   C     0.50892   0.86143   0.10391   0.00000  Uiso   1.00
C324   C     0.50896   0.97934   0.11982   0.00000  Uiso   1.00
C325   C     0.44058   0.04776   0.08920   0.00000  Uiso   1.00
C326   C     0.45344   0.15278   0.11085   0.00000  Uiso   1.00
C327   C     0.44157   0.33049   0.12790   0.00000  Uiso   1.00
C328   C     0.54541   0.78948   0.15431   0.00000  Uiso   1.00
C329   C     0.50768   0.69825   0.15268   0.00000  Uiso   1.00
C330   C     0.55123   0.64343   0.20337   0.00000  Uiso   1.00
C331   C     0.59597   0.52632   0.27395   0.00000  Uiso   1.00
C332   C     0.57136   0.85991   0.10126   0.00000  Uiso   1.00
C333   C     0.55546   0.82787   0.05504   0.00000  Uiso   1.00
C334   C     0.62087   0.83232   0.06106   0.00000  Uiso   1.00
C335   C     0.70590   0.82457   0.04928   0.00000  Uiso   1.00
C336   C     0.65336   0.92627   0.19681   0.00000  Uiso   1.00
C337   C     0.58742   0.01456   0.17028   0.00000  Uiso   1.00
C338   C     0.60039   0.11950   0.19199   0.00000  Uiso   1.00
C339   C     0.53203   0.18807   0.16140   0.00000  Uiso   1.00
C340   C     0.62386   0.82469   0.20477   0.00000  Uiso   1.00
C341   C     0.66748   0.76999   0.25547   0.00000  Uiso   1.00
C342   C     0.62983   0.67871   0.25392   0.00000  Uiso   1.00
C343   C     0.64982   0.89513   0.15172   0.00000  Uiso   1.00
C344   C     0.71526   0.89962   0.15783   0.00000  Uiso   1.00
C345   C     0.69946   0.86761   0.11162   0.00000  Uiso   1.00
H346   H     0.44784   0.83400   0.06462   0.00000  Uiso   1.00
H347   H     0.37987   0.02047   0.05015   0.00000  Uiso   1.00
H348   H     0.44697   0.67101   0.11362   0.00000  Uiso   1.00
H349   H     0.49474   0.80062   0.01599   0.00000  Uiso   1.00
H350   H     0.33912   0.24272   0.05637   0.00000  Uiso   1.00
H351   H     0.48060   0.50583   0.19020   0.00000  Uiso   1.00
H352   H     0.58133   0.77914   0.98433   0.00000  Uiso   1.00
H353   H     0.71444   0.95369   0.23610   0.00000  Uiso   1.00
H354   H     0.66110   0.14673   0.23104   0.00000  Uiso   1.00
H355   H     0.72820   0.79727   0.29451   0.00000  Uiso   1.00
H356   H     0.77597   0.92688   0.19688   0.00000  Uiso   1.00
H357   H     0.56737   0.34520   0.20319   0.00000  Uiso   1.00
H358   H     0.70885   0.60831   0.33702   0.00000  Uiso   1.00
H359   H     0.80959   0.88162   0.13115   0.00000  Uiso   1.00
O360   O     0.41334   0.41877   0.12336   0.00000  Uiso   1.00
O361   O     0.59897   0.45200   0.29894   0.00000  Uiso   1.00
O362   O     0.73113   0.81058   0.02884   0.00000  Uiso   1.00
N363   N     0.40016   0.24035   0.09161   0.00000  Uiso   1.00
N364   N     0.53243   0.55142   0.21674   0.00000  Uiso   1.00
N365   N     0.62661   0.80691   0.02427   0.00000  Uiso   1.00
N366   N     0.52298   0.29550   0.17061   0.00000  Uiso   1.00
N367   N     0.65525   0.60656   0.29574   0.00000  Uiso   1.00
N368   N     0.74944   0.86206   0.10327   0.00000  Uiso   1.00
