data_job_03081
_audit_creation_date              2018-12-19
_audit_creation_method            'Materials Studio'
_symmetry_space_group_name_H-M    'P1'
_symmetry_Int_Tables_number       1
_symmetry_cell_setting            triclinic
loop_
_symmetry_equiv_pos_as_xyz
  x,y,z
_cell_length_a                    11.1692
_cell_length_b                    22.4252
_cell_length_c                    19.2999
_cell_angle_alpha                 90.0000
_cell_angle_beta                  135.6056
_cell_angle_gamma                 90.0000
loop_
_atom_site_label
_atom_site_type_symbol
_atom_site_fract_x
_atom_site_fract_y
_atom_site_fract_z
_atom_site_U_iso_or_equiv
_atom_site_adp_type
_atom_site_occupancy
C1     C     0.51665   0.17911   0.54932   0.00000  Uiso   1.00
C2     C     0.38897   0.13732   0.46171   0.00000  Uiso   1.00
C3     C     0.42360   0.09996   0.42045   0.00000  Uiso   1.00
C4     C     0.28948   0.06519   0.34060   0.00000  Uiso   1.00
C5     C     0.11596   0.99993   0.21019   0.00000  Uiso   1.00
C6     C     0.43762   0.24121   0.51303   0.00000  Uiso   1.00
C7     C     0.51318   0.29120   0.51494   0.00000  Uiso   1.00
C8     C     0.42001   0.34390   0.47831   0.00000  Uiso   1.00
C9     C     0.32209   0.43994   0.42764   0.00000  Uiso   1.00
C10    C     0.51792   0.16203   0.62632   0.00000  Uiso   1.00
C11    C     0.66101   0.14547   0.72349   0.00000  Uiso   1.00
C12    C     0.63546   0.13152   0.78225   0.00000  Uiso   1.00
C13    C     0.66221   0.10463   0.90748   0.00000  Uiso   1.00
C14    C     0.21686   0.18381   0.48089   0.00000  Uiso   1.00
C15    C     0.22613   0.13987   0.42454   0.00000  Uiso   1.00
C16    C     0.09192   0.10515   0.34474   0.00000  Uiso   1.00
C17    C     0.12635   0.06774   0.30337   0.00000  Uiso   1.00
C18    C     0.27479   0.24376   0.47586   0.00000  Uiso   1.00
C19    C     0.18149   0.29640   0.43922   0.00000  Uiso   1.00
C20    C     0.25688   0.34646   0.44107   0.00000  Uiso   1.00
C21    C     0.35508   0.16458   0.58915   0.00000  Uiso   1.00
C22    C     0.32931   0.15066   0.64777   0.00000  Uiso   1.00
C23    C     0.47233   0.13408   0.74501   0.00000  Uiso   1.00
H24    H     0.64342   0.17713   0.57826   0.00000  Uiso   1.00
H25    H     0.54964   0.09800   0.44923   0.00000  Uiso   1.00
H26    H     0.63920   0.28922   0.54372   0.00000  Uiso   1.00
H27    H     0.78700   0.14350   0.75223   0.00000  Uiso   1.00
H28    H     0.37382   0.01141   0.28977   0.00000  Uiso   1.00
H29    H     0.56270   0.41461   0.48902   0.00000  Uiso   1.00
H30    H     0.87437   0.10734   0.92872   0.00000  Uiso   1.00
H31    H     0.09008   0.18579   0.45195   0.00000  Uiso   1.00
H32    H     0.96592   0.10713   0.31599   0.00000  Uiso   1.00
H33    H     0.05549   0.29835   0.41047   0.00000  Uiso   1.00
H34    H     0.20328   0.15264   0.61898   0.00000  Uiso   1.00
H35    H     0.90005   0.01882   0.18162   0.00000  Uiso   1.00
H36    H     0.08894   0.42202   0.38088   0.00000  Uiso   1.00
H37    H     0.40060   0.11476   0.82057   0.00000  Uiso   1.00
O38    O     0.06523   0.96323   0.14851   0.00000  Uiso   1.00
O39    O     0.31306   0.49221   0.40995   0.00000  Uiso   1.00
O40    O     0.72195   0.08908   0.98681   0.00000  Uiso   1.00
N41    N     0.27937   0.02394   0.28298   0.00000  Uiso   1.00
N42    N     0.45595   0.40090   0.46926   0.00000  Uiso   1.00
N43    N     0.74734   0.11365   0.88035   0.00000  Uiso   1.00
N44    N     0.02444   0.02793   0.22479   0.00000  Uiso   1.00
N45    N     0.20102   0.40489   0.41107   0.00000  Uiso   1.00
N46    N     0.49241   0.11764   0.82216   0.00000  Uiso   1.00
C47    C     0.48335   0.67911   0.95068   0.00000  Uiso   1.00
C48    C     0.61103   0.63732   0.03829   0.00000  Uiso   1.00
C49    C     0.57640   0.59996   0.07955   0.00000  Uiso   1.00
C50    C     0.71052   0.56519   0.15940   0.00000  Uiso   1.00
C51    C     0.88404   0.49993   0.28981   0.00000  Uiso   1.00
C52    C     0.56238   0.74121   0.98697   0.00000  Uiso   1.00
C53    C     0.48682   0.79120   0.98506   0.00000  Uiso   1.00
C54    C     0.57999   0.84390   0.02169   0.00000  Uiso   1.00
C55    C     0.67791   0.93994   0.07236   0.00000  Uiso   1.00
C56    C     0.48208   0.66203   0.87368   0.00000  Uiso   1.00
C57    C     0.33899   0.64547   0.77651   0.00000  Uiso   1.00
C58    C     0.36454   0.63152   0.71775   0.00000  Uiso   1.00
C59    C     0.33779   0.60463   0.59252   0.00000  Uiso   1.00
C60    C     0.78314   0.68381   0.01911   0.00000  Uiso   1.00
C61    C     0.77387   0.63987   0.07546   0.00000  Uiso   1.00
C62    C     0.90808   0.60515   0.15526   0.00000  Uiso   1.00
C63    C     0.87365   0.56774   0.19663   0.00000  Uiso   1.00
C64    C     0.72521   0.74376   0.02414   0.00000  Uiso   1.00
C65    C     0.81851   0.79640   0.06078   0.00000  Uiso   1.00
C66    C     0.74312   0.84646   0.05893   0.00000  Uiso   1.00
C67    C     0.64492   0.66458   0.91085   0.00000  Uiso   1.00
C68    C     0.67069   0.65066   0.85223   0.00000  Uiso   1.00
C69    C     0.52767   0.63408   0.75499   0.00000  Uiso   1.00
H70    H     0.35658   0.67713   0.92174   0.00000  Uiso   1.00
H71    H     0.45036   0.59800   0.05077   0.00000  Uiso   1.00
H72    H     0.36080   0.78922   0.95628   0.00000  Uiso   1.00
H73    H     0.21300   0.64350   0.74777   0.00000  Uiso   1.00
H74    H     0.62618   0.51141   0.21023   0.00000  Uiso   1.00
H75    H     0.43730   0.91461   0.01098   0.00000  Uiso   1.00
H76    H     0.12563   0.60734   0.57128   0.00000  Uiso   1.00
H77    H     0.90992   0.68579   0.04805   0.00000  Uiso   1.00
H78    H     0.03408   0.60713   0.18401   0.00000  Uiso   1.00
H79    H     0.94451   0.79835   0.08953   0.00000  Uiso   1.00
H80    H     0.79672   0.65264   0.88102   0.00000  Uiso   1.00
H81    H     0.09995   0.51882   0.31838   0.00000  Uiso   1.00
H82    H     0.91106   0.92202   0.11912   0.00000  Uiso   1.00
H83    H     0.59940   0.61476   0.67943   0.00000  Uiso   1.00
O84    O     0.93477   0.46323   0.35149   0.00000  Uiso   1.00
O85    O     0.68694   0.99221   0.09005   0.00000  Uiso   1.00
O86    O     0.27805   0.58908   0.51319   0.00000  Uiso   1.00
N87    N     0.72063   0.52394   0.21702   0.00000  Uiso   1.00
N88    N     0.54405   0.90090   0.03074   0.00000  Uiso   1.00
N89    N     0.25266   0.61365   0.61965   0.00000  Uiso   1.00
N90    N     0.97556   0.52793   0.27521   0.00000  Uiso   1.00
N91    N     0.79898   0.90489   0.08893   0.00000  Uiso   1.00
N92    N     0.50759   0.61764   0.67784   0.00000  Uiso   1.00
C93    C     0.48335   0.82089   0.45068   0.00000  Uiso   1.00
C94    C     0.61103   0.86268   0.53829   0.00000  Uiso   1.00
C95    C     0.57640   0.90004   0.57955   0.00000  Uiso   1.00
C96    C     0.71052   0.93481   0.65940   0.00000  Uiso   1.00
C97    C     0.88404   0.00007   0.78981   0.00000  Uiso   1.00
C98    C     0.56238   0.75879   0.48697   0.00000  Uiso   1.00
C99    C     0.48682   0.70880   0.48506   0.00000  Uiso   1.00
C100   C     0.57999   0.65610   0.52169   0.00000  Uiso   1.00
C101   C     0.67791   0.56006   0.57236   0.00000  Uiso   1.00
C102   C     0.48208   0.83797   0.37368   0.00000  Uiso   1.00
C103   C     0.33899   0.85453   0.27651   0.00000  Uiso   1.00
C104   C     0.36454   0.86848   0.21775   0.00000  Uiso   1.00
C105   C     0.33779   0.89537   0.09252   0.00000  Uiso   1.00
C106   C     0.78314   0.81619   0.51911   0.00000  Uiso   1.00
C107   C     0.77387   0.86013   0.57546   0.00000  Uiso   1.00
C108   C     0.90808   0.89485   0.65526   0.00000  Uiso   1.00
C109   C     0.87365   0.93226   0.69663   0.00000  Uiso   1.00
C110   C     0.72521   0.75624   0.52414   0.00000  Uiso   1.00
C111   C     0.81851   0.70360   0.56078   0.00000  Uiso   1.00
C112   C     0.74312   0.65354   0.55893   0.00000  Uiso   1.00
C113   C     0.64492   0.83542   0.41085   0.00000  Uiso   1.00
C114   C     0.67069   0.84934   0.35223   0.00000  Uiso   1.00
C115   C     0.52767   0.86592   0.25499   0.00000  Uiso   1.00
H116   H     0.35658   0.82287   0.42174   0.00000  Uiso   1.00
H117   H     0.45036   0.90200   0.55077   0.00000  Uiso   1.00
H118   H     0.36080   0.71078   0.45628   0.00000  Uiso   1.00
H119   H     0.21300   0.85650   0.24777   0.00000  Uiso   1.00
H120   H     0.62618   0.98859   0.71023   0.00000  Uiso   1.00
H121   H     0.43730   0.58539   0.51098   0.00000  Uiso   1.00
H122   H     0.12563   0.89266   0.07128   0.00000  Uiso   1.00
H123   H     0.90992   0.81421   0.54805   0.00000  Uiso   1.00
H124   H     0.03408   0.89287   0.68401   0.00000  Uiso   1.00
H125   H     0.94451   0.70165   0.58953   0.00000  Uiso   1.00
H126   H     0.79672   0.84736   0.38102   0.00000  Uiso   1.00
H127   H     0.09995   0.98118   0.81838   0.00000  Uiso   1.00
H128   H     0.91106   0.57798   0.61912   0.00000  Uiso   1.00
H129   H     0.59940   0.88524   0.17943   0.00000  Uiso   1.00
O130   O     0.93477   0.03677   0.85149   0.00000  Uiso   1.00
O131   O     0.68694   0.50779   0.59005   0.00000  Uiso   1.00
O132   O     0.27805   0.91092   0.01319   0.00000  Uiso   1.00
N133   N     0.72063   0.97606   0.71702   0.00000  Uiso   1.00
N134   N     0.54405   0.59910   0.53074   0.00000  Uiso   1.00
N135   N     0.25266   0.88635   0.11965   0.00000  Uiso   1.00
N136   N     0.97556   0.97207   0.77521   0.00000  Uiso   1.00
N137   N     0.79898   0.59511   0.58893   0.00000  Uiso   1.00
N138   N     0.50759   0.88236   0.17784   0.00000  Uiso   1.00
C139   C     0.51665   0.32089   0.04932   0.00000  Uiso   1.00
C140   C     0.38897   0.36268   0.96171   0.00000  Uiso   1.00
C141   C     0.42360   0.40004   0.92045   0.00000  Uiso   1.00
C142   C     0.28948   0.43481   0.84060   0.00000  Uiso   1.00
C143   C     0.11596   0.50007   0.71019   0.00000  Uiso   1.00
C144   C     0.43762   0.25879   0.01303   0.00000  Uiso   1.00
C145   C     0.51318   0.20880   0.01494   0.00000  Uiso   1.00
C146   C     0.42001   0.15610   0.97831   0.00000  Uiso   1.00
C147   C     0.32209   0.06006   0.92764   0.00000  Uiso   1.00
C148   C     0.51792   0.33797   0.12632   0.00000  Uiso   1.00
C149   C     0.66101   0.35453   0.22349   0.00000  Uiso   1.00
C150   C     0.63546   0.36848   0.28225   0.00000  Uiso   1.00
C151   C     0.66221   0.39537   0.40748   0.00000  Uiso   1.00
C152   C     0.21686   0.31619   0.98089   0.00000  Uiso   1.00
C153   C     0.22613   0.36013   0.92454   0.00000  Uiso   1.00
C154   C     0.09192   0.39485   0.84474   0.00000  Uiso   1.00
C155   C     0.12635   0.43226   0.80337   0.00000  Uiso   1.00
C156   C     0.27479   0.25624   0.97586   0.00000  Uiso   1.00
C157   C     0.18149   0.20360   0.93922   0.00000  Uiso   1.00
C158   C     0.25688   0.15354   0.94107   0.00000  Uiso   1.00
C159   C     0.35508   0.33542   0.08915   0.00000  Uiso   1.00
C160   C     0.32931   0.34934   0.14777   0.00000  Uiso   1.00
C161   C     0.47233   0.36592   0.24501   0.00000  Uiso   1.00
H162   H     0.64342   0.32287   0.07826   0.00000  Uiso   1.00
H163   H     0.54964   0.40200   0.94923   0.00000  Uiso   1.00
H164   H     0.63920   0.21078   0.04372   0.00000  Uiso   1.00
H165   H     0.78700   0.35650   0.25223   0.00000  Uiso   1.00
H166   H     0.37382   0.48859   0.78977   0.00000  Uiso   1.00
H167   H     0.56270   0.08539   0.98902   0.00000  Uiso   1.00
H168   H     0.87437   0.39266   0.42872   0.00000  Uiso   1.00
H169   H     0.09008   0.31421   0.95195   0.00000  Uiso   1.00
H170   H     0.96592   0.39287   0.81599   0.00000  Uiso   1.00
H171   H     0.05549   0.20165   0.91047   0.00000  Uiso   1.00
H172   H     0.20328   0.34736   0.11898   0.00000  Uiso   1.00
H173   H     0.90005   0.48118   0.68162   0.00000  Uiso   1.00
H174   H     0.08894   0.07798   0.88088   0.00000  Uiso   1.00
H175   H     0.40060   0.38524   0.32057   0.00000  Uiso   1.00
O176   O     0.06523   0.53677   0.64851   0.00000  Uiso   1.00
O177   O     0.31306   0.00779   0.90995   0.00000  Uiso   1.00
O178   O     0.72195   0.41092   0.48681   0.00000  Uiso   1.00
N179   N     0.27937   0.47606   0.78298   0.00000  Uiso   1.00
N180   N     0.45595   0.09910   0.96926   0.00000  Uiso   1.00
N181   N     0.74734   0.38635   0.38035   0.00000  Uiso   1.00
N182   N     0.02444   0.47207   0.72479   0.00000  Uiso   1.00
N183   N     0.20102   0.09511   0.91107   0.00000  Uiso   1.00
N184   N     0.49241   0.38236   0.32216   0.00000  Uiso   1.00
