data_job_03312
_audit_creation_date              2018-12-19
_audit_creation_method            'Materials Studio'
_symmetry_space_group_name_H-M    'P1'
_symmetry_Int_Tables_number       1
_symmetry_cell_setting            triclinic
loop_
_symmetry_equiv_pos_as_xyz
  x,y,z
_cell_length_a                    29.5849
_cell_length_b                    9.2676
_cell_length_c                    25.4745
_cell_angle_alpha                 90.0000
_cell_angle_beta                  106.1330
_cell_angle_gamma                 90.0000
loop_
_atom_site_label
_atom_site_type_symbol
_atom_site_fract_x
_atom_site_fract_y
_atom_site_fract_z
_atom_site_U_iso_or_equiv
_atom_site_adp_type
_atom_site_occupancy
C1     C     0.69235   0.06905   0.37015   0.00000  Uiso   1.00
C2     C     0.65348   0.05152   0.39837   0.00000  Uiso   1.00
C3     C     0.65358   0.95375   0.43967   0.00000  Uiso   1.00
C4     C     0.61471   0.95454   0.46013   0.00000  Uiso   1.00
C5     C     0.56006   0.91279   0.50700   0.00000  Uiso   1.00
C6     C     0.66886   0.04877   0.30925   0.00000  Uiso   1.00
C7     C     0.68189   0.94872   0.27562   0.00000  Uiso   1.00
C8     C     0.65596   0.94721   0.22106   0.00000  Uiso   1.00
C9     C     0.62521   0.90128   0.12957   0.00000  Uiso   1.00
C10    C     0.70729   0.22694   0.37739   0.00000  Uiso   1.00
C11    C     0.75264   0.27669   0.40103   0.00000  Uiso   1.00
C12    C     0.75907   0.42519   0.40383   0.00000  Uiso   1.00
C13    C     0.78799   0.65588   0.41813   0.00000  Uiso   1.00
C14    C     0.62315   0.24430   0.33306   0.00000  Uiso   1.00
C15    C     0.61589   0.14671   0.37823   0.00000  Uiso   1.00
C16    C     0.57701   0.14765   0.39863   0.00000  Uiso   1.00
C17    C     0.57705   0.04990   0.43995   0.00000  Uiso   1.00
C18    C     0.63127   0.14396   0.28911   0.00000  Uiso   1.00
C19    C     0.60532   0.14261   0.23459   0.00000  Uiso   1.00
C20    C     0.61830   0.04257   0.20088   0.00000  Uiso   1.00
C21    C     0.66970   0.32213   0.35725   0.00000  Uiso   1.00
C22    C     0.67607   0.47058   0.36000   0.00000  Uiso   1.00
C23    C     0.72141   0.52055   0.38364   0.00000  Uiso   1.00
H24    H     0.72162   0.99493   0.38583   0.00000  Uiso   1.00
H25    H     0.68267   0.88009   0.45524   0.00000  Uiso   1.00
H26    H     0.71098   0.87507   0.29122   0.00000  Uiso   1.00
H27    H     0.78172   0.20299   0.41661   0.00000  Uiso   1.00
H28    H     0.62291   0.79471   0.52331   0.00000  Uiso   1.00
H29    H     0.68261   0.78416   0.17745   0.00000  Uiso   1.00
H30    H     0.83177   0.47564   0.44187   0.00000  Uiso   1.00
H31    H     0.59388   0.31841   0.31737   0.00000  Uiso   1.00
H32    H     0.54793   0.22132   0.38304   0.00000  Uiso   1.00
H33    H     0.57624   0.21630   0.21901   0.00000  Uiso   1.00
H34    H     0.64697   0.54422   0.34441   0.00000  Uiso   1.00
H35    H     0.51355   0.07166   0.46470   0.00000  Uiso   1.00
H36    H     0.57324   0.06111   0.11884   0.00000  Uiso   1.00
H37    H     0.72241   0.75259   0.38326   0.00000  Uiso   1.00
O38    O     0.54030   0.86345   0.53842   0.00000  Uiso   1.00
O39    O     0.61862   0.84963   0.08467   0.00000  Uiso   1.00
O40    O     0.81432   0.75683   0.43159   0.00000  Uiso   1.00
N41    N     0.60348   0.87324   0.50051   0.00000  Uiso   1.00
N42    N     0.65929   0.86336   0.17716   0.00000  Uiso   1.00
N43    N     0.79875   0.50983   0.42435   0.00000  Uiso   1.00
N44    N     0.54463   0.02226   0.46897   0.00000  Uiso   1.00
N45    N     0.60044   0.01238   0.14562   0.00000  Uiso   1.00
N46    N     0.73990   0.65886   0.39282   0.00000  Uiso   1.00
C47    C     0.19235   0.56905   0.37015   0.00000  Uiso   1.00
C48    C     0.15348   0.55152   0.39837   0.00000  Uiso   1.00
C49    C     0.15358   0.45375   0.43967   0.00000  Uiso   1.00
C50    C     0.11471   0.45454   0.46013   0.00000  Uiso   1.00
C51    C     0.06006   0.41279   0.50700   0.00000  Uiso   1.00
C52    C     0.16886   0.54877   0.30925   0.00000  Uiso   1.00
C53    C     0.18189   0.44872   0.27562   0.00000  Uiso   1.00
C54    C     0.15596   0.44721   0.22106   0.00000  Uiso   1.00
C55    C     0.12521   0.40128   0.12957   0.00000  Uiso   1.00
C56    C     0.20729   0.72694   0.37739   0.00000  Uiso   1.00
C57    C     0.25264   0.77669   0.40103   0.00000  Uiso   1.00
C58    C     0.25907   0.92519   0.40383   0.00000  Uiso   1.00
C59    C     0.28799   0.15588   0.41813   0.00000  Uiso   1.00
C60    C     0.12315   0.74430   0.33306   0.00000  Uiso   1.00
C61    C     0.11589   0.64671   0.37823   0.00000  Uiso   1.00
C62    C     0.07701   0.64765   0.39863   0.00000  Uiso   1.00
C63    C     0.07705   0.54990   0.43995   0.00000  Uiso   1.00
C64    C     0.13127   0.64396   0.28911   0.00000  Uiso   1.00
C65    C     0.10532   0.64261   0.23459   0.00000  Uiso   1.00
C66    C     0.11830   0.54257   0.20088   0.00000  Uiso   1.00
C67    C     0.16970   0.82213   0.35725   0.00000  Uiso   1.00
C68    C     0.17607   0.97058   0.36000   0.00000  Uiso   1.00
C69    C     0.22141   0.02055   0.38364   0.00000  Uiso   1.00
H70    H     0.22162   0.49493   0.38583   0.00000  Uiso   1.00
H71    H     0.18267   0.38009   0.45524   0.00000  Uiso   1.00
H72    H     0.21098   0.37507   0.29122   0.00000  Uiso   1.00
H73    H     0.28172   0.70299   0.41661   0.00000  Uiso   1.00
H74    H     0.12291   0.29471   0.52331   0.00000  Uiso   1.00
H75    H     0.18261   0.28416   0.17745   0.00000  Uiso   1.00
H76    H     0.33177   0.97564   0.44187   0.00000  Uiso   1.00
H77    H     0.09388   0.81841   0.31737   0.00000  Uiso   1.00
H78    H     0.04793   0.72132   0.38304   0.00000  Uiso   1.00
H79    H     0.07624   0.71630   0.21901   0.00000  Uiso   1.00
H80    H     0.14697   0.04422   0.34441   0.00000  Uiso   1.00
H81    H     0.01355   0.57166   0.46470   0.00000  Uiso   1.00
H82    H     0.07324   0.56111   0.11884   0.00000  Uiso   1.00
H83    H     0.22241   0.25259   0.38326   0.00000  Uiso   1.00
O84    O     0.04030   0.36345   0.53842   0.00000  Uiso   1.00
O85    O     0.11862   0.34963   0.08467   0.00000  Uiso   1.00
O86    O     0.31432   0.25683   0.43159   0.00000  Uiso   1.00
N87    N     0.10348   0.37324   0.50051   0.00000  Uiso   1.00
N88    N     0.15929   0.36336   0.17716   0.00000  Uiso   1.00
N89    N     0.29875   0.00983   0.42435   0.00000  Uiso   1.00
N90    N     0.04463   0.52226   0.46897   0.00000  Uiso   1.00
N91    N     0.10044   0.51238   0.14562   0.00000  Uiso   1.00
N92    N     0.23990   0.15886   0.39282   0.00000  Uiso   1.00
C93    C     0.30765   0.06905   0.12985   0.00000  Uiso   1.00
C94    C     0.34652   0.05152   0.10163   0.00000  Uiso   1.00
C95    C     0.34642   0.95375   0.06033   0.00000  Uiso   1.00
C96    C     0.38529   0.95454   0.03987   0.00000  Uiso   1.00
C97    C     0.43994   0.91279   0.99300   0.00000  Uiso   1.00
C98    C     0.33114   0.04877   0.19075   0.00000  Uiso   1.00
C99    C     0.31811   0.94872   0.22438   0.00000  Uiso   1.00
C100   C     0.34404   0.94721   0.27894   0.00000  Uiso   1.00
C101   C     0.37479   0.90128   0.37043   0.00000  Uiso   1.00
C102   C     0.29271   0.22694   0.12261   0.00000  Uiso   1.00
C103   C     0.24736   0.27669   0.09897   0.00000  Uiso   1.00
C104   C     0.24093   0.42519   0.09617   0.00000  Uiso   1.00
C105   C     0.21201   0.65588   0.08187   0.00000  Uiso   1.00
C106   C     0.37685   0.24430   0.16694   0.00000  Uiso   1.00
C107   C     0.38411   0.14671   0.12177   0.00000  Uiso   1.00
C108   C     0.42299   0.14765   0.10137   0.00000  Uiso   1.00
C109   C     0.42295   0.04990   0.06005   0.00000  Uiso   1.00
C110   C     0.36873   0.14396   0.21089   0.00000  Uiso   1.00
C111   C     0.39468   0.14261   0.26541   0.00000  Uiso   1.00
C112   C     0.38170   0.04257   0.29912   0.00000  Uiso   1.00
C113   C     0.33030   0.32213   0.14275   0.00000  Uiso   1.00
C114   C     0.32393   0.47058   0.14000   0.00000  Uiso   1.00
C115   C     0.27859   0.52055   0.11636   0.00000  Uiso   1.00
H116   H     0.27838   0.99493   0.11417   0.00000  Uiso   1.00
H117   H     0.31733   0.88009   0.04476   0.00000  Uiso   1.00
H118   H     0.28902   0.87507   0.20878   0.00000  Uiso   1.00
H119   H     0.21828   0.20299   0.08339   0.00000  Uiso   1.00
H120   H     0.37709   0.79471   0.97669   0.00000  Uiso   1.00
H121   H     0.31739   0.78416   0.32255   0.00000  Uiso   1.00
H122   H     0.16823   0.47564   0.05813   0.00000  Uiso   1.00
H123   H     0.40612   0.31841   0.18263   0.00000  Uiso   1.00
H124   H     0.45207   0.22132   0.11696   0.00000  Uiso   1.00
H125   H     0.42376   0.21630   0.28099   0.00000  Uiso   1.00
H126   H     0.35303   0.54422   0.15559   0.00000  Uiso   1.00
H127   H     0.48645   0.07166   0.03530   0.00000  Uiso   1.00
H128   H     0.42676   0.06111   0.38116   0.00000  Uiso   1.00
H129   H     0.27759   0.75259   0.11674   0.00000  Uiso   1.00
O130   O     0.45970   0.86345   0.96158   0.00000  Uiso   1.00
O131   O     0.38138   0.84963   0.41533   0.00000  Uiso   1.00
O132   O     0.18568   0.75683   0.06841   0.00000  Uiso   1.00
N133   N     0.39652   0.87324   0.99949   0.00000  Uiso   1.00
N134   N     0.34071   0.86336   0.32284   0.00000  Uiso   1.00
N135   N     0.20125   0.50983   0.07565   0.00000  Uiso   1.00
N136   N     0.45537   0.02226   0.03103   0.00000  Uiso   1.00
N137   N     0.39956   0.01238   0.35438   0.00000  Uiso   1.00
N138   N     0.26010   0.65886   0.10718   0.00000  Uiso   1.00
C139   C     0.80765   0.56905   0.12985   0.00000  Uiso   1.00
C140   C     0.84652   0.55152   0.10163   0.00000  Uiso   1.00
C141   C     0.84642   0.45375   0.06033   0.00000  Uiso   1.00
C142   C     0.88529   0.45454   0.03987   0.00000  Uiso   1.00
C143   C     0.93994   0.41279   0.99300   0.00000  Uiso   1.00
C144   C     0.83114   0.54877   0.19075   0.00000  Uiso   1.00
C145   C     0.81811   0.44872   0.22438   0.00000  Uiso   1.00
C146   C     0.84404   0.44721   0.27894   0.00000  Uiso   1.00
C147   C     0.87479   0.40128   0.37043   0.00000  Uiso   1.00
C148   C     0.79271   0.72694   0.12261   0.00000  Uiso   1.00
C149   C     0.74736   0.77669   0.09897   0.00000  Uiso   1.00
C150   C     0.74093   0.92519   0.09617   0.00000  Uiso   1.00
C151   C     0.71201   0.15588   0.08187   0.00000  Uiso   1.00
C152   C     0.87685   0.74430   0.16694   0.00000  Uiso   1.00
C153   C     0.88411   0.64671   0.12177   0.00000  Uiso   1.00
C154   C     0.92299   0.64765   0.10137   0.00000  Uiso   1.00
C155   C     0.92295   0.54990   0.06005   0.00000  Uiso   1.00
C156   C     0.86873   0.64396   0.21089   0.00000  Uiso   1.00
C157   C     0.89468   0.64261   0.26541   0.00000  Uiso   1.00
C158   C     0.88170   0.54257   0.29912   0.00000  Uiso   1.00
C159   C     0.83030   0.82213   0.14275   0.00000  Uiso   1.00
C160   C     0.82393   0.97058   0.14000   0.00000  Uiso   1.00
C161   C     0.77859   0.02055   0.11636   0.00000  Uiso   1.00
H162   H     0.77838   0.49493   0.11417   0.00000  Uiso   1.00
H163   H     0.81733   0.38009   0.04476   0.00000  Uiso   1.00
H164   H     0.78902   0.37507   0.20878   0.00000  Uiso   1.00
H165   H     0.71828   0.70299   0.08339   0.00000  Uiso   1.00
H166   H     0.87709   0.29471   0.97669   0.00000  Uiso   1.00
H167   H     0.81739   0.28416   0.32255   0.00000  Uiso   1.00
H168   H     0.66823   0.97564   0.05813   0.00000  Uiso   1.00
H169   H     0.90612   0.81841   0.18263   0.00000  Uiso   1.00
H170   H     0.95207   0.72132   0.11696   0.00000  Uiso   1.00
H171   H     0.92376   0.71630   0.28099   0.00000  Uiso   1.00
H172   H     0.85303   0.04422   0.15559   0.00000  Uiso   1.00
H173   H     0.98645   0.57166   0.03530   0.00000  Uiso   1.00
H174   H     0.92676   0.56111   0.38116   0.00000  Uiso   1.00
H175   H     0.77759   0.25259   0.11674   0.00000  Uiso   1.00
O176   O     0.95970   0.36345   0.96158   0.00000  Uiso   1.00
O177   O     0.88138   0.34963   0.41533   0.00000  Uiso   1.00
O178   O     0.68568   0.25683   0.06841   0.00000  Uiso   1.00
N179   N     0.89652   0.37324   0.99949   0.00000  Uiso   1.00
N180   N     0.84071   0.36336   0.32284   0.00000  Uiso   1.00
N181   N     0.70125   0.00983   0.07565   0.00000  Uiso   1.00
N182   N     0.95537   0.52226   0.03103   0.00000  Uiso   1.00
N183   N     0.89956   0.51238   0.35438   0.00000  Uiso   1.00
N184   N     0.76010   0.15886   0.10718   0.00000  Uiso   1.00
C185   C     0.30765   0.93095   0.62985   0.00000  Uiso   1.00
C186   C     0.34652   0.94848   0.60163   0.00000  Uiso   1.00
C187   C     0.34642   0.04625   0.56033   0.00000  Uiso   1.00
C188   C     0.38529   0.04546   0.53987   0.00000  Uiso   1.00
C189   C     0.43994   0.08721   0.49300   0.00000  Uiso   1.00
C190   C     0.33114   0.95123   0.69075   0.00000  Uiso   1.00
C191   C     0.31811   0.05128   0.72438   0.00000  Uiso   1.00
C192   C     0.34404   0.05279   0.77894   0.00000  Uiso   1.00
C193   C     0.37479   0.09872   0.87043   0.00000  Uiso   1.00
C194   C     0.29271   0.77306   0.62261   0.00000  Uiso   1.00
C195   C     0.24736   0.72331   0.59897   0.00000  Uiso   1.00
C196   C     0.24093   0.57481   0.59617   0.00000  Uiso   1.00
C197   C     0.21201   0.34412   0.58187   0.00000  Uiso   1.00
C198   C     0.37685   0.75570   0.66694   0.00000  Uiso   1.00
C199   C     0.38411   0.85329   0.62177   0.00000  Uiso   1.00
C200   C     0.42299   0.85235   0.60137   0.00000  Uiso   1.00
C201   C     0.42295   0.95010   0.56005   0.00000  Uiso   1.00
C202   C     0.36873   0.85604   0.71089   0.00000  Uiso   1.00
C203   C     0.39468   0.85739   0.76541   0.00000  Uiso   1.00
C204   C     0.38170   0.95743   0.79912   0.00000  Uiso   1.00
C205   C     0.33030   0.67787   0.64275   0.00000  Uiso   1.00
C206   C     0.32393   0.52942   0.64000   0.00000  Uiso   1.00
C207   C     0.27859   0.47945   0.61636   0.00000  Uiso   1.00
H208   H     0.27838   0.00507   0.61417   0.00000  Uiso   1.00
H209   H     0.31733   0.11991   0.54476   0.00000  Uiso   1.00
H210   H     0.28902   0.12493   0.70878   0.00000  Uiso   1.00
H211   H     0.21828   0.79701   0.58339   0.00000  Uiso   1.00
H212   H     0.37709   0.20529   0.47669   0.00000  Uiso   1.00
H213   H     0.31739   0.21584   0.82255   0.00000  Uiso   1.00
H214   H     0.16823   0.52436   0.55813   0.00000  Uiso   1.00
H215   H     0.40612   0.68159   0.68263   0.00000  Uiso   1.00
H216   H     0.45207   0.77868   0.61696   0.00000  Uiso   1.00
H217   H     0.42376   0.78370   0.78099   0.00000  Uiso   1.00
H218   H     0.35303   0.45578   0.65559   0.00000  Uiso   1.00
H219   H     0.48645   0.92834   0.53530   0.00000  Uiso   1.00
H220   H     0.42676   0.93889   0.88116   0.00000  Uiso   1.00
H221   H     0.27759   0.24741   0.61674   0.00000  Uiso   1.00
O222   O     0.45970   0.13655   0.46158   0.00000  Uiso   1.00
O223   O     0.38138   0.15037   0.91533   0.00000  Uiso   1.00
O224   O     0.18568   0.24317   0.56841   0.00000  Uiso   1.00
N225   N     0.39652   0.12676   0.49949   0.00000  Uiso   1.00
N226   N     0.34071   0.13664   0.82284   0.00000  Uiso   1.00
N227   N     0.20125   0.49017   0.57565   0.00000  Uiso   1.00
N228   N     0.45537   0.97774   0.53103   0.00000  Uiso   1.00
N229   N     0.39956   0.98762   0.85438   0.00000  Uiso   1.00
N230   N     0.26010   0.34114   0.60718   0.00000  Uiso   1.00
C231   C     0.80765   0.43095   0.62985   0.00000  Uiso   1.00
C232   C     0.84652   0.44848   0.60163   0.00000  Uiso   1.00
C233   C     0.84642   0.54625   0.56033   0.00000  Uiso   1.00
C234   C     0.88529   0.54546   0.53987   0.00000  Uiso   1.00
C235   C     0.93994   0.58721   0.49300   0.00000  Uiso   1.00
C236   C     0.83114   0.45123   0.69075   0.00000  Uiso   1.00
C237   C     0.81811   0.55128   0.72438   0.00000  Uiso   1.00
C238   C     0.84404   0.55279   0.77894   0.00000  Uiso   1.00
C239   C     0.87479   0.59872   0.87043   0.00000  Uiso   1.00
C240   C     0.79271   0.27306   0.62261   0.00000  Uiso   1.00
C241   C     0.74736   0.22331   0.59897   0.00000  Uiso   1.00
C242   C     0.74093   0.07481   0.59617   0.00000  Uiso   1.00
C243   C     0.71201   0.84412   0.58187   0.00000  Uiso   1.00
C244   C     0.87685   0.25570   0.66694   0.00000  Uiso   1.00
C245   C     0.88411   0.35329   0.62177   0.00000  Uiso   1.00
C246   C     0.92299   0.35235   0.60137   0.00000  Uiso   1.00
C247   C     0.92295   0.45010   0.56005   0.00000  Uiso   1.00
C248   C     0.86873   0.35604   0.71089   0.00000  Uiso   1.00
C249   C     0.89468   0.35739   0.76541   0.00000  Uiso   1.00
C250   C     0.88170   0.45743   0.79912   0.00000  Uiso   1.00
C251   C     0.83030   0.17787   0.64275   0.00000  Uiso   1.00
C252   C     0.82393   0.02942   0.64000   0.00000  Uiso   1.00
C253   C     0.77859   0.97945   0.61636   0.00000  Uiso   1.00
H254   H     0.77838   0.50507   0.61417   0.00000  Uiso   1.00
H255   H     0.81733   0.61991   0.54476   0.00000  Uiso   1.00
H256   H     0.78902   0.62493   0.70878   0.00000  Uiso   1.00
H257   H     0.71828   0.29701   0.58339   0.00000  Uiso   1.00
H258   H     0.87709   0.70529   0.47669   0.00000  Uiso   1.00
H259   H     0.81739   0.71584   0.82255   0.00000  Uiso   1.00
H260   H     0.66823   0.02436   0.55813   0.00000  Uiso   1.00
H261   H     0.90612   0.18159   0.68263   0.00000  Uiso   1.00
H262   H     0.95207   0.27868   0.61696   0.00000  Uiso   1.00
H263   H     0.92376   0.28370   0.78099   0.00000  Uiso   1.00
H264   H     0.85303   0.95578   0.65559   0.00000  Uiso   1.00
H265   H     0.98645   0.42834   0.53530   0.00000  Uiso   1.00
H266   H     0.92676   0.43889   0.88116   0.00000  Uiso   1.00
H267   H     0.77759   0.74741   0.61674   0.00000  Uiso   1.00
O268   O     0.95970   0.63655   0.46158   0.00000  Uiso   1.00
O269   O     0.88138   0.65037   0.91533   0.00000  Uiso   1.00
O270   O     0.68568   0.74317   0.56841   0.00000  Uiso   1.00
N271   N     0.89652   0.62676   0.49949   0.00000  Uiso   1.00
N272   N     0.84071   0.63664   0.82284   0.00000  Uiso   1.00
N273   N     0.70125   0.99017   0.57565   0.00000  Uiso   1.00
N274   N     0.95537   0.47774   0.53103   0.00000  Uiso   1.00
N275   N     0.89956   0.48762   0.85438   0.00000  Uiso   1.00
N276   N     0.76010   0.84114   0.60718   0.00000  Uiso   1.00
C277   C     0.69235   0.93095   0.87015   0.00000  Uiso   1.00
C278   C     0.65348   0.94848   0.89837   0.00000  Uiso   1.00
C279   C     0.65358   0.04625   0.93967   0.00000  Uiso   1.00
C280   C     0.61471   0.04546   0.96013   0.00000  Uiso   1.00
C281   C     0.56006   0.08721   0.00700   0.00000  Uiso   1.00
C282   C     0.66886   0.95123   0.80925   0.00000  Uiso   1.00
C283   C     0.68189   0.05128   0.77562   0.00000  Uiso   1.00
C284   C     0.65596   0.05279   0.72106   0.00000  Uiso   1.00
C285   C     0.62521   0.09872   0.62957   0.00000  Uiso   1.00
C286   C     0.70729   0.77306   0.87739   0.00000  Uiso   1.00
C287   C     0.75264   0.72331   0.90103   0.00000  Uiso   1.00
C288   C     0.75907   0.57481   0.90383   0.00000  Uiso   1.00
C289   C     0.78799   0.34412   0.91813   0.00000  Uiso   1.00
C290   C     0.62315   0.75570   0.83306   0.00000  Uiso   1.00
C291   C     0.61589   0.85329   0.87823   0.00000  Uiso   1.00
C292   C     0.57701   0.85235   0.89863   0.00000  Uiso   1.00
C293   C     0.57705   0.95010   0.93995   0.00000  Uiso   1.00
C294   C     0.63127   0.85604   0.78911   0.00000  Uiso   1.00
C295   C     0.60532   0.85739   0.73459   0.00000  Uiso   1.00
C296   C     0.61830   0.95743   0.70088   0.00000  Uiso   1.00
C297   C     0.66970   0.67787   0.85725   0.00000  Uiso   1.00
C298   C     0.67607   0.52942   0.86000   0.00000  Uiso   1.00
C299   C     0.72141   0.47945   0.88364   0.00000  Uiso   1.00
H300   H     0.72162   0.00507   0.88583   0.00000  Uiso   1.00
H301   H     0.68267   0.11991   0.95524   0.00000  Uiso   1.00
H302   H     0.71098   0.12493   0.79122   0.00000  Uiso   1.00
H303   H     0.78172   0.79701   0.91661   0.00000  Uiso   1.00
H304   H     0.62291   0.20529   0.02331   0.00000  Uiso   1.00
H305   H     0.68261   0.21584   0.67745   0.00000  Uiso   1.00
H306   H     0.83177   0.52436   0.94187   0.00000  Uiso   1.00
H307   H     0.59388   0.68159   0.81737   0.00000  Uiso   1.00
H308   H     0.54793   0.77868   0.88304   0.00000  Uiso   1.00
H309   H     0.57624   0.78370   0.71901   0.00000  Uiso   1.00
H310   H     0.64697   0.45578   0.84441   0.00000  Uiso   1.00
H311   H     0.51355   0.92834   0.96470   0.00000  Uiso   1.00
H312   H     0.57324   0.93889   0.61884   0.00000  Uiso   1.00
H313   H     0.72241   0.24741   0.88326   0.00000  Uiso   1.00
O314   O     0.54030   0.13655   0.03842   0.00000  Uiso   1.00
O315   O     0.61862   0.15037   0.58467   0.00000  Uiso   1.00
O316   O     0.81432   0.24317   0.93159   0.00000  Uiso   1.00
N317   N     0.60348   0.12676   0.00051   0.00000  Uiso   1.00
N318   N     0.65929   0.13664   0.67716   0.00000  Uiso   1.00
N319   N     0.79875   0.49017   0.92435   0.00000  Uiso   1.00
N320   N     0.54463   0.97774   0.96897   0.00000  Uiso   1.00
N321   N     0.60044   0.98762   0.64562   0.00000  Uiso   1.00
N322   N     0.73990   0.34114   0.89282   0.00000  Uiso   1.00
C323   C     0.19235   0.43095   0.87015   0.00000  Uiso   1.00
C324   C     0.15348   0.44848   0.89837   0.00000  Uiso   1.00
C325   C     0.15358   0.54625   0.93967   0.00000  Uiso   1.00
C326   C     0.11471   0.54546   0.96013   0.00000  Uiso   1.00
C327   C     0.06006   0.58721   0.00700   0.00000  Uiso   1.00
C328   C     0.16886   0.45123   0.80925   0.00000  Uiso   1.00
C329   C     0.18189   0.55128   0.77562   0.00000  Uiso   1.00
C330   C     0.15596   0.55279   0.72106   0.00000  Uiso   1.00
C331   C     0.12521   0.59872   0.62957   0.00000  Uiso   1.00
C332   C     0.20729   0.27306   0.87739   0.00000  Uiso   1.00
C333   C     0.25264   0.22331   0.90103   0.00000  Uiso   1.00
C334   C     0.25907   0.07481   0.90383   0.00000  Uiso   1.00
C335   C     0.28799   0.84412   0.91813   0.00000  Uiso   1.00
C336   C     0.12315   0.25570   0.83306   0.00000  Uiso   1.00
C337   C     0.11589   0.35329   0.87823   0.00000  Uiso   1.00
C338   C     0.07701   0.35235   0.89863   0.00000  Uiso   1.00
C339   C     0.07705   0.45010   0.93995   0.00000  Uiso   1.00
C340   C     0.13127   0.35604   0.78911   0.00000  Uiso   1.00
C341   C     0.10532   0.35739   0.73459   0.00000  Uiso   1.00
C342   C     0.11830   0.45743   0.70088   0.00000  Uiso   1.00
C343   C     0.16970   0.17787   0.85725   0.00000  Uiso   1.00
C344   C     0.17607   0.02942   0.86000   0.00000  Uiso   1.00
C345   C     0.22141   0.97945   0.88364   0.00000  Uiso   1.00
H346   H     0.22162   0.50507   0.88583   0.00000  Uiso   1.00
H347   H     0.18267   0.61991   0.95524   0.00000  Uiso   1.00
H348   H     0.21098   0.62493   0.79122   0.00000  Uiso   1.00
H349   H     0.28172   0.29701   0.91661   0.00000  Uiso   1.00
H350   H     0.12291   0.70529   0.02331   0.00000  Uiso   1.00
H351   H     0.18261   0.71584   0.67745   0.00000  Uiso   1.00
H352   H     0.33177   0.02436   0.94187   0.00000  Uiso   1.00
H353   H     0.09388   0.18159   0.81737   0.00000  Uiso   1.00
H354   H     0.04793   0.27868   0.88304   0.00000  Uiso   1.00
H355   H     0.07624   0.28370   0.71901   0.00000  Uiso   1.00
H356   H     0.14697   0.95578   0.84441   0.00000  Uiso   1.00
H357   H     0.01355   0.42834   0.96470   0.00000  Uiso   1.00
H358   H     0.07324   0.43889   0.61884   0.00000  Uiso   1.00
H359   H     0.22241   0.74741   0.88326   0.00000  Uiso   1.00
O360   O     0.04030   0.63655   0.03842   0.00000  Uiso   1.00
O361   O     0.11862   0.65037   0.58467   0.00000  Uiso   1.00
O362   O     0.31432   0.74317   0.93159   0.00000  Uiso   1.00
N363   N     0.10348   0.62676   0.00051   0.00000  Uiso   1.00
N364   N     0.15929   0.63664   0.67716   0.00000  Uiso   1.00
N365   N     0.29875   0.99017   0.92435   0.00000  Uiso   1.00
N366   N     0.04463   0.47774   0.96897   0.00000  Uiso   1.00
N367   N     0.10044   0.48762   0.64562   0.00000  Uiso   1.00
N368   N     0.23990   0.84114   0.89282   0.00000  Uiso   1.00
