data_job_04986
_audit_creation_date              2018-12-19
_audit_creation_method            'Materials Studio'
_symmetry_space_group_name_H-M    'P1'
_symmetry_Int_Tables_number       1
_symmetry_cell_setting            triclinic
loop_
_symmetry_equiv_pos_as_xyz
  x,y,z
_cell_length_a                    10.1596
_cell_length_b                    31.7831
_cell_length_c                    20.6424
_cell_angle_alpha                 90.0000
_cell_angle_beta                  136.5517
_cell_angle_gamma                 90.0000
loop_
_atom_site_label
_atom_site_type_symbol
_atom_site_fract_x
_atom_site_fract_y
_atom_site_fract_z
_atom_site_U_iso_or_equiv
_atom_site_adp_type
_atom_site_occupancy
C1     C     0.59418   0.14582   0.11326   0.00000  Uiso   1.00
C2     C     0.50163   0.12303   0.02322   0.00000  Uiso   1.00
C3     C     0.53979   0.13039   0.97186   0.00000  Uiso   1.00
C4     C     0.44010   0.10625   0.89148   0.00000  Uiso   1.00
C5     C     0.31656   0.07551   0.75590   0.00000  Uiso   1.00
C6     C     0.43002   0.16438   0.09401   0.00000  Uiso   1.00
C7     C     0.40799   0.20651   0.10218   0.00000  Uiso   1.00
C8     C     0.24803   0.21717   0.08141   0.00000  Uiso   1.00
C9     C     0.01339   0.25063   0.05579   0.00000  Uiso   1.00
C10    C     0.68306   0.11168   0.18731   0.00000  Uiso   1.00
C11    C     0.87378   0.10950   0.27395   0.00000  Uiso   1.00
C12    C     0.92686   0.07579   0.33175   0.00000  Uiso   1.00
C13    C     0.08510   0.02741   0.45100   0.00000  Uiso   1.00
C14    C     0.34930   0.08984   0.06186   0.00000  Uiso   1.00
C15    C     0.36862   0.09263   0.99530   0.00000  Uiso   1.00
C16    C     0.26885   0.06846   0.91499   0.00000  Uiso   1.00
C17    C     0.30686   0.07579   0.86351   0.00000  Uiso   1.00
C18    C     0.29701   0.13398   0.06609   0.00000  Uiso   1.00
C19    C     0.13706   0.14458   0.04531   0.00000  Uiso   1.00
C20    C     0.11478   0.18671   0.05344   0.00000  Uiso   1.00
C21    C     0.55005   0.08128   0.15940   0.00000  Uiso   1.00
C22    C     0.60284   0.04757   0.21708   0.00000  Uiso   1.00
C23    C     0.79361   0.04533   0.30378   0.00000  Uiso   1.00
H24    H     0.69772   0.16949   0.13499   0.00000  Uiso   1.00
H25    H     0.64272   0.15393   0.99348   0.00000  Uiso   1.00
H26    H     0.51095   0.23003   0.12379   0.00000  Uiso   1.00
H27    H     0.97666   0.13303   0.29553   0.00000  Uiso   1.00
H28    H     0.52302   0.12328   0.82426   0.00000  Uiso   1.00
H29    H     0.24522   0.28375   0.09906   0.00000  Uiso   1.00
H30    H     0.22728   0.07920   0.46121   0.00000  Uiso   1.00
H31    H     0.24574   0.06617   0.04012   0.00000  Uiso   1.00
H32    H     0.16593   0.04494   0.89340   0.00000  Uiso   1.00
H33    H     0.03416   0.12104   0.02371   0.00000  Uiso   1.00
H34    H     0.49988   0.02404   0.19545   0.00000  Uiso   1.00
H35    H     0.13604   0.03482   0.74302   0.00000  Uiso   1.00
H36    H     0.85824   0.19529   0.01783   0.00000  Uiso   1.00
H37    H     0.84029   0.99074   0.37997   0.00000  Uiso   1.00
O38    O     0.28514   0.06695   0.68882   0.00000  Uiso   1.00
O39    O     0.92070   0.27748   0.04936   0.00000  Uiso   1.00
O40    O     0.20913   0.00912   0.52449   0.00000  Uiso   1.00
N41    N     0.44293   0.10537   0.82528   0.00000  Uiso   1.00
N42    N     0.18318   0.25540   0.08219   0.00000  Uiso   1.00
N43    N     0.10131   0.06417   0.42078   0.00000  Uiso   1.00
N44    N     0.23470   0.05777   0.78157   0.00000  Uiso   1.00
N45    N     0.97495   0.20780   0.03848   0.00000  Uiso   1.00
N46    N     0.89308   0.01657   0.37707   0.00000  Uiso   1.00
C47    C     0.09418   0.64582   0.11326   0.00000  Uiso   1.00
C48    C     0.00163   0.62303   0.02322   0.00000  Uiso   1.00
C49    C     0.03979   0.63039   0.97186   0.00000  Uiso   1.00
C50    C     0.94010   0.60625   0.89148   0.00000  Uiso   1.00
C51    C     0.81656   0.57551   0.75590   0.00000  Uiso   1.00
C52    C     0.93002   0.66438   0.09401   0.00000  Uiso   1.00
C53    C     0.90799   0.70651   0.10218   0.00000  Uiso   1.00
C54    C     0.74803   0.71717   0.08141   0.00000  Uiso   1.00
C55    C     0.51339   0.75063   0.05579   0.00000  Uiso   1.00
C56    C     0.18306   0.61168   0.18731   0.00000  Uiso   1.00
C57    C     0.37378   0.60950   0.27395   0.00000  Uiso   1.00
C58    C     0.42686   0.57579   0.33175   0.00000  Uiso   1.00
C59    C     0.58510   0.52741   0.45100   0.00000  Uiso   1.00
C60    C     0.84930   0.58984   0.06186   0.00000  Uiso   1.00
C61    C     0.86862   0.59263   0.99530   0.00000  Uiso   1.00
C62    C     0.76885   0.56846   0.91499   0.00000  Uiso   1.00
C63    C     0.80686   0.57579   0.86351   0.00000  Uiso   1.00
C64    C     0.79701   0.63398   0.06609   0.00000  Uiso   1.00
C65    C     0.63706   0.64458   0.04531   0.00000  Uiso   1.00
C66    C     0.61478   0.68671   0.05344   0.00000  Uiso   1.00
C67    C     0.05005   0.58128   0.15940   0.00000  Uiso   1.00
C68    C     0.10284   0.54757   0.21708   0.00000  Uiso   1.00
C69    C     0.29361   0.54533   0.30378   0.00000  Uiso   1.00
H70    H     0.19772   0.66949   0.13499   0.00000  Uiso   1.00
H71    H     0.14272   0.65393   0.99348   0.00000  Uiso   1.00
H72    H     0.01095   0.73003   0.12379   0.00000  Uiso   1.00
H73    H     0.47666   0.63303   0.29553   0.00000  Uiso   1.00
H74    H     0.02302   0.62328   0.82426   0.00000  Uiso   1.00
H75    H     0.74522   0.78375   0.09906   0.00000  Uiso   1.00
H76    H     0.72728   0.57920   0.46121   0.00000  Uiso   1.00
H77    H     0.74574   0.56617   0.04012   0.00000  Uiso   1.00
H78    H     0.66593   0.54494   0.89340   0.00000  Uiso   1.00
H79    H     0.53416   0.62104   0.02371   0.00000  Uiso   1.00
H80    H     0.99988   0.52404   0.19545   0.00000  Uiso   1.00
H81    H     0.63604   0.53482   0.74302   0.00000  Uiso   1.00
H82    H     0.35824   0.69529   0.01783   0.00000  Uiso   1.00
H83    H     0.34029   0.49074   0.37997   0.00000  Uiso   1.00
O84    O     0.78514   0.56695   0.68882   0.00000  Uiso   1.00
O85    O     0.42070   0.77748   0.04936   0.00000  Uiso   1.00
O86    O     0.70913   0.50912   0.52449   0.00000  Uiso   1.00
N87    N     0.94293   0.60537   0.82528   0.00000  Uiso   1.00
N88    N     0.68318   0.75540   0.08219   0.00000  Uiso   1.00
N89    N     0.60131   0.56417   0.42078   0.00000  Uiso   1.00
N90    N     0.73470   0.55777   0.78157   0.00000  Uiso   1.00
N91    N     0.47495   0.70780   0.03848   0.00000  Uiso   1.00
N92    N     0.39308   0.51657   0.37707   0.00000  Uiso   1.00
C93    C     0.40582   0.14582   0.38674   0.00000  Uiso   1.00
C94    C     0.49837   0.12303   0.47678   0.00000  Uiso   1.00
C95    C     0.46021   0.13039   0.52814   0.00000  Uiso   1.00
C96    C     0.55990   0.10625   0.60852   0.00000  Uiso   1.00
C97    C     0.68344   0.07551   0.74410   0.00000  Uiso   1.00
C98    C     0.56998   0.16438   0.40599   0.00000  Uiso   1.00
C99    C     0.59201   0.20651   0.39782   0.00000  Uiso   1.00
C100   C     0.75197   0.21717   0.41859   0.00000  Uiso   1.00
C101   C     0.98661   0.25063   0.44421   0.00000  Uiso   1.00
C102   C     0.31694   0.11168   0.31269   0.00000  Uiso   1.00
C103   C     0.12622   0.10950   0.22605   0.00000  Uiso   1.00
C104   C     0.07314   0.07579   0.16825   0.00000  Uiso   1.00
C105   C     0.91490   0.02741   0.04900   0.00000  Uiso   1.00
C106   C     0.65070   0.08984   0.43814   0.00000  Uiso   1.00
C107   C     0.63138   0.09263   0.50470   0.00000  Uiso   1.00
C108   C     0.73115   0.06846   0.58501   0.00000  Uiso   1.00
C109   C     0.69314   0.07579   0.63649   0.00000  Uiso   1.00
C110   C     0.70299   0.13398   0.43391   0.00000  Uiso   1.00
C111   C     0.86294   0.14458   0.45469   0.00000  Uiso   1.00
C112   C     0.88522   0.18671   0.44656   0.00000  Uiso   1.00
C113   C     0.44995   0.08128   0.34060   0.00000  Uiso   1.00
C114   C     0.39716   0.04757   0.28292   0.00000  Uiso   1.00
C115   C     0.20639   0.04533   0.19622   0.00000  Uiso   1.00
H116   H     0.30228   0.16949   0.36501   0.00000  Uiso   1.00
H117   H     0.35728   0.15393   0.50652   0.00000  Uiso   1.00
H118   H     0.48905   0.23003   0.37621   0.00000  Uiso   1.00
H119   H     0.02334   0.13303   0.20447   0.00000  Uiso   1.00
H120   H     0.47698   0.12328   0.67574   0.00000  Uiso   1.00
H121   H     0.75478   0.28375   0.40094   0.00000  Uiso   1.00
H122   H     0.77272   0.07920   0.03879   0.00000  Uiso   1.00
H123   H     0.75426   0.06617   0.45988   0.00000  Uiso   1.00
H124   H     0.83407   0.04494   0.60660   0.00000  Uiso   1.00
H125   H     0.96584   0.12104   0.47629   0.00000  Uiso   1.00
H126   H     0.50012   0.02404   0.30455   0.00000  Uiso   1.00
H127   H     0.86396   0.03482   0.75698   0.00000  Uiso   1.00
H128   H     0.14176   0.19529   0.48217   0.00000  Uiso   1.00
H129   H     0.15971   0.99074   0.12003   0.00000  Uiso   1.00
O130   O     0.71486   0.06695   0.81118   0.00000  Uiso   1.00
O131   O     0.07930   0.27748   0.45064   0.00000  Uiso   1.00
O132   O     0.79087   0.00912   0.97551   0.00000  Uiso   1.00
N133   N     0.55707   0.10537   0.67472   0.00000  Uiso   1.00
N134   N     0.81682   0.25540   0.41781   0.00000  Uiso   1.00
N135   N     0.89869   0.06417   0.07922   0.00000  Uiso   1.00
N136   N     0.76530   0.05777   0.71843   0.00000  Uiso   1.00
N137   N     0.02505   0.20780   0.46152   0.00000  Uiso   1.00
N138   N     0.10692   0.01657   0.12293   0.00000  Uiso   1.00
C139   C     0.90582   0.64582   0.38674   0.00000  Uiso   1.00
C140   C     0.99837   0.62303   0.47678   0.00000  Uiso   1.00
C141   C     0.96021   0.63039   0.52814   0.00000  Uiso   1.00
C142   C     0.05990   0.60625   0.60852   0.00000  Uiso   1.00
C143   C     0.18344   0.57551   0.74410   0.00000  Uiso   1.00
C144   C     0.06998   0.66438   0.40599   0.00000  Uiso   1.00
C145   C     0.09201   0.70651   0.39782   0.00000  Uiso   1.00
C146   C     0.25197   0.71717   0.41859   0.00000  Uiso   1.00
C147   C     0.48661   0.75063   0.44421   0.00000  Uiso   1.00
C148   C     0.81694   0.61168   0.31269   0.00000  Uiso   1.00
C149   C     0.62622   0.60950   0.22605   0.00000  Uiso   1.00
C150   C     0.57314   0.57579   0.16825   0.00000  Uiso   1.00
C151   C     0.41490   0.52741   0.04900   0.00000  Uiso   1.00
C152   C     0.15070   0.58984   0.43814   0.00000  Uiso   1.00
C153   C     0.13138   0.59263   0.50470   0.00000  Uiso   1.00
C154   C     0.23115   0.56846   0.58501   0.00000  Uiso   1.00
C155   C     0.19314   0.57579   0.63649   0.00000  Uiso   1.00
C156   C     0.20299   0.63398   0.43391   0.00000  Uiso   1.00
C157   C     0.36294   0.64458   0.45469   0.00000  Uiso   1.00
C158   C     0.38522   0.68671   0.44656   0.00000  Uiso   1.00
C159   C     0.94995   0.58128   0.34060   0.00000  Uiso   1.00
C160   C     0.89716   0.54757   0.28292   0.00000  Uiso   1.00
C161   C     0.70639   0.54533   0.19622   0.00000  Uiso   1.00
H162   H     0.80228   0.66949   0.36501   0.00000  Uiso   1.00
H163   H     0.85728   0.65393   0.50652   0.00000  Uiso   1.00
H164   H     0.98905   0.73003   0.37621   0.00000  Uiso   1.00
H165   H     0.52334   0.63303   0.20447   0.00000  Uiso   1.00
H166   H     0.97698   0.62328   0.67574   0.00000  Uiso   1.00
H167   H     0.25478   0.78375   0.40094   0.00000  Uiso   1.00
H168   H     0.27272   0.57920   0.03879   0.00000  Uiso   1.00
H169   H     0.25426   0.56617   0.45988   0.00000  Uiso   1.00
H170   H     0.33407   0.54494   0.60660   0.00000  Uiso   1.00
H171   H     0.46584   0.62104   0.47629   0.00000  Uiso   1.00
H172   H     0.00012   0.52404   0.30455   0.00000  Uiso   1.00
H173   H     0.36396   0.53482   0.75698   0.00000  Uiso   1.00
H174   H     0.64176   0.69529   0.48217   0.00000  Uiso   1.00
H175   H     0.65971   0.49074   0.12003   0.00000  Uiso   1.00
O176   O     0.21486   0.56695   0.81118   0.00000  Uiso   1.00
O177   O     0.57930   0.77748   0.45064   0.00000  Uiso   1.00
O178   O     0.29087   0.50912   0.97551   0.00000  Uiso   1.00
N179   N     0.05707   0.60537   0.67472   0.00000  Uiso   1.00
N180   N     0.31682   0.75540   0.41781   0.00000  Uiso   1.00
N181   N     0.39869   0.56417   0.07922   0.00000  Uiso   1.00
N182   N     0.26530   0.55777   0.71843   0.00000  Uiso   1.00
N183   N     0.52505   0.70780   0.46152   0.00000  Uiso   1.00
N184   N     0.60692   0.51657   0.12293   0.00000  Uiso   1.00
C185   C     0.40582   0.85418   0.88674   0.00000  Uiso   1.00
C186   C     0.49837   0.87697   0.97678   0.00000  Uiso   1.00
C187   C     0.46021   0.86961   0.02814   0.00000  Uiso   1.00
C188   C     0.55990   0.89375   0.10852   0.00000  Uiso   1.00
C189   C     0.68344   0.92449   0.24410   0.00000  Uiso   1.00
C190   C     0.56998   0.83562   0.90599   0.00000  Uiso   1.00
C191   C     0.59201   0.79349   0.89782   0.00000  Uiso   1.00
C192   C     0.75197   0.78283   0.91859   0.00000  Uiso   1.00
C193   C     0.98661   0.74937   0.94421   0.00000  Uiso   1.00
C194   C     0.31694   0.88832   0.81269   0.00000  Uiso   1.00
C195   C     0.12622   0.89050   0.72605   0.00000  Uiso   1.00
C196   C     0.07314   0.92421   0.66825   0.00000  Uiso   1.00
C197   C     0.91490   0.97259   0.54900   0.00000  Uiso   1.00
C198   C     0.65070   0.91016   0.93814   0.00000  Uiso   1.00
C199   C     0.63138   0.90737   0.00470   0.00000  Uiso   1.00
C200   C     0.73115   0.93154   0.08501   0.00000  Uiso   1.00
C201   C     0.69314   0.92421   0.13649   0.00000  Uiso   1.00
C202   C     0.70299   0.86602   0.93391   0.00000  Uiso   1.00
C203   C     0.86294   0.85542   0.95469   0.00000  Uiso   1.00
C204   C     0.88522   0.81329   0.94656   0.00000  Uiso   1.00
C205   C     0.44995   0.91872   0.84060   0.00000  Uiso   1.00
C206   C     0.39716   0.95243   0.78292   0.00000  Uiso   1.00
C207   C     0.20639   0.95467   0.69622   0.00000  Uiso   1.00
H208   H     0.30228   0.83051   0.86501   0.00000  Uiso   1.00
H209   H     0.35728   0.84607   0.00652   0.00000  Uiso   1.00
H210   H     0.48905   0.76997   0.87621   0.00000  Uiso   1.00
H211   H     0.02334   0.86697   0.70447   0.00000  Uiso   1.00
H212   H     0.47698   0.87672   0.17574   0.00000  Uiso   1.00
H213   H     0.75478   0.71625   0.90094   0.00000  Uiso   1.00
H214   H     0.77272   0.92080   0.53879   0.00000  Uiso   1.00
H215   H     0.75426   0.93383   0.95988   0.00000  Uiso   1.00
H216   H     0.83407   0.95506   0.10660   0.00000  Uiso   1.00
H217   H     0.96584   0.87896   0.97629   0.00000  Uiso   1.00
H218   H     0.50012   0.97596   0.80455   0.00000  Uiso   1.00
H219   H     0.86396   0.96518   0.25698   0.00000  Uiso   1.00
H220   H     0.14176   0.80471   0.98217   0.00000  Uiso   1.00
H221   H     0.15971   0.00926   0.62003   0.00000  Uiso   1.00
O222   O     0.71486   0.93305   0.31118   0.00000  Uiso   1.00
O223   O     0.07930   0.72252   0.95064   0.00000  Uiso   1.00
O224   O     0.79087   0.99088   0.47551   0.00000  Uiso   1.00
N225   N     0.55707   0.89463   0.17472   0.00000  Uiso   1.00
N226   N     0.81682   0.74460   0.91781   0.00000  Uiso   1.00
N227   N     0.89869   0.93583   0.57922   0.00000  Uiso   1.00
N228   N     0.76530   0.94223   0.21843   0.00000  Uiso   1.00
N229   N     0.02505   0.79220   0.96152   0.00000  Uiso   1.00
N230   N     0.10692   0.98343   0.62293   0.00000  Uiso   1.00
C231   C     0.90582   0.35418   0.88674   0.00000  Uiso   1.00
C232   C     0.99837   0.37697   0.97678   0.00000  Uiso   1.00
C233   C     0.96021   0.36961   0.02814   0.00000  Uiso   1.00
C234   C     0.05990   0.39375   0.10852   0.00000  Uiso   1.00
C235   C     0.18344   0.42449   0.24410   0.00000  Uiso   1.00
C236   C     0.06998   0.33562   0.90599   0.00000  Uiso   1.00
C237   C     0.09201   0.29349   0.89782   0.00000  Uiso   1.00
C238   C     0.25197   0.28283   0.91859   0.00000  Uiso   1.00
C239   C     0.48661   0.24937   0.94421   0.00000  Uiso   1.00
C240   C     0.81694   0.38832   0.81269   0.00000  Uiso   1.00
C241   C     0.62622   0.39050   0.72605   0.00000  Uiso   1.00
C242   C     0.57314   0.42421   0.66825   0.00000  Uiso   1.00
C243   C     0.41490   0.47259   0.54900   0.00000  Uiso   1.00
C244   C     0.15070   0.41016   0.93814   0.00000  Uiso   1.00
C245   C     0.13138   0.40737   0.00470   0.00000  Uiso   1.00
C246   C     0.23115   0.43154   0.08501   0.00000  Uiso   1.00
C247   C     0.19314   0.42421   0.13649   0.00000  Uiso   1.00
C248   C     0.20299   0.36602   0.93391   0.00000  Uiso   1.00
C249   C     0.36294   0.35542   0.95469   0.00000  Uiso   1.00
C250   C     0.38522   0.31329   0.94656   0.00000  Uiso   1.00
C251   C     0.94995   0.41872   0.84060   0.00000  Uiso   1.00
C252   C     0.89716   0.45243   0.78292   0.00000  Uiso   1.00
C253   C     0.70639   0.45467   0.69622   0.00000  Uiso   1.00
H254   H     0.80228   0.33051   0.86501   0.00000  Uiso   1.00
H255   H     0.85728   0.34607   0.00652   0.00000  Uiso   1.00
H256   H     0.98905   0.26997   0.87621   0.00000  Uiso   1.00
H257   H     0.52334   0.36697   0.70447   0.00000  Uiso   1.00
H258   H     0.97698   0.37672   0.17574   0.00000  Uiso   1.00
H259   H     0.25478   0.21625   0.90094   0.00000  Uiso   1.00
H260   H     0.27272   0.42080   0.53879   0.00000  Uiso   1.00
H261   H     0.25426   0.43383   0.95988   0.00000  Uiso   1.00
H262   H     0.33407   0.45506   0.10660   0.00000  Uiso   1.00
H263   H     0.46584   0.37896   0.97629   0.00000  Uiso   1.00
H264   H     0.00012   0.47596   0.80455   0.00000  Uiso   1.00
H265   H     0.36396   0.46518   0.25698   0.00000  Uiso   1.00
H266   H     0.64176   0.30471   0.98217   0.00000  Uiso   1.00
H267   H     0.65971   0.50926   0.62003   0.00000  Uiso   1.00
O268   O     0.21486   0.43305   0.31118   0.00000  Uiso   1.00
O269   O     0.57930   0.22252   0.95064   0.00000  Uiso   1.00
O270   O     0.29087   0.49088   0.47551   0.00000  Uiso   1.00
N271   N     0.05707   0.39463   0.17472   0.00000  Uiso   1.00
N272   N     0.31682   0.24460   0.91781   0.00000  Uiso   1.00
N273   N     0.39869   0.43583   0.57922   0.00000  Uiso   1.00
N274   N     0.26530   0.44223   0.21843   0.00000  Uiso   1.00
N275   N     0.52505   0.29220   0.96152   0.00000  Uiso   1.00
N276   N     0.60692   0.48343   0.62293   0.00000  Uiso   1.00
C277   C     0.59418   0.85418   0.61326   0.00000  Uiso   1.00
C278   C     0.50163   0.87697   0.52322   0.00000  Uiso   1.00
C279   C     0.53979   0.86961   0.47186   0.00000  Uiso   1.00
C280   C     0.44010   0.89375   0.39148   0.00000  Uiso   1.00
C281   C     0.31656   0.92449   0.25590   0.00000  Uiso   1.00
C282   C     0.43002   0.83562   0.59401   0.00000  Uiso   1.00
C283   C     0.40799   0.79349   0.60218   0.00000  Uiso   1.00
C284   C     0.24803   0.78283   0.58141   0.00000  Uiso   1.00
C285   C     0.01339   0.74937   0.55579   0.00000  Uiso   1.00
C286   C     0.68306   0.88832   0.68731   0.00000  Uiso   1.00
C287   C     0.87378   0.89050   0.77395   0.00000  Uiso   1.00
C288   C     0.92686   0.92421   0.83175   0.00000  Uiso   1.00
C289   C     0.08510   0.97259   0.95100   0.00000  Uiso   1.00
C290   C     0.34930   0.91016   0.56186   0.00000  Uiso   1.00
C291   C     0.36862   0.90737   0.49530   0.00000  Uiso   1.00
C292   C     0.26885   0.93154   0.41499   0.00000  Uiso   1.00
C293   C     0.30686   0.92421   0.36351   0.00000  Uiso   1.00
C294   C     0.29701   0.86602   0.56609   0.00000  Uiso   1.00
C295   C     0.13706   0.85542   0.54531   0.00000  Uiso   1.00
C296   C     0.11478   0.81329   0.55344   0.00000  Uiso   1.00
C297   C     0.55005   0.91872   0.65940   0.00000  Uiso   1.00
C298   C     0.60284   0.95243   0.71708   0.00000  Uiso   1.00
C299   C     0.79361   0.95467   0.80378   0.00000  Uiso   1.00
H300   H     0.69772   0.83051   0.63499   0.00000  Uiso   1.00
H301   H     0.64272   0.84607   0.49348   0.00000  Uiso   1.00
H302   H     0.51095   0.76997   0.62379   0.00000  Uiso   1.00
H303   H     0.97666   0.86697   0.79553   0.00000  Uiso   1.00
H304   H     0.52302   0.87672   0.32426   0.00000  Uiso   1.00
H305   H     0.24522   0.71625   0.59906   0.00000  Uiso   1.00
H306   H     0.22728   0.92080   0.96121   0.00000  Uiso   1.00
H307   H     0.24574   0.93383   0.54012   0.00000  Uiso   1.00
H308   H     0.16593   0.95506   0.39340   0.00000  Uiso   1.00
H309   H     0.03416   0.87896   0.52371   0.00000  Uiso   1.00
H310   H     0.49988   0.97596   0.69545   0.00000  Uiso   1.00
H311   H     0.13604   0.96518   0.24302   0.00000  Uiso   1.00
H312   H     0.85824   0.80471   0.51783   0.00000  Uiso   1.00
H313   H     0.84029   0.00926   0.87997   0.00000  Uiso   1.00
O314   O     0.28514   0.93305   0.18882   0.00000  Uiso   1.00
O315   O     0.92070   0.72252   0.54936   0.00000  Uiso   1.00
O316   O     0.20913   0.99088   0.02449   0.00000  Uiso   1.00
N317   N     0.44293   0.89463   0.32528   0.00000  Uiso   1.00
N318   N     0.18318   0.74460   0.58219   0.00000  Uiso   1.00
N319   N     0.10131   0.93583   0.92078   0.00000  Uiso   1.00
N320   N     0.23470   0.94223   0.28157   0.00000  Uiso   1.00
N321   N     0.97495   0.79220   0.53848   0.00000  Uiso   1.00
N322   N     0.89308   0.98343   0.87707   0.00000  Uiso   1.00
C323   C     0.09418   0.35418   0.61326   0.00000  Uiso   1.00
C324   C     0.00163   0.37697   0.52322   0.00000  Uiso   1.00
C325   C     0.03979   0.36961   0.47186   0.00000  Uiso   1.00
C326   C     0.94010   0.39375   0.39148   0.00000  Uiso   1.00
C327   C     0.81656   0.42449   0.25590   0.00000  Uiso   1.00
C328   C     0.93002   0.33562   0.59401   0.00000  Uiso   1.00
C329   C     0.90799   0.29349   0.60218   0.00000  Uiso   1.00
C330   C     0.74803   0.28283   0.58141   0.00000  Uiso   1.00
C331   C     0.51339   0.24937   0.55579   0.00000  Uiso   1.00
C332   C     0.18306   0.38832   0.68731   0.00000  Uiso   1.00
C333   C     0.37378   0.39050   0.77395   0.00000  Uiso   1.00
C334   C     0.42686   0.42421   0.83175   0.00000  Uiso   1.00
C335   C     0.58510   0.47259   0.95100   0.00000  Uiso   1.00
C336   C     0.84930   0.41016   0.56186   0.00000  Uiso   1.00
C337   C     0.86862   0.40737   0.49530   0.00000  Uiso   1.00
C338   C     0.76885   0.43154   0.41499   0.00000  Uiso   1.00
C339   C     0.80686   0.42421   0.36351   0.00000  Uiso   1.00
C340   C     0.79701   0.36602   0.56609   0.00000  Uiso   1.00
C341   C     0.63706   0.35542   0.54531   0.00000  Uiso   1.00
C342   C     0.61478   0.31329   0.55344   0.00000  Uiso   1.00
C343   C     0.05005   0.41872   0.65940   0.00000  Uiso   1.00
C344   C     0.10284   0.45243   0.71708   0.00000  Uiso   1.00
C345   C     0.29361   0.45467   0.80378   0.00000  Uiso   1.00
H346   H     0.19772   0.33051   0.63499   0.00000  Uiso   1.00
H347   H     0.14272   0.34607   0.49348   0.00000  Uiso   1.00
H348   H     0.01095   0.26997   0.62379   0.00000  Uiso   1.00
H349   H     0.47666   0.36697   0.79553   0.00000  Uiso   1.00
H350   H     0.02302   0.37672   0.32426   0.00000  Uiso   1.00
H351   H     0.74522   0.21625   0.59906   0.00000  Uiso   1.00
H352   H     0.72728   0.42080   0.96121   0.00000  Uiso   1.00
H353   H     0.74574   0.43383   0.54012   0.00000  Uiso   1.00
H354   H     0.66593   0.45506   0.39340   0.00000  Uiso   1.00
H355   H     0.53416   0.37896   0.52371   0.00000  Uiso   1.00
H356   H     0.99988   0.47596   0.69545   0.00000  Uiso   1.00
H357   H     0.63604   0.46518   0.24302   0.00000  Uiso   1.00
H358   H     0.35824   0.30471   0.51783   0.00000  Uiso   1.00
H359   H     0.34029   0.50926   0.87997   0.00000  Uiso   1.00
O360   O     0.78514   0.43305   0.18882   0.00000  Uiso   1.00
O361   O     0.42070   0.22252   0.54936   0.00000  Uiso   1.00
O362   O     0.70913   0.49088   0.02449   0.00000  Uiso   1.00
N363   N     0.94293   0.39463   0.32528   0.00000  Uiso   1.00
N364   N     0.68318   0.24460   0.58219   0.00000  Uiso   1.00
N365   N     0.60131   0.43583   0.92078   0.00000  Uiso   1.00
N366   N     0.73470   0.44223   0.28157   0.00000  Uiso   1.00
N367   N     0.47495   0.29220   0.53848   0.00000  Uiso   1.00
N368   N     0.39308   0.48343   0.87707   0.00000  Uiso   1.00
