data_job_00935
_audit_creation_date              2018-12-19
_audit_creation_method            'Materials Studio'
_symmetry_space_group_name_H-M    'P1'
_symmetry_Int_Tables_number       1
_symmetry_cell_setting            triclinic
loop_
_symmetry_equiv_pos_as_xyz
  x,y,z
_cell_length_a                    11.6075
_cell_length_b                    19.5788
_cell_length_c                    14.1827
_cell_angle_alpha                 90.0000
_cell_angle_beta                  125.4483
_cell_angle_gamma                 90.0000
loop_
_atom_site_label
_atom_site_type_symbol
_atom_site_fract_x
_atom_site_fract_y
_atom_site_fract_z
_atom_site_U_iso_or_equiv
_atom_site_adp_type
_atom_site_occupancy
C1     C     0.95249   0.32584   0.74259   0.00000  Uiso   1.00
C2     C     0.96194   0.25811   0.69437   0.00000  Uiso   1.00
C3     C     0.00657   0.19645   0.75354   0.00000  Uiso   1.00
C4     C     0.00768   0.14031   0.69427   0.00000  Uiso   1.00
C5     C     0.02883   0.03432   0.63681   0.00000  Uiso   1.00
C6     C     0.04252   0.37628   0.72956   0.00000  Uiso   1.00
C7     C     0.15488   0.41398   0.81833   0.00000  Uiso   1.00
C8     C     0.22380   0.45733   0.78867   0.00000  Uiso   1.00
C9     C     0.36998   0.53484   0.78583   0.00000  Uiso   1.00
C10    C     0.79998   0.34996   0.65958   0.00000  Uiso   1.00
C11    C     0.70842   0.36555   0.68950   0.00000  Uiso   1.00
C12    C     0.57315   0.38675   0.60092   0.00000  Uiso   1.00
C13    C     0.34275   0.42340   0.48942   0.00000  Uiso   1.00
C14    C     0.87511   0.33580   0.53208   0.00000  Uiso   1.00
C15    C     0.91992   0.26352   0.58003   0.00000  Uiso   1.00
C16    C     0.92096   0.20746   0.52065   0.00000  Uiso   1.00
C17    C     0.96557   0.14572   0.57972   0.00000  Uiso   1.00
C18    C     0.00050   0.38169   0.61523   0.00000  Uiso   1.00
C19    C     0.06926   0.42499   0.58543   0.00000  Uiso   1.00
C20    C     0.18170   0.46275   0.67412   0.00000  Uiso   1.00
C21    C     0.75795   0.35537   0.54524   0.00000  Uiso   1.00
C22    C     0.62280   0.37656   0.45660   0.00000  Uiso   1.00
C23    C     0.53105   0.39217   0.48637   0.00000  Uiso   1.00
H24    H     0.98521   0.32164   0.83161   0.00000  Uiso   1.00
H25    H     0.03910   0.19228   0.84203   0.00000  Uiso   1.00
H26    H     0.18737   0.40979   0.90680   0.00000  Uiso   1.00
H27    H     0.74098   0.36136   0.77799   0.00000  Uiso   1.00
H28    H     0.08035   0.05126   0.80318   0.00000  Uiso   1.00
H29    H     0.39296   0.50990   0.93974   0.00000  Uiso   1.00
H30    H     0.45166   0.40778   0.66812   0.00000  Uiso   1.00
H31    H     0.84239   0.34001   0.44306   0.00000  Uiso   1.00
H32    H     0.88843   0.21166   0.43217   0.00000  Uiso   1.00
H33    H     0.03671   0.42917   0.49694   0.00000  Uiso   1.00
H34    H     0.59032   0.38074   0.36813   0.00000  Uiso   1.00
H35    H     0.95807   0.06699   0.47052   0.00000  Uiso   1.00
H36    H     0.27068   0.52563   0.60708   0.00000  Uiso   1.00
H37    H     0.32938   0.42351   0.33546   0.00000  Uiso   1.00
O38    O     0.05212   0.97437   0.63671   0.00000  Uiso   1.00
O39    O     0.46223   0.57610   0.81587   0.00000  Uiso   1.00
O40    O     0.22727   0.44211   0.45950   0.00000  Uiso   1.00
N41    N     0.04523   0.07258   0.72638   0.00000  Uiso   1.00
N42    N     0.33751   0.50137   0.85406   0.00000  Uiso   1.00
N43    N     0.45749   0.40591   0.60012   0.00000  Uiso   1.00
N44    N     0.97943   0.08104   0.54738   0.00000  Uiso   1.00
N45    N     0.27171   0.50983   0.67506   0.00000  Uiso   1.00
N46    N     0.39169   0.41437   0.42112   0.00000  Uiso   1.00
C47    C     0.04751   0.82584   0.75741   0.00000  Uiso   1.00
C48    C     0.03806   0.75811   0.80563   0.00000  Uiso   1.00
C49    C     0.99343   0.69645   0.74646   0.00000  Uiso   1.00
C50    C     0.99232   0.64031   0.80573   0.00000  Uiso   1.00
C51    C     0.97117   0.53432   0.86319   0.00000  Uiso   1.00
C52    C     0.95748   0.87628   0.77044   0.00000  Uiso   1.00
C53    C     0.84512   0.91398   0.68167   0.00000  Uiso   1.00
C54    C     0.77620   0.95733   0.71133   0.00000  Uiso   1.00
C55    C     0.63002   0.03484   0.71417   0.00000  Uiso   1.00
C56    C     0.20002   0.84996   0.84042   0.00000  Uiso   1.00
C57    C     0.29158   0.86555   0.81050   0.00000  Uiso   1.00
C58    C     0.42685   0.88675   0.89908   0.00000  Uiso   1.00
C59    C     0.65725   0.92340   0.01058   0.00000  Uiso   1.00
C60    C     0.12489   0.83580   0.96792   0.00000  Uiso   1.00
C61    C     0.08008   0.76352   0.91997   0.00000  Uiso   1.00
C62    C     0.07904   0.70746   0.97935   0.00000  Uiso   1.00
C63    C     0.03443   0.64572   0.92028   0.00000  Uiso   1.00
C64    C     0.99950   0.88169   0.88477   0.00000  Uiso   1.00
C65    C     0.93074   0.92499   0.91457   0.00000  Uiso   1.00
C66    C     0.81830   0.96275   0.82588   0.00000  Uiso   1.00
C67    C     0.24205   0.85537   0.95476   0.00000  Uiso   1.00
C68    C     0.37720   0.87656   0.04340   0.00000  Uiso   1.00
C69    C     0.46895   0.89217   0.01363   0.00000  Uiso   1.00
H70    H     0.01479   0.82164   0.66839   0.00000  Uiso   1.00
H71    H     0.96090   0.69228   0.65797   0.00000  Uiso   1.00
H72    H     0.81263   0.90979   0.59320   0.00000  Uiso   1.00
H73    H     0.25902   0.86136   0.72201   0.00000  Uiso   1.00
H74    H     0.91965   0.55126   0.69682   0.00000  Uiso   1.00
H75    H     0.60704   0.00990   0.56026   0.00000  Uiso   1.00
H76    H     0.54834   0.90778   0.83188   0.00000  Uiso   1.00
H77    H     0.15761   0.84001   0.05694   0.00000  Uiso   1.00
H78    H     0.11157   0.71166   0.06783   0.00000  Uiso   1.00
H79    H     0.96329   0.92917   0.00306   0.00000  Uiso   1.00
H80    H     0.40968   0.88074   0.13187   0.00000  Uiso   1.00
H81    H     0.04193   0.56699   0.02948   0.00000  Uiso   1.00
H82    H     0.72932   0.02563   0.89292   0.00000  Uiso   1.00
H83    H     0.67062   0.92351   0.16454   0.00000  Uiso   1.00
O84    O     0.94788   0.47437   0.86329   0.00000  Uiso   1.00
O85    O     0.53777   0.07610   0.68413   0.00000  Uiso   1.00
O86    O     0.77273   0.94211   0.04050   0.00000  Uiso   1.00
N87    N     0.95477   0.57258   0.77362   0.00000  Uiso   1.00
N88    N     0.66249   0.00137   0.64594   0.00000  Uiso   1.00
N89    N     0.54251   0.90591   0.89988   0.00000  Uiso   1.00
N90    N     0.02057   0.58104   0.95262   0.00000  Uiso   1.00
N91    N     0.72829   0.00983   0.82494   0.00000  Uiso   1.00
N92    N     0.60831   0.91437   0.07888   0.00000  Uiso   1.00
C93    C     0.04751   0.67416   0.25741   0.00000  Uiso   1.00
C94    C     0.03806   0.74189   0.30563   0.00000  Uiso   1.00
C95    C     0.99343   0.80355   0.24646   0.00000  Uiso   1.00
C96    C     0.99232   0.85969   0.30573   0.00000  Uiso   1.00
C97    C     0.97117   0.96568   0.36319   0.00000  Uiso   1.00
C98    C     0.95748   0.62372   0.27044   0.00000  Uiso   1.00
C99    C     0.84512   0.58602   0.18167   0.00000  Uiso   1.00
C100   C     0.77620   0.54267   0.21133   0.00000  Uiso   1.00
C101   C     0.63002   0.46516   0.21417   0.00000  Uiso   1.00
C102   C     0.20002   0.65004   0.34042   0.00000  Uiso   1.00
C103   C     0.29158   0.63445   0.31050   0.00000  Uiso   1.00
C104   C     0.42685   0.61325   0.39908   0.00000  Uiso   1.00
C105   C     0.65725   0.57660   0.51058   0.00000  Uiso   1.00
C106   C     0.12489   0.66420   0.46792   0.00000  Uiso   1.00
C107   C     0.08008   0.73648   0.41997   0.00000  Uiso   1.00
C108   C     0.07904   0.79254   0.47935   0.00000  Uiso   1.00
C109   C     0.03443   0.85428   0.42028   0.00000  Uiso   1.00
C110   C     0.99950   0.61831   0.38477   0.00000  Uiso   1.00
C111   C     0.93074   0.57501   0.41457   0.00000  Uiso   1.00
C112   C     0.81830   0.53725   0.32588   0.00000  Uiso   1.00
C113   C     0.24205   0.64463   0.45476   0.00000  Uiso   1.00
C114   C     0.37720   0.62344   0.54340   0.00000  Uiso   1.00
C115   C     0.46895   0.60783   0.51363   0.00000  Uiso   1.00
H116   H     0.01479   0.67836   0.16839   0.00000  Uiso   1.00
H117   H     0.96090   0.80772   0.15797   0.00000  Uiso   1.00
H118   H     0.81263   0.59021   0.09320   0.00000  Uiso   1.00
H119   H     0.25902   0.63864   0.22201   0.00000  Uiso   1.00
H120   H     0.91965   0.94874   0.19682   0.00000  Uiso   1.00
H121   H     0.60704   0.49010   0.06026   0.00000  Uiso   1.00
H122   H     0.54834   0.59222   0.33188   0.00000  Uiso   1.00
H123   H     0.15761   0.65999   0.55694   0.00000  Uiso   1.00
H124   H     0.11157   0.78834   0.56783   0.00000  Uiso   1.00
H125   H     0.96329   0.57083   0.50306   0.00000  Uiso   1.00
H126   H     0.40968   0.61926   0.63187   0.00000  Uiso   1.00
H127   H     0.04193   0.93301   0.52948   0.00000  Uiso   1.00
H128   H     0.72932   0.47437   0.39292   0.00000  Uiso   1.00
H129   H     0.67062   0.57649   0.66454   0.00000  Uiso   1.00
O130   O     0.94788   0.02563   0.36329   0.00000  Uiso   1.00
O131   O     0.53777   0.42390   0.18413   0.00000  Uiso   1.00
O132   O     0.77273   0.55789   0.54050   0.00000  Uiso   1.00
N133   N     0.95477   0.92742   0.27362   0.00000  Uiso   1.00
N134   N     0.66249   0.49863   0.14594   0.00000  Uiso   1.00
N135   N     0.54251   0.59409   0.39988   0.00000  Uiso   1.00
N136   N     0.02057   0.91896   0.45262   0.00000  Uiso   1.00
N137   N     0.72829   0.49017   0.32494   0.00000  Uiso   1.00
N138   N     0.60831   0.58563   0.57888   0.00000  Uiso   1.00
C139   C     0.95249   0.17416   0.24259   0.00000  Uiso   1.00
C140   C     0.96194   0.24189   0.19437   0.00000  Uiso   1.00
C141   C     0.00657   0.30355   0.25354   0.00000  Uiso   1.00
C142   C     0.00768   0.35969   0.19427   0.00000  Uiso   1.00
C143   C     0.02883   0.46568   0.13681   0.00000  Uiso   1.00
C144   C     0.04252   0.12372   0.22956   0.00000  Uiso   1.00
C145   C     0.15488   0.08602   0.31833   0.00000  Uiso   1.00
C146   C     0.22380   0.04267   0.28867   0.00000  Uiso   1.00
C147   C     0.36998   0.96516   0.28583   0.00000  Uiso   1.00
C148   C     0.79998   0.15004   0.15958   0.00000  Uiso   1.00
C149   C     0.70842   0.13445   0.18950   0.00000  Uiso   1.00
C150   C     0.57315   0.11325   0.10092   0.00000  Uiso   1.00
C151   C     0.34275   0.07660   0.98942   0.00000  Uiso   1.00
C152   C     0.87511   0.16420   0.03208   0.00000  Uiso   1.00
C153   C     0.91992   0.23648   0.08003   0.00000  Uiso   1.00
C154   C     0.92096   0.29254   0.02065   0.00000  Uiso   1.00
C155   C     0.96557   0.35428   0.07972   0.00000  Uiso   1.00
C156   C     0.00050   0.11831   0.11523   0.00000  Uiso   1.00
C157   C     0.06926   0.07501   0.08543   0.00000  Uiso   1.00
C158   C     0.18170   0.03725   0.17412   0.00000  Uiso   1.00
C159   C     0.75795   0.14463   0.04524   0.00000  Uiso   1.00
C160   C     0.62280   0.12344   0.95660   0.00000  Uiso   1.00
C161   C     0.53105   0.10783   0.98637   0.00000  Uiso   1.00
H162   H     0.98521   0.17836   0.33161   0.00000  Uiso   1.00
H163   H     0.03910   0.30772   0.34203   0.00000  Uiso   1.00
H164   H     0.18737   0.09021   0.40680   0.00000  Uiso   1.00
H165   H     0.74098   0.13864   0.27799   0.00000  Uiso   1.00
H166   H     0.08035   0.44874   0.30318   0.00000  Uiso   1.00
H167   H     0.39296   0.99010   0.43974   0.00000  Uiso   1.00
H168   H     0.45166   0.09222   0.16812   0.00000  Uiso   1.00
H169   H     0.84239   0.15999   0.94306   0.00000  Uiso   1.00
H170   H     0.88843   0.28834   0.93217   0.00000  Uiso   1.00
H171   H     0.03671   0.07083   0.99694   0.00000  Uiso   1.00
H172   H     0.59032   0.11926   0.86813   0.00000  Uiso   1.00
H173   H     0.95807   0.43301   0.97052   0.00000  Uiso   1.00
H174   H     0.27068   0.97437   0.10708   0.00000  Uiso   1.00
H175   H     0.32938   0.07649   0.83546   0.00000  Uiso   1.00
O176   O     0.05212   0.52563   0.13671   0.00000  Uiso   1.00
O177   O     0.46223   0.92390   0.31587   0.00000  Uiso   1.00
O178   O     0.22727   0.05789   0.95950   0.00000  Uiso   1.00
N179   N     0.04523   0.42742   0.22638   0.00000  Uiso   1.00
N180   N     0.33751   0.99863   0.35406   0.00000  Uiso   1.00
N181   N     0.45749   0.09409   0.10012   0.00000  Uiso   1.00
N182   N     0.97943   0.41896   0.04738   0.00000  Uiso   1.00
N183   N     0.27171   0.99017   0.17506   0.00000  Uiso   1.00
N184   N     0.39169   0.08563   0.92112   0.00000  Uiso   1.00
