data_job_06141
_audit_creation_date              2018-12-19
_audit_creation_method            'Materials Studio'
_symmetry_space_group_name_H-M    'P1'
_symmetry_Int_Tables_number       1
_symmetry_cell_setting            triclinic
loop_
_symmetry_equiv_pos_as_xyz
  x,y,z
_cell_length_a                    9.0553
_cell_length_b                    21.7711
_cell_length_c                    22.2376
_cell_angle_alpha                 118.0750
_cell_angle_beta                  80.4284
_cell_angle_gamma                 85.8932
loop_
_atom_site_label
_atom_site_type_symbol
_atom_site_fract_x
_atom_site_fract_y
_atom_site_fract_z
_atom_site_U_iso_or_equiv
_atom_site_adp_type
_atom_site_occupancy
C1     C     0.61108   0.60714   0.80115   0.00000  Uiso   1.00
C2     C     0.56550   0.67887   0.80698   0.00000  Uiso   1.00
C3     C     0.41828   0.71578   0.82824   0.00000  Uiso   1.00
C4     C     0.40032   0.78055   0.83007   0.00000  Uiso   1.00
C5     C     0.31055   0.88784   0.84194   0.00000  Uiso   1.00
C6     C     0.69980   0.55889   0.72592   0.00000  Uiso   1.00
C7     C     0.66550   0.49491   0.67904   0.00000  Uiso   1.00
C8     C     0.76060   0.45868   0.61264   0.00000  Uiso   1.00
C9     C     0.87939   0.37967   0.49869   0.00000  Uiso   1.00
C10    C     0.72549   0.61749   0.84686   0.00000  Uiso   1.00
C11    C     0.71283   0.60278   0.90164   0.00000  Uiso   1.00
C12    C     0.82959   0.61588   0.93705   0.00000  Uiso   1.00
C13    C     0.98827   0.62786   0.01087   0.00000  Uiso   1.00
C14    C     0.84099   0.65653   0.76659   0.00000  Uiso   1.00
C15    C     0.69039   0.70569   0.78821   0.00000  Uiso   1.00
C16    C     0.67265   0.77043   0.79001   0.00000  Uiso   1.00
C17    C     0.52542   0.80743   0.81127   0.00000  Uiso   1.00
C18    C     0.82467   0.58571   0.70715   0.00000  Uiso   1.00
C19    C     0.91986   0.54956   0.64081   0.00000  Uiso   1.00
C20    C     0.88571   0.48556   0.59383   0.00000  Uiso   1.00
C21    C     0.85037   0.64432   0.82809   0.00000  Uiso   1.00
C22    C     0.96719   0.65744   0.86341   0.00000  Uiso   1.00
C23    C     0.95469   0.64275   0.91824   0.00000  Uiso   1.00
H24    H     0.51386   0.58624   0.81576   0.00000  Uiso   1.00
H25    H     0.32167   0.69500   0.84276   0.00000  Uiso   1.00
H26    H     0.56886   0.47416   0.69358   0.00000  Uiso   1.00
H27    H     0.61617   0.58202   0.91615   0.00000  Uiso   1.00
H28    H     0.16365   0.82739   0.86439   0.00000  Uiso   1.00
H29    H     0.68489   0.36174   0.54985   0.00000  Uiso   1.00
H30    H     0.78467   0.58918   0.01919   0.00000  Uiso   1.00
H31    H     0.93822   0.67741   0.75198   0.00000  Uiso   1.00
H32    H     0.76931   0.79118   0.77548   0.00000  Uiso   1.00
H33    H     0.01650   0.57034   0.62630   0.00000  Uiso   1.00
H34    H     0.06381   0.67820   0.84887   0.00000  Uiso   1.00
H35    H     0.52697   0.90545   0.80978   0.00000  Uiso   1.00
H36    H     0.04822   0.43979   0.49524   0.00000  Uiso   1.00
H37    H     0.14799   0.66724   0.96458   0.00000  Uiso   1.00
O38    O     0.22653   0.93960   0.85367   0.00000  Uiso   1.00
O39    O     0.91040   0.32868   0.44102   0.00000  Uiso   1.00
O40    O     0.04129   0.62707   0.05677   0.00000  Uiso   1.00
N41    N     0.27234   0.83016   0.84832   0.00000  Uiso   1.00
N42    N     0.75966   0.39480   0.55425   0.00000  Uiso   1.00
N43    N     0.85296   0.60742   0.99302   0.00000  Uiso   1.00
N44    N     0.46784   0.87216   0.81894   0.00000  Uiso   1.00
N45    N     0.95516   0.43681   0.52487   0.00000  Uiso   1.00
N46    N     0.04846   0.64943   0.96364   0.00000  Uiso   1.00
C47    C     0.41320   0.19184   0.81265   0.00000  Uiso   1.00
C48    C     0.36704   0.18469   0.87791   0.00000  Uiso   1.00
C49    C     0.23755   0.16063   0.89524   0.00000  Uiso   1.00
C50    C     0.21568   0.15801   0.95724   0.00000  Uiso   1.00
C51    C     0.12816   0.14380   0.05205   0.00000  Uiso   1.00
C52    C     0.43159   0.26874   0.83870   0.00000  Uiso   1.00
C53    C     0.35636   0.31533   0.82305   0.00000  Uiso   1.00
C54    C     0.38885   0.38346   0.85203   0.00000  Uiso   1.00
C55    C     0.40161   0.49972   0.88592   0.00000  Uiso   1.00
C56    C     0.57215   0.14823   0.77566   0.00000  Uiso   1.00
C57    C     0.61514   0.09351   0.70699   0.00000  Uiso   1.00
C58    C     0.76598   0.06019   0.68288   0.00000  Uiso   1.00
C59    C     0.99699   0.98933   0.61888   0.00000  Uiso   1.00
C60    C     0.60465   0.22998   0.89192   0.00000  Uiso   1.00
C61    C     0.47104   0.20542   0.92097   0.00000  Uiso   1.00
C62    C     0.44937   0.20283   0.98295   0.00000  Uiso   1.00
C63    C     0.31986   0.17877   0.00037   0.00000  Uiso   1.00
C64    C     0.53557   0.28946   0.88176   0.00000  Uiso   1.00
C65    C     0.56819   0.35754   0.91076   0.00000  Uiso   1.00
C66    C     0.49303   0.40422   0.89517   0.00000  Uiso   1.00
C67    C     0.67615   0.16895   0.81871   0.00000  Uiso   1.00
C68    C     0.82696   0.13571   0.79470   0.00000  Uiso   1.00
C69    C     0.87016   0.08095   0.72602   0.00000  Uiso   1.00
H70    H     0.33224   0.17571   0.77913   0.00000  Uiso   1.00
H71    H     0.15709   0.14461   0.86191   0.00000  Uiso   1.00
H72    H     0.27591   0.29928   0.78972   0.00000  Uiso   1.00
H73    H     0.53463   0.07749   0.67368   0.00000  Uiso   1.00
H74    H     0.00874   0.11928   0.97270   0.00000  Uiso   1.00
H75    H     0.25931   0.44542   0.82047   0.00000  Uiso   1.00
H76    H     0.80489   0.97773   0.57577   0.00000  Uiso   1.00
H77    H     0.68562   0.24612   0.92545   0.00000  Uiso   1.00
H78    H     0.52986   0.21887   0.01627   0.00000  Uiso   1.00
H79    H     0.64867   0.37355   0.94408   0.00000  Uiso   1.00
H80    H     0.90740   0.15176   0.82804   0.00000  Uiso   1.00
H81    H     0.31129   0.17956   0.09798   0.00000  Uiso   1.00
H82    H     0.56186   0.50570   0.94575   0.00000  Uiso   1.00
H83    H     0.10744   0.03800   0.70105   0.00000  Uiso   1.00
O84    O     0.05115   0.13025   0.09245   0.00000  Uiso   1.00
O85    O     0.37991   0.55812   0.89272   0.00000  Uiso   1.00
O86    O     0.09569   0.94452   0.57169   0.00000  Uiso   1.00
N87    N     0.10133   0.13719   0.98971   0.00000  Uiso   1.00
N88    N     0.33558   0.44212   0.84740   0.00000  Uiso   1.00
N89    N     0.84566   0.00487   0.61862   0.00000  Uiso   1.00
N90    N     0.26413   0.16963   0.05712   0.00000  Uiso   1.00
N91    N     0.49838   0.47455   0.91481   0.00000  Uiso   1.00
N92    N     0.00846   0.03731   0.68603   0.00000  Uiso   1.00
C93    C     0.23000   0.18107   0.38543   0.00000  Uiso   1.00
C94    C     0.24921   0.11525   0.31428   0.00000  Uiso   1.00
C95    C     0.13893   0.09587   0.27543   0.00000  Uiso   1.00
C96    C     0.17879   0.03371   0.21161   0.00000  Uiso   1.00
C97    C     0.18654   0.93777   0.10482   0.00000  Uiso   1.00
C98    C     0.26749   0.15486   0.43469   0.00000  Uiso   1.00
C99    C     0.17257   0.16878   0.49709   0.00000  Uiso   1.00
C100   C     0.22783   0.13997   0.53464   0.00000  Uiso   1.00
C101   C     0.26399   0.10557   0.61481   0.00000  Uiso   1.00
C102   C     0.35622   0.22107   0.37698   0.00000  Uiso   1.00
C103   C     0.33592   0.29067   0.39086   0.00000  Uiso   1.00
C104   C     0.46590   0.31761   0.37983   0.00000  Uiso   1.00
C105   C     0.63984   0.38600   0.37039   0.00000  Uiso   1.00
C106   C     0.49693   0.10516   0.34117   0.00000  Uiso   1.00
C107   C     0.39420   0.07402   0.29024   0.00000  Uiso   1.00
C108   C     0.43425   0.01188   0.22646   0.00000  Uiso   1.00
C109   C     0.32404   0.99240   0.18753   0.00000  Uiso   1.00
C110   C     0.41246   0.11363   0.41065   0.00000  Uiso   1.00
C111   C     0.46789   0.08480   0.44812   0.00000  Uiso   1.00
C112   C     0.37307   0.09867   0.51056   0.00000  Uiso   1.00
C113   C     0.50121   0.17984   0.35294   0.00000  Uiso   1.00
C114   C     0.63124   0.20668   0.34189   0.00000  Uiso   1.00
C115   C     0.61115   0.27631   0.35575   0.00000  Uiso   1.00
H116   H     0.11713   0.21317   0.40415   0.00000  Uiso   1.00
H117   H     0.02673   0.12778   0.29406   0.00000  Uiso   1.00
H118   H     0.06038   0.20070   0.51569   0.00000  Uiso   1.00
H119   H     0.22371   0.32256   0.40947   0.00000  Uiso   1.00
H120   H     0.99043   0.01493   0.16142   0.00000  Uiso   1.00
H121   H     0.06140   0.16868   0.62874   0.00000  Uiso   1.00
H122   H     0.40581   0.42566   0.40476   0.00000  Uiso   1.00
H123   H     0.60981   0.07306   0.32245   0.00000  Uiso   1.00
H124   H     0.54645   0.97998   0.20787   0.00000  Uiso   1.00
H125   H     0.58009   0.05290   0.42950   0.00000  Uiso   1.00
H126   H     0.74342   0.17476   0.32328   0.00000  Uiso   1.00
H127   H     0.41225   0.89496   0.09146   0.00000  Uiso   1.00
H128   H     0.48322   0.04872   0.55879   0.00000  Uiso   1.00
H129   H     0.82763   0.30570   0.33481   0.00000  Uiso   1.00
O130   O     0.15076   0.89624   0.05255   0.00000  Uiso   1.00
O131   O     0.24387   0.09797   0.66567   0.00000  Uiso   1.00
O132   O     0.69573   0.43511   0.37181   0.00000  Uiso   1.00
N133   N     0.09841   0.99947   0.16067   0.00000  Uiso   1.00
N134   N     0.16476   0.14322   0.59758   0.00000  Uiso   1.00
N135   N     0.48675   0.38347   0.38820   0.00000  Uiso   1.00
N136   N     0.32539   0.93492   0.12303   0.00000  Uiso   1.00
N137   N     0.39173   0.07867   0.55994   0.00000  Uiso   1.00
N138   N     0.71373   0.31892   0.35056   0.00000  Uiso   1.00
C139   C     0.38892   0.39286   0.19885   0.00000  Uiso   1.00
C140   C     0.43450   0.32113   0.19302   0.00000  Uiso   1.00
C141   C     0.58172   0.28422   0.17176   0.00000  Uiso   1.00
C142   C     0.59968   0.21945   0.16993   0.00000  Uiso   1.00
C143   C     0.68945   0.11216   0.15806   0.00000  Uiso   1.00
C144   C     0.30020   0.44111   0.27408   0.00000  Uiso   1.00
C145   C     0.33450   0.50509   0.32096   0.00000  Uiso   1.00
C146   C     0.23940   0.54132   0.38736   0.00000  Uiso   1.00
C147   C     0.12061   0.62033   0.50131   0.00000  Uiso   1.00
C148   C     0.27451   0.38251   0.15314   0.00000  Uiso   1.00
C149   C     0.28717   0.39722   0.09836   0.00000  Uiso   1.00
C150   C     0.17041   0.38412   0.06295   0.00000  Uiso   1.00
C151   C     0.01173   0.37214   0.98913   0.00000  Uiso   1.00
C152   C     0.15901   0.34347   0.23341   0.00000  Uiso   1.00
C153   C     0.30961   0.29431   0.21179   0.00000  Uiso   1.00
C154   C     0.32735   0.22957   0.20999   0.00000  Uiso   1.00
C155   C     0.47458   0.19257   0.18873   0.00000  Uiso   1.00
C156   C     0.17533   0.41429   0.29285   0.00000  Uiso   1.00
C157   C     0.08014   0.45044   0.35919   0.00000  Uiso   1.00
C158   C     0.11429   0.51444   0.40617   0.00000  Uiso   1.00
C159   C     0.14963   0.35568   0.17191   0.00000  Uiso   1.00
C160   C     0.03281   0.34256   0.13659   0.00000  Uiso   1.00
C161   C     0.04530   0.35725   0.08176   0.00000  Uiso   1.00
H162   H     0.48614   0.41376   0.18424   0.00000  Uiso   1.00
H163   H     0.67833   0.30500   0.15724   0.00000  Uiso   1.00
H164   H     0.43114   0.52584   0.30642   0.00000  Uiso   1.00
H165   H     0.38383   0.41798   0.08385   0.00000  Uiso   1.00
H166   H     0.83635   0.17261   0.13561   0.00000  Uiso   1.00
H167   H     0.31511   0.63826   0.45015   0.00000  Uiso   1.00
H168   H     0.21533   0.41082   0.98081   0.00000  Uiso   1.00
H169   H     0.06178   0.32259   0.24802   0.00000  Uiso   1.00
H170   H     0.23069   0.20882   0.22452   0.00000  Uiso   1.00
H171   H     0.98350   0.42966   0.37370   0.00000  Uiso   1.00
H172   H     0.93619   0.32180   0.15113   0.00000  Uiso   1.00
H173   H     0.47303   0.09455   0.19022   0.00000  Uiso   1.00
H174   H     0.95178   0.56021   0.50476   0.00000  Uiso   1.00
H175   H     0.85201   0.33276   0.03542   0.00000  Uiso   1.00
O176   O     0.77347   0.06040   0.14633   0.00000  Uiso   1.00
O177   O     0.08960   0.67132   0.55898   0.00000  Uiso   1.00
O178   O     0.95871   0.37293   0.94323   0.00000  Uiso   1.00
N179   N     0.72766   0.16984   0.15168   0.00000  Uiso   1.00
N180   N     0.24034   0.60520   0.44575   0.00000  Uiso   1.00
N181   N     0.14704   0.39258   0.00698   0.00000  Uiso   1.00
N182   N     0.53216   0.12784   0.18106   0.00000  Uiso   1.00
N183   N     0.04484   0.56319   0.47513   0.00000  Uiso   1.00
N184   N     0.95154   0.35057   0.03636   0.00000  Uiso   1.00
C185   C     0.58680   0.80816   0.18735   0.00000  Uiso   1.00
C186   C     0.63295   0.81531   0.12209   0.00000  Uiso   1.00
C187   C     0.76245   0.83937   0.10476   0.00000  Uiso   1.00
C188   C     0.78432   0.84199   0.04276   0.00000  Uiso   1.00
C189   C     0.87184   0.85620   0.94795   0.00000  Uiso   1.00
C190   C     0.56841   0.73126   0.16130   0.00000  Uiso   1.00
C191   C     0.64364   0.68467   0.17695   0.00000  Uiso   1.00
C192   C     0.61115   0.61654   0.14797   0.00000  Uiso   1.00
C193   C     0.59839   0.50028   0.11408   0.00000  Uiso   1.00
C194   C     0.42785   0.85177   0.22434   0.00000  Uiso   1.00
C195   C     0.38486   0.90649   0.29301   0.00000  Uiso   1.00
C196   C     0.23402   0.93981   0.31712   0.00000  Uiso   1.00
C197   C     0.00301   0.01067   0.38112   0.00000  Uiso   1.00
C198   C     0.39535   0.77002   0.10808   0.00000  Uiso   1.00
C199   C     0.52896   0.79458   0.07903   0.00000  Uiso   1.00
C200   C     0.55063   0.79717   0.01705   0.00000  Uiso   1.00
C201   C     0.68014   0.82123   0.99963   0.00000  Uiso   1.00
C202   C     0.46443   0.71054   0.11824   0.00000  Uiso   1.00
C203   C     0.43181   0.64246   0.08924   0.00000  Uiso   1.00
C204   C     0.50697   0.59578   0.10483   0.00000  Uiso   1.00
C205   C     0.32385   0.83105   0.18129   0.00000  Uiso   1.00
C206   C     0.17305   0.86429   0.20530   0.00000  Uiso   1.00
C207   C     0.12984   0.91905   0.27398   0.00000  Uiso   1.00
H208   H     0.66776   0.82429   0.22087   0.00000  Uiso   1.00
H209   H     0.84291   0.85539   0.13809   0.00000  Uiso   1.00
H210   H     0.72409   0.70072   0.21027   0.00000  Uiso   1.00
H211   H     0.46537   0.92251   0.32631   0.00000  Uiso   1.00
H212   H     0.99126   0.88072   0.02730   0.00000  Uiso   1.00
H213   H     0.74069   0.55458   0.17953   0.00000  Uiso   1.00
H214   H     0.19511   0.02227   0.42423   0.00000  Uiso   1.00
H215   H     0.31438   0.75388   0.07455   0.00000  Uiso   1.00
H216   H     0.47014   0.78113   0.98373   0.00000  Uiso   1.00
H217   H     0.35133   0.62645   0.05592   0.00000  Uiso   1.00
H218   H     0.09260   0.84824   0.17196   0.00000  Uiso   1.00
H219   H     0.68871   0.82044   0.90202   0.00000  Uiso   1.00
H220   H     0.43814   0.49430   0.05425   0.00000  Uiso   1.00
H221   H     0.89256   0.96200   0.29895   0.00000  Uiso   1.00
O222   O     0.94885   0.86975   0.90755   0.00000  Uiso   1.00
O223   O     0.62009   0.44188   0.10728   0.00000  Uiso   1.00
O224   O     0.90431   0.05548   0.42831   0.00000  Uiso   1.00
N225   N     0.89867   0.86281   0.01029   0.00000  Uiso   1.00
N226   N     0.66442   0.55788   0.15260   0.00000  Uiso   1.00
N227   N     0.15434   0.99513   0.38138   0.00000  Uiso   1.00
N228   N     0.73587   0.83037   0.94288   0.00000  Uiso   1.00
N229   N     0.50162   0.52545   0.08519   0.00000  Uiso   1.00
N230   N     0.99154   0.96269   0.31397   0.00000  Uiso   1.00
C231   C     0.77000   0.81893   0.61457   0.00000  Uiso   1.00
C232   C     0.75079   0.88475   0.68572   0.00000  Uiso   1.00
C233   C     0.86107   0.90413   0.72457   0.00000  Uiso   1.00
C234   C     0.82121   0.96629   0.78839   0.00000  Uiso   1.00
C235   C     0.81346   0.06223   0.89518   0.00000  Uiso   1.00
C236   C     0.73251   0.84514   0.56531   0.00000  Uiso   1.00
C237   C     0.82743   0.83122   0.50291   0.00000  Uiso   1.00
C238   C     0.77217   0.86003   0.46536   0.00000  Uiso   1.00
C239   C     0.73601   0.89443   0.38519   0.00000  Uiso   1.00
C240   C     0.64378   0.77893   0.62302   0.00000  Uiso   1.00
C241   C     0.66408   0.70933   0.60914   0.00000  Uiso   1.00
C242   C     0.53410   0.68239   0.62017   0.00000  Uiso   1.00
C243   C     0.36016   0.61400   0.62961   0.00000  Uiso   1.00
C244   C     0.50307   0.89484   0.65883   0.00000  Uiso   1.00
C245   C     0.60580   0.92598   0.70976   0.00000  Uiso   1.00
C246   C     0.56575   0.98812   0.77354   0.00000  Uiso   1.00
C247   C     0.67596   0.00759   0.81247   0.00000  Uiso   1.00
C248   C     0.58754   0.88637   0.58935   0.00000  Uiso   1.00
C249   C     0.53211   0.91520   0.55188   0.00000  Uiso   1.00
C250   C     0.62692   0.90133   0.48944   0.00000  Uiso   1.00
C251   C     0.49879   0.82016   0.64706   0.00000  Uiso   1.00
C252   C     0.36876   0.79332   0.65811   0.00000  Uiso   1.00
C253   C     0.38885   0.72369   0.64425   0.00000  Uiso   1.00
H254   H     0.88287   0.78683   0.59585   0.00000  Uiso   1.00
H255   H     0.97327   0.87222   0.70594   0.00000  Uiso   1.00
H256   H     0.93962   0.79930   0.48431   0.00000  Uiso   1.00
H257   H     0.77629   0.67744   0.59053   0.00000  Uiso   1.00
H258   H     0.00957   0.98507   0.83858   0.00000  Uiso   1.00
H259   H     0.93860   0.83132   0.37126   0.00000  Uiso   1.00
H260   H     0.59419   0.57434   0.59524   0.00000  Uiso   1.00
H261   H     0.39019   0.92694   0.67755   0.00000  Uiso   1.00
H262   H     0.45355   0.02002   0.79213   0.00000  Uiso   1.00
H263   H     0.41991   0.94710   0.57050   0.00000  Uiso   1.00
H264   H     0.25658   0.82524   0.67672   0.00000  Uiso   1.00
H265   H     0.58775   0.10504   0.90854   0.00000  Uiso   1.00
H266   H     0.51678   0.95127   0.44121   0.00000  Uiso   1.00
H267   H     0.17237   0.69430   0.66519   0.00000  Uiso   1.00
O268   O     0.84924   0.10376   0.94745   0.00000  Uiso   1.00
O269   O     0.75613   0.90203   0.33433   0.00000  Uiso   1.00
O270   O     0.30427   0.56489   0.62819   0.00000  Uiso   1.00
N271   N     0.90158   0.00053   0.83933   0.00000  Uiso   1.00
N272   N     0.83524   0.85678   0.40242   0.00000  Uiso   1.00
N273   N     0.51325   0.61653   0.61180   0.00000  Uiso   1.00
N274   N     0.67461   0.06508   0.87697   0.00000  Uiso   1.00
N275   N     0.60827   0.92133   0.44006   0.00000  Uiso   1.00
N276   N     0.28627   0.68108   0.64944   0.00000  Uiso   1.00
