data_job_05857
_audit_creation_date              2018-12-19
_audit_creation_method            'Materials Studio'
_symmetry_space_group_name_H-M    'P1'
_symmetry_Int_Tables_number       1
_symmetry_cell_setting            triclinic
loop_
_symmetry_equiv_pos_as_xyz
  x,y,z
_cell_length_a                    7.3391
_cell_length_b                    10.6458
_cell_length_c                    16.8575
_cell_angle_alpha                 90.0000
_cell_angle_beta                  115.9241
_cell_angle_gamma                 90.0000
loop_
_atom_site_label
_atom_site_type_symbol
_atom_site_fract_x
_atom_site_fract_y
_atom_site_fract_z
_atom_site_U_iso_or_equiv
_atom_site_adp_type
_atom_site_occupancy
C1     C     0.59461   0.41723   0.00660   0.00000  Uiso   1.00
C2     C     0.59467   0.35116   0.92635   0.00000  Uiso   1.00
C3     C     0.42814   0.29559   0.85869   0.00000  Uiso   1.00
C4     C     0.45943   0.23995   0.79117   0.00000  Uiso   1.00
C5     C     0.43049   0.13731   0.66655   0.00000  Uiso   1.00
C6     C     0.75525   0.35117   0.08704   0.00000  Uiso   1.00
C7     C     0.72372   0.29563   0.15449   0.00000  Uiso   1.00
C8     C     0.89020   0.24001   0.22225   0.00000  Uiso   1.00
C9     C     0.11058   0.13747   0.34714   0.00000  Uiso   1.00
C10    C     0.67495   0.54936   0.00670   0.00000  Uiso   1.00
C11    C     0.57593   0.66046   0.00662   0.00000  Uiso   1.00
C12    C     0.67482   0.77170   0.00676   0.00000  Uiso   1.00
C13    C     0.77052   0.97686   0.00690   0.00000  Uiso   1.00
C14    C     0.94633   0.41725   0.00701   0.00000  Uiso   1.00
C15    C     0.78572   0.35117   0.92658   0.00000  Uiso   1.00
C16    C     0.81727   0.29561   0.85914   0.00000  Uiso   1.00
C17    C     0.65081   0.23996   0.79139   0.00000  Uiso   1.00
C18    C     0.94629   0.35118   0.08726   0.00000  Uiso   1.00
C19    C     0.11286   0.29564   0.15494   0.00000  Uiso   1.00
C20    C     0.08158   0.24002   0.22247   0.00000  Uiso   1.00
C21    C     0.86599   0.54937   0.00692   0.00000  Uiso   1.00
C22    C     0.96506   0.66046   0.00706   0.00000  Uiso   1.00
C23    C     0.86621   0.77171   0.00698   0.00000  Uiso   1.00
H24    H     0.44589   0.41723   0.00644   0.00000  Uiso   1.00
H25    H     0.28032   0.29560   0.85855   0.00000  Uiso   1.00
H26    H     0.57587   0.29565   0.15431   0.00000  Uiso   1.00
H27    H     0.42810   0.66041   0.00645   0.00000  Uiso   1.00
H28    H     0.18103   0.16071   0.69470   0.00000  Uiso   1.00
H29    H     0.80421   0.16086   0.31834   0.00000  Uiso   1.00
H30    H     0.49261   0.93004   0.00656   0.00000  Uiso   1.00
H31    H     0.09508   0.41725   0.00718   0.00000  Uiso   1.00
H32    H     0.96513   0.29562   0.85933   0.00000  Uiso   1.00
H33    H     0.26067   0.29567   0.15509   0.00000  Uiso   1.00
H34    H     0.11290   0.66043   0.00724   0.00000  Uiso   1.00
H35    H     0.73684   0.16073   0.69534   0.00000  Uiso   1.00
H36    H     0.36003   0.16088   0.31898   0.00000  Uiso   1.00
H37    H     0.04842   0.93005   0.00720   0.00000  Uiso   1.00
O38    O     0.36175   0.08067   0.59776   0.00000  Uiso   1.00
O39    O     0.17935   0.08089   0.41596   0.00000  Uiso   1.00
O40    O     0.77053   0.09002   0.00690   0.00000  Uiso   1.00
N41    N     0.32966   0.17743   0.71513   0.00000  Uiso   1.00
N42    N     0.91230   0.17755   0.29819   0.00000  Uiso   1.00
N43    N     0.62099   0.89667   0.00673   0.00000  Uiso   1.00
N44    N     0.62874   0.17744   0.71547   0.00000  Uiso   1.00
N45    N     0.21138   0.17756   0.29853   0.00000  Uiso   1.00
N46    N     0.92007   0.89668   0.00707   0.00000  Uiso   1.00
C47    C     0.59461   0.58277   0.50660   0.00000  Uiso   1.00
C48    C     0.59467   0.64884   0.42635   0.00000  Uiso   1.00
C49    C     0.42814   0.70441   0.35869   0.00000  Uiso   1.00
C50    C     0.45943   0.76005   0.29117   0.00000  Uiso   1.00
C51    C     0.43049   0.86269   0.16655   0.00000  Uiso   1.00
C52    C     0.75525   0.64883   0.58704   0.00000  Uiso   1.00
C53    C     0.72372   0.70437   0.65449   0.00000  Uiso   1.00
C54    C     0.89020   0.75999   0.72225   0.00000  Uiso   1.00
C55    C     0.11058   0.86253   0.84714   0.00000  Uiso   1.00
C56    C     0.67495   0.45064   0.50670   0.00000  Uiso   1.00
C57    C     0.57593   0.33954   0.50662   0.00000  Uiso   1.00
C58    C     0.67482   0.22830   0.50676   0.00000  Uiso   1.00
C59    C     0.77052   0.02314   0.50690   0.00000  Uiso   1.00
C60    C     0.94633   0.58275   0.50701   0.00000  Uiso   1.00
C61    C     0.78572   0.64883   0.42658   0.00000  Uiso   1.00
C62    C     0.81727   0.70439   0.35914   0.00000  Uiso   1.00
C63    C     0.65081   0.76004   0.29139   0.00000  Uiso   1.00
C64    C     0.94629   0.64882   0.58726   0.00000  Uiso   1.00
C65    C     0.11286   0.70436   0.65494   0.00000  Uiso   1.00
C66    C     0.08158   0.75998   0.72247   0.00000  Uiso   1.00
C67    C     0.86599   0.45063   0.50692   0.00000  Uiso   1.00
C68    C     0.96506   0.33954   0.50706   0.00000  Uiso   1.00
C69    C     0.86621   0.22829   0.50698   0.00000  Uiso   1.00
H70    H     0.44589   0.58277   0.50644   0.00000  Uiso   1.00
H71    H     0.28032   0.70440   0.35855   0.00000  Uiso   1.00
H72    H     0.57587   0.70435   0.65431   0.00000  Uiso   1.00
H73    H     0.42810   0.33959   0.50645   0.00000  Uiso   1.00
H74    H     0.18103   0.83929   0.19470   0.00000  Uiso   1.00
H75    H     0.80421   0.83914   0.81834   0.00000  Uiso   1.00
H76    H     0.49261   0.06996   0.50656   0.00000  Uiso   1.00
H77    H     0.09508   0.58275   0.50718   0.00000  Uiso   1.00
H78    H     0.96513   0.70438   0.35933   0.00000  Uiso   1.00
H79    H     0.26067   0.70433   0.65509   0.00000  Uiso   1.00
H80    H     0.11290   0.33957   0.50724   0.00000  Uiso   1.00
H81    H     0.73684   0.83927   0.19534   0.00000  Uiso   1.00
H82    H     0.36003   0.83912   0.81898   0.00000  Uiso   1.00
H83    H     0.04842   0.06995   0.50720   0.00000  Uiso   1.00
O84    O     0.36175   0.91933   0.09776   0.00000  Uiso   1.00
O85    O     0.17935   0.91911   0.91596   0.00000  Uiso   1.00
O86    O     0.77053   0.90998   0.50690   0.00000  Uiso   1.00
N87    N     0.32966   0.82257   0.21513   0.00000  Uiso   1.00
N88    N     0.91230   0.82245   0.79819   0.00000  Uiso   1.00
N89    N     0.62099   0.10333   0.50673   0.00000  Uiso   1.00
N90    N     0.62874   0.82256   0.21547   0.00000  Uiso   1.00
N91    N     0.21138   0.82244   0.79853   0.00000  Uiso   1.00
N92    N     0.92007   0.10332   0.50707   0.00000  Uiso   1.00
