data_job_03033
_audit_creation_date              2018-12-19
_audit_creation_method            'Materials Studio'
_symmetry_space_group_name_H-M    'P1'
_symmetry_Int_Tables_number       1
_symmetry_cell_setting            triclinic
loop_
_symmetry_equiv_pos_as_xyz
  x,y,z
_cell_length_a                    13.0825
_cell_length_b                    12.4806
_cell_length_c                    23.9321
_cell_angle_alpha                 90.0000
_cell_angle_beta                  58.1674
_cell_angle_gamma                 90.0000
loop_
_atom_site_label
_atom_site_type_symbol
_atom_site_fract_x
_atom_site_fract_y
_atom_site_fract_z
_atom_site_U_iso_or_equiv
_atom_site_adp_type
_atom_site_occupancy
C1     C     0.76213   0.71157   0.53170   0.00000  Uiso   1.00
C2     C     0.66354   0.79542   0.56732   0.00000  Uiso   1.00
C3     C     0.65651   0.89239   0.54116   0.00000  Uiso   1.00
C4     C     0.55931   0.95802   0.58167   0.00000  Uiso   1.00
C5     C     0.41949   0.09286   0.62720   0.00000  Uiso   1.00
C6     C     0.81489   0.69328   0.57453   0.00000  Uiso   1.00
C7     C     0.93512   0.70437   0.55442   0.00000  Uiso   1.00
C8     C     0.96531   0.68401   0.60100   0.00000  Uiso   1.00
C9     C     0.06048   0.66020   0.65771   0.00000  Uiso   1.00
C10    C     0.69823   0.60773   0.53444   0.00000  Uiso   1.00
C11    C     0.72038   0.54685   0.48062   0.00000  Uiso   1.00
C12    C     0.65237   0.45445   0.49345   0.00000  Uiso   1.00
C13    C     0.56640   0.29780   0.48791   0.00000  Uiso   1.00
C14    C     0.60199   0.65569   0.65016   0.00000  Uiso   1.00
C15    C     0.57657   0.76507   0.63167   0.00000  Uiso   1.00
C16    C     0.47934   0.83057   0.67223   0.00000  Uiso   1.00
C17    C     0.47216   0.92762   0.64613   0.00000  Uiso   1.00
C18    C     0.72792   0.66293   0.63887   0.00000  Uiso   1.00
C19    C     0.75794   0.64255   0.68549   0.00000  Uiso   1.00
C20    C     0.87818   0.65360   0.66546   0.00000  Uiso   1.00
C21    C     0.61124   0.57738   0.59878   0.00000  Uiso   1.00
C22    C     0.54320   0.48504   0.61169   0.00000  Uiso   1.00
C23    C     0.56523   0.42404   0.55791   0.00000  Uiso   1.00
H24    H     0.82985   0.73520   0.48161   0.00000  Uiso   1.00
H25    H     0.72385   0.91585   0.49136   0.00000  Uiso   1.00
H26    H     0.00241   0.72785   0.50463   0.00000  Uiso   1.00
H27    H     0.78769   0.57037   0.43084   0.00000  Uiso   1.00
H28    H     0.56799   0.10277   0.53056   0.00000  Uiso   1.00
H29    H     0.15535   0.70632   0.55852   0.00000  Uiso   1.00
H30    H     0.70259   0.37423   0.40293   0.00000  Uiso   1.00
H31    H     0.53428   0.63206   0.70026   0.00000  Uiso   1.00
H32    H     0.41204   0.80706   0.72202   0.00000  Uiso   1.00
H33    H     0.69061   0.61905   0.73528   0.00000  Uiso   1.00
H34    H     0.47590   0.46157   0.66149   0.00000  Uiso   1.00
H35    H     0.31492   0.01447   0.71777   0.00000  Uiso   1.00
H36    H     0.90229   0.61801   0.74573   0.00000  Uiso   1.00
H37    H     0.44952   0.28593   0.59013   0.00000  Uiso   1.00
O38    O     0.36640   0.17562   0.63454   0.00000  Uiso   1.00
O39    O     0.13700   0.65546   0.67122   0.00000  Uiso   1.00
O40    O     0.54299   0.21978   0.46708   0.00000  Uiso   1.00
N41    N     0.52519   0.05797   0.57163   0.00000  Uiso   1.00
N42    N     0.07434   0.68732   0.59778   0.00000  Uiso   1.00
N43    N     0.65107   0.37684   0.45231   0.00000  Uiso   1.00
N44    N     0.38902   0.01045   0.67237   0.00000  Uiso   1.00
N45    N     0.93816   0.63981   0.69851   0.00000  Uiso   1.00
N46    N     0.51489   0.32932   0.55304   0.00000  Uiso   1.00
C47    C     0.23787   0.71157   0.96830   0.00000  Uiso   1.00
C48    C     0.33646   0.79542   0.93268   0.00000  Uiso   1.00
C49    C     0.34349   0.89239   0.95884   0.00000  Uiso   1.00
C50    C     0.44069   0.95802   0.91833   0.00000  Uiso   1.00
C51    C     0.58051   0.09286   0.87280   0.00000  Uiso   1.00
C52    C     0.18511   0.69328   0.92547   0.00000  Uiso   1.00
C53    C     0.06488   0.70437   0.94558   0.00000  Uiso   1.00
C54    C     0.03469   0.68401   0.89900   0.00000  Uiso   1.00
C55    C     0.93952   0.66020   0.84229   0.00000  Uiso   1.00
C56    C     0.30177   0.60773   0.96556   0.00000  Uiso   1.00
C57    C     0.27962   0.54685   0.01938   0.00000  Uiso   1.00
C58    C     0.34763   0.45445   0.00655   0.00000  Uiso   1.00
C59    C     0.43360   0.29780   0.01209   0.00000  Uiso   1.00
C60    C     0.39801   0.65569   0.84984   0.00000  Uiso   1.00
C61    C     0.42343   0.76507   0.86833   0.00000  Uiso   1.00
C62    C     0.52066   0.83057   0.82777   0.00000  Uiso   1.00
C63    C     0.52784   0.92762   0.85387   0.00000  Uiso   1.00
C64    C     0.27208   0.66293   0.86113   0.00000  Uiso   1.00
C65    C     0.24206   0.64255   0.81451   0.00000  Uiso   1.00
C66    C     0.12182   0.65360   0.83454   0.00000  Uiso   1.00
C67    C     0.38876   0.57738   0.90122   0.00000  Uiso   1.00
C68    C     0.45680   0.48504   0.88831   0.00000  Uiso   1.00
C69    C     0.43477   0.42404   0.94209   0.00000  Uiso   1.00
H70    H     0.17015   0.73520   0.01839   0.00000  Uiso   1.00
H71    H     0.27615   0.91585   0.00864   0.00000  Uiso   1.00
H72    H     0.99759   0.72785   0.99537   0.00000  Uiso   1.00
H73    H     0.21231   0.57037   0.06916   0.00000  Uiso   1.00
H74    H     0.43201   0.10277   0.96944   0.00000  Uiso   1.00
H75    H     0.84465   0.70632   0.94148   0.00000  Uiso   1.00
H76    H     0.29741   0.37423   0.09707   0.00000  Uiso   1.00
H77    H     0.46572   0.63206   0.79974   0.00000  Uiso   1.00
H78    H     0.58796   0.80706   0.77798   0.00000  Uiso   1.00
H79    H     0.30939   0.61905   0.76472   0.00000  Uiso   1.00
H80    H     0.52410   0.46157   0.83851   0.00000  Uiso   1.00
H81    H     0.68508   0.01447   0.78223   0.00000  Uiso   1.00
H82    H     0.09771   0.61801   0.75427   0.00000  Uiso   1.00
H83    H     0.55048   0.28593   0.90987   0.00000  Uiso   1.00
O84    O     0.63360   0.17562   0.86546   0.00000  Uiso   1.00
O85    O     0.86300   0.65546   0.82878   0.00000  Uiso   1.00
O86    O     0.45701   0.21978   0.03292   0.00000  Uiso   1.00
N87    N     0.47481   0.05797   0.92837   0.00000  Uiso   1.00
N88    N     0.92566   0.68732   0.90222   0.00000  Uiso   1.00
N89    N     0.34893   0.37684   0.04769   0.00000  Uiso   1.00
N90    N     0.61098   0.01045   0.82763   0.00000  Uiso   1.00
N91    N     0.06184   0.63981   0.80149   0.00000  Uiso   1.00
N92    N     0.48511   0.32932   0.94696   0.00000  Uiso   1.00
C93    C     0.23787   0.28843   0.46830   0.00000  Uiso   1.00
C94    C     0.33646   0.20458   0.43268   0.00000  Uiso   1.00
C95    C     0.34349   0.10761   0.45884   0.00000  Uiso   1.00
C96    C     0.44069   0.04198   0.41833   0.00000  Uiso   1.00
C97    C     0.58051   0.90714   0.37280   0.00000  Uiso   1.00
C98    C     0.18511   0.30672   0.42547   0.00000  Uiso   1.00
C99    C     0.06488   0.29563   0.44558   0.00000  Uiso   1.00
C100   C     0.03469   0.31599   0.39900   0.00000  Uiso   1.00
C101   C     0.93952   0.33980   0.34229   0.00000  Uiso   1.00
C102   C     0.30177   0.39227   0.46556   0.00000  Uiso   1.00
C103   C     0.27962   0.45315   0.51938   0.00000  Uiso   1.00
C104   C     0.34763   0.54555   0.50655   0.00000  Uiso   1.00
C105   C     0.43360   0.70220   0.51209   0.00000  Uiso   1.00
C106   C     0.39801   0.34431   0.34984   0.00000  Uiso   1.00
C107   C     0.42343   0.23493   0.36833   0.00000  Uiso   1.00
C108   C     0.52066   0.16943   0.32777   0.00000  Uiso   1.00
C109   C     0.52784   0.07238   0.35387   0.00000  Uiso   1.00
C110   C     0.27208   0.33707   0.36113   0.00000  Uiso   1.00
C111   C     0.24206   0.35745   0.31451   0.00000  Uiso   1.00
C112   C     0.12182   0.34640   0.33454   0.00000  Uiso   1.00
C113   C     0.38876   0.42262   0.40122   0.00000  Uiso   1.00
C114   C     0.45680   0.51496   0.38831   0.00000  Uiso   1.00
C115   C     0.43477   0.57596   0.44209   0.00000  Uiso   1.00
H116   H     0.17015   0.26480   0.51839   0.00000  Uiso   1.00
H117   H     0.27615   0.08415   0.50864   0.00000  Uiso   1.00
H118   H     0.99759   0.27215   0.49537   0.00000  Uiso   1.00
H119   H     0.21231   0.42963   0.56916   0.00000  Uiso   1.00
H120   H     0.43201   0.89723   0.46944   0.00000  Uiso   1.00
H121   H     0.84465   0.29368   0.44148   0.00000  Uiso   1.00
H122   H     0.29741   0.62577   0.59707   0.00000  Uiso   1.00
H123   H     0.46572   0.36794   0.29974   0.00000  Uiso   1.00
H124   H     0.58796   0.19294   0.27798   0.00000  Uiso   1.00
H125   H     0.30939   0.38095   0.26472   0.00000  Uiso   1.00
H126   H     0.52410   0.53843   0.33851   0.00000  Uiso   1.00
H127   H     0.68508   0.98553   0.28223   0.00000  Uiso   1.00
H128   H     0.09771   0.38199   0.25427   0.00000  Uiso   1.00
H129   H     0.55048   0.71407   0.40987   0.00000  Uiso   1.00
O130   O     0.63360   0.82438   0.36546   0.00000  Uiso   1.00
O131   O     0.86300   0.34454   0.32878   0.00000  Uiso   1.00
O132   O     0.45701   0.78022   0.53292   0.00000  Uiso   1.00
N133   N     0.47481   0.94203   0.42837   0.00000  Uiso   1.00
N134   N     0.92566   0.31268   0.40222   0.00000  Uiso   1.00
N135   N     0.34893   0.62316   0.54769   0.00000  Uiso   1.00
N136   N     0.61098   0.98955   0.32763   0.00000  Uiso   1.00
N137   N     0.06184   0.36019   0.30149   0.00000  Uiso   1.00
N138   N     0.48511   0.67068   0.44696   0.00000  Uiso   1.00
C139   C     0.76213   0.28843   0.03170   0.00000  Uiso   1.00
C140   C     0.66354   0.20458   0.06732   0.00000  Uiso   1.00
C141   C     0.65651   0.10761   0.04116   0.00000  Uiso   1.00
C142   C     0.55931   0.04198   0.08167   0.00000  Uiso   1.00
C143   C     0.41949   0.90714   0.12720   0.00000  Uiso   1.00
C144   C     0.81489   0.30672   0.07453   0.00000  Uiso   1.00
C145   C     0.93512   0.29563   0.05442   0.00000  Uiso   1.00
C146   C     0.96531   0.31599   0.10100   0.00000  Uiso   1.00
C147   C     0.06048   0.33980   0.15771   0.00000  Uiso   1.00
C148   C     0.69823   0.39227   0.03444   0.00000  Uiso   1.00
C149   C     0.72038   0.45315   0.98062   0.00000  Uiso   1.00
C150   C     0.65237   0.54555   0.99345   0.00000  Uiso   1.00
C151   C     0.56640   0.70220   0.98791   0.00000  Uiso   1.00
C152   C     0.60199   0.34431   0.15016   0.00000  Uiso   1.00
C153   C     0.57657   0.23493   0.13167   0.00000  Uiso   1.00
C154   C     0.47934   0.16943   0.17223   0.00000  Uiso   1.00
C155   C     0.47216   0.07238   0.14613   0.00000  Uiso   1.00
C156   C     0.72792   0.33707   0.13887   0.00000  Uiso   1.00
C157   C     0.75794   0.35745   0.18549   0.00000  Uiso   1.00
C158   C     0.87818   0.34640   0.16546   0.00000  Uiso   1.00
C159   C     0.61124   0.42262   0.09878   0.00000  Uiso   1.00
C160   C     0.54320   0.51496   0.11169   0.00000  Uiso   1.00
C161   C     0.56523   0.57596   0.05791   0.00000  Uiso   1.00
H162   H     0.82985   0.26480   0.98161   0.00000  Uiso   1.00
H163   H     0.72385   0.08415   0.99136   0.00000  Uiso   1.00
H164   H     0.00241   0.27215   0.00463   0.00000  Uiso   1.00
H165   H     0.78769   0.42963   0.93084   0.00000  Uiso   1.00
H166   H     0.56799   0.89723   0.03056   0.00000  Uiso   1.00
H167   H     0.15535   0.29368   0.05852   0.00000  Uiso   1.00
H168   H     0.70259   0.62577   0.90293   0.00000  Uiso   1.00
H169   H     0.53428   0.36794   0.20026   0.00000  Uiso   1.00
H170   H     0.41204   0.19294   0.22202   0.00000  Uiso   1.00
H171   H     0.69061   0.38095   0.23528   0.00000  Uiso   1.00
H172   H     0.47590   0.53843   0.16149   0.00000  Uiso   1.00
H173   H     0.31492   0.98553   0.21777   0.00000  Uiso   1.00
H174   H     0.90229   0.38199   0.24573   0.00000  Uiso   1.00
H175   H     0.44952   0.71407   0.09013   0.00000  Uiso   1.00
O176   O     0.36640   0.82438   0.13454   0.00000  Uiso   1.00
O177   O     0.13700   0.34454   0.17122   0.00000  Uiso   1.00
O178   O     0.54299   0.78022   0.96708   0.00000  Uiso   1.00
N179   N     0.52519   0.94203   0.07163   0.00000  Uiso   1.00
N180   N     0.07434   0.31268   0.09778   0.00000  Uiso   1.00
N181   N     0.65107   0.62316   0.95231   0.00000  Uiso   1.00
N182   N     0.38902   0.98955   0.17237   0.00000  Uiso   1.00
N183   N     0.93816   0.36019   0.19851   0.00000  Uiso   1.00
N184   N     0.51489   0.67068   0.05304   0.00000  Uiso   1.00
