data_job_06344
_audit_creation_date              2018-12-19
_audit_creation_method            'Materials Studio'
_symmetry_space_group_name_H-M    'P1'
_symmetry_Int_Tables_number       1
_symmetry_cell_setting            triclinic
loop_
_symmetry_equiv_pos_as_xyz
  x,y,z
_cell_length_a                    16.1794
_cell_length_b                    15.9204
_cell_length_c                    15.7783
_cell_angle_alpha                 93.2579
_cell_angle_beta                  93.1188
_cell_angle_gamma                 93.2630
loop_
_atom_site_label
_atom_site_type_symbol
_atom_site_fract_x
_atom_site_fract_y
_atom_site_fract_z
_atom_site_U_iso_or_equiv
_atom_site_adp_type
_atom_site_occupancy
C1     C     0.35915   0.78998   0.29988   0.00000  Uiso   1.00
C2     C     0.26484   0.78389   0.30132   0.00000  Uiso   1.00
C3     C     0.21241   0.71881   0.26338   0.00000  Uiso   1.00
C4     C     0.12797   0.72493   0.27192   0.00000  Uiso   1.00
C5     C     0.98622   0.70503   0.26729   0.00000  Uiso   1.00
C6     C     0.38194   0.87379   0.26231   0.00000  Uiso   1.00
C7     C     0.42798   0.88429   0.19157   0.00000  Uiso   1.00
C8     C     0.44213   0.96609   0.16728   0.00000  Uiso   1.00
C9     C     0.48223   0.08577   0.10212   0.00000  Uiso   1.00
C10    C     0.39179   0.79903   0.39264   0.00000  Uiso   1.00
C11    C     0.44614   0.74669   0.43149   0.00000  Uiso   1.00
C12    C     0.46861   0.76556   0.51693   0.00000  Uiso   1.00
C13    C     0.52401   0.76917   0.65413   0.00000  Uiso   1.00
C14    C     0.30243   0.91659   0.38253   0.00000  Uiso   1.00
C15    C     0.23403   0.85266   0.34621   0.00000  Uiso   1.00
C16    C     0.14965   0.85888   0.35482   0.00000  Uiso   1.00
C17    C     0.09711   0.79382   0.31689   0.00000  Uiso   1.00
C18    C     0.35113   0.94256   0.30720   0.00000  Uiso   1.00
C19    C     0.36522   0.02437   0.28301   0.00000  Uiso   1.00
C20    C     0.41126   0.03499   0.21225   0.00000  Uiso   1.00
C21    C     0.36099   0.86780   0.43754   0.00000  Uiso   1.00
C22    C     0.38338   0.88677   0.52293   0.00000  Uiso   1.00
C23    C     0.43774   0.83446   0.56190   0.00000  Uiso   1.00
H24    H     0.38313   0.73645   0.26493   0.00000  Uiso   1.00
H25    H     0.23627   0.66560   0.22863   0.00000  Uiso   1.00
H26    H     0.45182   0.83106   0.15685   0.00000  Uiso   1.00
H27    H     0.46997   0.69348   0.39673   0.00000  Uiso   1.00
H28    H     0.05986   0.61740   0.20817   0.00000  Uiso   1.00
H29    H     0.51437   0.96628   0.05681   0.00000  Uiso   1.00
H30    H     0.55265   0.67616   0.56265   0.00000  Uiso   1.00
H31    H     0.27844   0.97014   0.41748   0.00000  Uiso   1.00
H32    H     0.12583   0.91211   0.38956   0.00000  Uiso   1.00
H33    H     0.34137   0.07757   0.31777   0.00000  Uiso   1.00
H34    H     0.35953   0.93999   0.55765   0.00000  Uiso   1.00
H35    H     0.97022   0.81747   0.33877   0.00000  Uiso   1.00
H36    H     0.42473   0.16636   0.18742   0.00000  Uiso   1.00
H37    H     0.46301   0.87624   0.69326   0.00000  Uiso   1.00
O38    O     0.91654   0.67506   0.25232   0.00000  Uiso   1.00
O39    O     0.51285   0.13279   0.05377   0.00000  Uiso   1.00
O40    O     0.56307   0.75215   0.71741   0.00000  Uiso   1.00
N41    N     0.05971   0.67244   0.24275   0.00000  Uiso   1.00
N42    N     0.48464   0.99863   0.10124   0.00000  Uiso   1.00
N43    N     0.52045   0.72740   0.57415   0.00000  Uiso   1.00
N44    N     0.01147   0.78010   0.31303   0.00000  Uiso   1.00
N45    N     0.43640   0.10629   0.17152   0.00000  Uiso   1.00
N46    N     0.47221   0.83506   0.64443   0.00000  Uiso   1.00
C47    C     0.30064   0.36019   0.78933   0.00000  Uiso   1.00
C48    C     0.30166   0.26432   0.78310   0.00000  Uiso   1.00
C49    C     0.26440   0.21112   0.71752   0.00000  Uiso   1.00
C50    C     0.27239   0.12528   0.72360   0.00000  Uiso   1.00
C51    C     0.26729   0.98119   0.70343   0.00000  Uiso   1.00
C52    C     0.26417   0.38338   0.87404   0.00000  Uiso   1.00
C53    C     0.19540   0.43029   0.88491   0.00000  Uiso   1.00
C54    C     0.17185   0.44466   0.96755   0.00000  Uiso   1.00
C55    C     0.10859   0.48547   0.08856   0.00000  Uiso   1.00
C56    C     0.39121   0.39322   0.79816   0.00000  Uiso   1.00
C57    C     0.42926   0.44843   0.74525   0.00000  Uiso   1.00
C58    C     0.51266   0.47112   0.76402   0.00000  Uiso   1.00
C59    C     0.64665   0.52721   0.76722   0.00000  Uiso   1.00
C60    C     0.38110   0.30233   0.91675   0.00000  Uiso   1.00
C61    C     0.34536   0.23289   0.85232   0.00000  Uiso   1.00
C62    C     0.35341   0.14710   0.85850   0.00000  Uiso   1.00
C63    C     0.31617   0.09379   0.79293   0.00000  Uiso   1.00
C64    C     0.30787   0.35195   0.94325   0.00000  Uiso   1.00
C65    C     0.28442   0.36626   0.02589   0.00000  Uiso   1.00
C66    C     0.21563   0.41318   0.03689   0.00000  Uiso   1.00
C67    C     0.43492   0.36179   0.86737   0.00000  Uiso   1.00
C68    C     0.51828   0.38440   0.88623   0.00000  Uiso   1.00
C69    C     0.55644   0.43963   0.83335   0.00000  Uiso   1.00
H70    H     0.26661   0.38466   0.73545   0.00000  Uiso   1.00
H71    H     0.23057   0.23547   0.66397   0.00000  Uiso   1.00
H72    H     0.16160   0.45461   0.83134   0.00000  Uiso   1.00
H73    H     0.39542   0.47274   0.69170   0.00000  Uiso   1.00
H74    H     0.20986   0.05620   0.61527   0.00000  Uiso   1.00
H75    H     0.06444   0.51828   0.96818   0.00000  Uiso   1.00
H76    H     0.55750   0.55653   0.67372   0.00000  Uiso   1.00
H77    H     0.41512   0.27786   0.97063   0.00000  Uiso   1.00
H78    H     0.38724   0.12280   0.91206   0.00000  Uiso   1.00
H79    H     0.31826   0.34194   0.07943   0.00000  Uiso   1.00
H80    H     0.55208   0.36007   0.93979   0.00000  Uiso   1.00
H81    H     0.33701   0.96475   0.81663   0.00000  Uiso   1.00
H82    H     0.19159   0.42684   0.16954   0.00000  Uiso   1.00
H83    H     0.68465   0.46508   0.87508   0.00000  Uiso   1.00
O84    O     0.25239   0.91040   0.67319   0.00000  Uiso   1.00
O85    O     0.06162   0.51665   0.13619   0.00000  Uiso   1.00
O86    O     0.70849   0.56682   0.74986   0.00000  Uiso   1.00
N87    N     0.24363   0.05596   0.67069   0.00000  Uiso   1.00
N88    N     0.10766   0.48797   0.00064   0.00000  Uiso   1.00
N89    N     0.56862   0.52374   0.72535   0.00000  Uiso   1.00
N90    N     0.31205   0.00675   0.77904   0.00000  Uiso   1.00
N91    N     0.17608   0.43876   0.10898   0.00000  Uiso   1.00
N92    N     0.63704   0.47453   0.83370   0.00000  Uiso   1.00
C93    C     0.79166   0.30050   0.36111   0.00000  Uiso   1.00
C94    C     0.78551   0.30160   0.26440   0.00000  Uiso   1.00
C95    C     0.72138   0.26385   0.21092   0.00000  Uiso   1.00
C96    C     0.72727   0.27201   0.12428   0.00000  Uiso   1.00
C97    C     0.70745   0.26694   0.97896   0.00000  Uiso   1.00
C98    C     0.87413   0.26327   0.38418   0.00000  Uiso   1.00
C99    C     0.88449   0.19332   0.43142   0.00000  Uiso   1.00
C100   C     0.96498   0.16923   0.44563   0.00000  Uiso   1.00
C101   C     0.08274   0.10471   0.48633   0.00000  Uiso   1.00
C102   C     0.80067   0.39254   0.39447   0.00000  Uiso   1.00
C103   C     0.74929   0.43126   0.45040   0.00000  Uiso   1.00
C104   C     0.76794   0.51600   0.47328   0.00000  Uiso   1.00
C105   C     0.77165   0.65217   0.52997   0.00000  Uiso   1.00
C106   C     0.91616   0.38211   0.30234   0.00000  Uiso   1.00
C107   C     0.85314   0.34592   0.23248   0.00000  Uiso   1.00
C108   C     0.85912   0.35415   0.14590   0.00000  Uiso   1.00
C109   C     0.79501   0.31642   0.09230   0.00000  Uiso   1.00
C110   C     0.94175   0.30760   0.35226   0.00000  Uiso   1.00
C111   C     0.02224   0.28361   0.36640   0.00000  Uiso   1.00
C112   C     0.03272   0.21364   0.41365   0.00000  Uiso   1.00
C113   C     0.86829   0.43687   0.36255   0.00000  Uiso   1.00
C114   C     0.88703   0.52156   0.38537   0.00000  Uiso   1.00
C115   C     0.83569   0.56041   0.44131   0.00000  Uiso   1.00
H116   H     0.73902   0.26598   0.38596   0.00000  Uiso   1.00
H117   H     0.66906   0.22955   0.23564   0.00000  Uiso   1.00
H118   H     0.83215   0.15903   0.45612   0.00000  Uiso   1.00
H119   H     0.69697   0.39694   0.47508   0.00000  Uiso   1.00
H120   H     0.62134   0.20867   0.05491   0.00000  Uiso   1.00
H121   H     0.96522   0.06001   0.51983   0.00000  Uiso   1.00
H122   H     0.68016   0.56168   0.55981   0.00000  Uiso   1.00
H123   H     0.96881   0.41662   0.27749   0.00000  Uiso   1.00
H124   H     0.91146   0.38845   0.12122   0.00000  Uiso   1.00
H125   H     0.07455   0.31794   0.34170   0.00000  Uiso   1.00
H126   H     0.93937   0.55584   0.36066   0.00000  Uiso   1.00
H127   H     0.81808   0.33765   0.96204   0.00000  Uiso   1.00
H128   H     0.16196   0.18898   0.42696   0.00000  Uiso   1.00
H129   H     0.87690   0.69065   0.46694   0.00000  Uiso   1.00
O130   O     0.67785   0.25189   0.90763   0.00000  Uiso   1.00
O131   O     0.12901   0.05686   0.51759   0.00000  Uiso   1.00
O132   O     0.75502   0.71504   0.57005   0.00000  Uiso   1.00
N133   N     0.67550   0.24291   0.05450   0.00000  Uiso   1.00
N134   N     0.99701   0.10391   0.48916   0.00000  Uiso   1.00
N135   N     0.73052   0.57292   0.52656   0.00000  Uiso   1.00
N136   N     0.78137   0.31231   0.00453   0.00000  Uiso   1.00
N137   N     0.10288   0.17331   0.43918   0.00000  Uiso   1.00
N138   N     0.83638   0.64232   0.47658   0.00000  Uiso   1.00
C139   C     0.64085   0.21002   0.70012   0.00000  Uiso   1.00
C140   C     0.73516   0.21611   0.69868   0.00000  Uiso   1.00
C141   C     0.78759   0.28119   0.73662   0.00000  Uiso   1.00
C142   C     0.87203   0.27507   0.72808   0.00000  Uiso   1.00
C143   C     0.01378   0.29497   0.73271   0.00000  Uiso   1.00
C144   C     0.61806   0.12621   0.73769   0.00000  Uiso   1.00
C145   C     0.57202   0.11571   0.80843   0.00000  Uiso   1.00
C146   C     0.55787   0.03391   0.83272   0.00000  Uiso   1.00
C147   C     0.51777   0.91423   0.89788   0.00000  Uiso   1.00
C148   C     0.60820   0.20097   0.60736   0.00000  Uiso   1.00
C149   C     0.55386   0.25331   0.56851   0.00000  Uiso   1.00
C150   C     0.53139   0.23444   0.48307   0.00000  Uiso   1.00
C151   C     0.47599   0.23083   0.34587   0.00000  Uiso   1.00
C152   C     0.69757   0.08341   0.61747   0.00000  Uiso   1.00
C153   C     0.76597   0.14734   0.65379   0.00000  Uiso   1.00
C154   C     0.85035   0.14112   0.64518   0.00000  Uiso   1.00
C155   C     0.90289   0.20618   0.68311   0.00000  Uiso   1.00
C156   C     0.64887   0.05744   0.69280   0.00000  Uiso   1.00
C157   C     0.63478   0.97563   0.71699   0.00000  Uiso   1.00
C158   C     0.58874   0.96501   0.78775   0.00000  Uiso   1.00
C159   C     0.63901   0.13220   0.56246   0.00000  Uiso   1.00
C160   C     0.61662   0.11323   0.47707   0.00000  Uiso   1.00
C161   C     0.56226   0.16554   0.43810   0.00000  Uiso   1.00
H162   H     0.61686   0.26355   0.73507   0.00000  Uiso   1.00
H163   H     0.76373   0.33440   0.77136   0.00000  Uiso   1.00
H164   H     0.54818   0.16894   0.84315   0.00000  Uiso   1.00
H165   H     0.53003   0.30652   0.60327   0.00000  Uiso   1.00
H166   H     0.94014   0.38260   0.79183   0.00000  Uiso   1.00
H167   H     0.48563   0.03372   0.94319   0.00000  Uiso   1.00
H168   H     0.44735   0.32384   0.43735   0.00000  Uiso   1.00
H169   H     0.72156   0.02986   0.58252   0.00000  Uiso   1.00
H170   H     0.87417   0.08789   0.61044   0.00000  Uiso   1.00
H171   H     0.65862   0.92243   0.68223   0.00000  Uiso   1.00
H172   H     0.64047   0.06001   0.44235   0.00000  Uiso   1.00
H173   H     0.02978   0.18253   0.66123   0.00000  Uiso   1.00
H174   H     0.57527   0.83364   0.81258   0.00000  Uiso   1.00
H175   H     0.53699   0.12376   0.30674   0.00000  Uiso   1.00
O176   O     0.08346   0.32494   0.74768   0.00000  Uiso   1.00
O177   O     0.48715   0.86721   0.94623   0.00000  Uiso   1.00
O178   O     0.43693   0.24785   0.28259   0.00000  Uiso   1.00
N179   N     0.94029   0.32756   0.75725   0.00000  Uiso   1.00
N180   N     0.51536   0.00137   0.89876   0.00000  Uiso   1.00
N181   N     0.47955   0.27260   0.42585   0.00000  Uiso   1.00
N182   N     0.98853   0.21990   0.68697   0.00000  Uiso   1.00
N183   N     0.56360   0.89371   0.82848   0.00000  Uiso   1.00
N184   N     0.52779   0.16494   0.35557   0.00000  Uiso   1.00
C185   C     0.69936   0.63981   0.21067   0.00000  Uiso   1.00
C186   C     0.69834   0.73568   0.21690   0.00000  Uiso   1.00
C187   C     0.73560   0.78888   0.28248   0.00000  Uiso   1.00
C188   C     0.72761   0.87472   0.27640   0.00000  Uiso   1.00
C189   C     0.73271   0.01881   0.29657   0.00000  Uiso   1.00
C190   C     0.73582   0.61662   0.12596   0.00000  Uiso   1.00
C191   C     0.80460   0.56971   0.11509   0.00000  Uiso   1.00
C192   C     0.82815   0.55534   0.03245   0.00000  Uiso   1.00
C193   C     0.89141   0.51453   0.91144   0.00000  Uiso   1.00
C194   C     0.60879   0.60678   0.20184   0.00000  Uiso   1.00
C195   C     0.57074   0.55157   0.25475   0.00000  Uiso   1.00
C196   C     0.48734   0.52888   0.23598   0.00000  Uiso   1.00
C197   C     0.35335   0.47279   0.23278   0.00000  Uiso   1.00
C198   C     0.61890   0.69767   0.08325   0.00000  Uiso   1.00
C199   C     0.65464   0.76711   0.14768   0.00000  Uiso   1.00
C200   C     0.64658   0.85290   0.14150   0.00000  Uiso   1.00
C201   C     0.68383   0.90621   0.20707   0.00000  Uiso   1.00
C202   C     0.69213   0.64805   0.05675   0.00000  Uiso   1.00
C203   C     0.71558   0.63373   0.97411   0.00000  Uiso   1.00
C204   C     0.78437   0.58682   0.96311   0.00000  Uiso   1.00
C205   C     0.56508   0.63821   0.13263   0.00000  Uiso   1.00
C206   C     0.48172   0.61560   0.11377   0.00000  Uiso   1.00
C207   C     0.44356   0.56037   0.16665   0.00000  Uiso   1.00
H208   H     0.73339   0.61534   0.26455   0.00000  Uiso   1.00
H209   H     0.76943   0.76453   0.33603   0.00000  Uiso   1.00
H210   H     0.83840   0.54539   0.16866   0.00000  Uiso   1.00
H211   H     0.60458   0.52726   0.30830   0.00000  Uiso   1.00
H212   H     0.79013   0.94380   0.38473   0.00000  Uiso   1.00
H213   H     0.93555   0.48172   0.03182   0.00000  Uiso   1.00
H214   H     0.44250   0.44347   0.32628   0.00000  Uiso   1.00
H215   H     0.58488   0.72214   0.02937   0.00000  Uiso   1.00
H216   H     0.61276   0.87720   0.08794   0.00000  Uiso   1.00
H217   H     0.68174   0.65806   0.92057   0.00000  Uiso   1.00
H218   H     0.44792   0.63993   0.06021   0.00000  Uiso   1.00
H219   H     0.66299   0.03525   0.18337   0.00000  Uiso   1.00
H220   H     0.80841   0.57316   0.83046   0.00000  Uiso   1.00
H221   H     0.31535   0.53492   0.12492   0.00000  Uiso   1.00
O222   O     0.74761   0.08960   0.32681   0.00000  Uiso   1.00
O223   O     0.93838   0.48335   0.86381   0.00000  Uiso   1.00
O224   O     0.29151   0.43318   0.25014   0.00000  Uiso   1.00
N225   N     0.75637   0.94404   0.32931   0.00000  Uiso   1.00
N226   N     0.89234   0.51203   0.99936   0.00000  Uiso   1.00
N227   N     0.43138   0.47626   0.27465   0.00000  Uiso   1.00
N228   N     0.68795   0.99325   0.22096   0.00000  Uiso   1.00
N229   N     0.82392   0.56124   0.89101   0.00000  Uiso   1.00
N230   N     0.36296   0.52547   0.16630   0.00000  Uiso   1.00
C231   C     0.20834   0.69950   0.63889   0.00000  Uiso   1.00
C232   C     0.21449   0.69840   0.73560   0.00000  Uiso   1.00
C233   C     0.27862   0.73615   0.78908   0.00000  Uiso   1.00
C234   C     0.27273   0.72799   0.87572   0.00000  Uiso   1.00
C235   C     0.29255   0.73306   0.02104   0.00000  Uiso   1.00
C236   C     0.12587   0.73672   0.61582   0.00000  Uiso   1.00
C237   C     0.11551   0.80668   0.56858   0.00000  Uiso   1.00
C238   C     0.03502   0.83077   0.55437   0.00000  Uiso   1.00
C239   C     0.91726   0.89529   0.51367   0.00000  Uiso   1.00
C240   C     0.19933   0.60746   0.60553   0.00000  Uiso   1.00
C241   C     0.25071   0.56874   0.54960   0.00000  Uiso   1.00
C242   C     0.23206   0.48400   0.52672   0.00000  Uiso   1.00
C243   C     0.22834   0.34783   0.47003   0.00000  Uiso   1.00
C244   C     0.08384   0.61789   0.69766   0.00000  Uiso   1.00
C245   C     0.14686   0.65408   0.76752   0.00000  Uiso   1.00
C246   C     0.14088   0.64585   0.85410   0.00000  Uiso   1.00
C247   C     0.20499   0.68358   0.90770   0.00000  Uiso   1.00
C248   C     0.05825   0.69240   0.64774   0.00000  Uiso   1.00
C249   C     0.97776   0.71639   0.63360   0.00000  Uiso   1.00
C250   C     0.96728   0.78636   0.58635   0.00000  Uiso   1.00
C251   C     0.13171   0.56313   0.63744   0.00000  Uiso   1.00
C252   C     0.11297   0.47844   0.61463   0.00000  Uiso   1.00
C253   C     0.16431   0.43959   0.55869   0.00000  Uiso   1.00
H254   H     0.26098   0.73402   0.61404   0.00000  Uiso   1.00
H255   H     0.33094   0.77045   0.76435   0.00000  Uiso   1.00
H256   H     0.16785   0.84097   0.54388   0.00000  Uiso   1.00
H257   H     0.30303   0.60306   0.52492   0.00000  Uiso   1.00
H258   H     0.37866   0.79133   0.94509   0.00000  Uiso   1.00
H259   H     0.03478   0.93999   0.48017   0.00000  Uiso   1.00
H260   H     0.31984   0.43832   0.44019   0.00000  Uiso   1.00
H261   H     0.03119   0.58338   0.72251   0.00000  Uiso   1.00
H262   H     0.08854   0.61155   0.87878   0.00000  Uiso   1.00
H263   H     0.92545   0.68206   0.65830   0.00000  Uiso   1.00
H264   H     0.06063   0.44416   0.63934   0.00000  Uiso   1.00
H265   H     0.18192   0.66235   0.03796   0.00000  Uiso   1.00
H266   H     0.83803   0.81102   0.57304   0.00000  Uiso   1.00
H267   H     0.12310   0.30935   0.53306   0.00000  Uiso   1.00
O268   O     0.32215   0.74811   0.09237   0.00000  Uiso   1.00
O269   O     0.87099   0.94314   0.48241   0.00000  Uiso   1.00
O270   O     0.24498   0.28496   0.42995   0.00000  Uiso   1.00
N271   N     0.32450   0.75709   0.94550   0.00000  Uiso   1.00
N272   N     0.00299   0.89609   0.51084   0.00000  Uiso   1.00
N273   N     0.26948   0.42708   0.47344   0.00000  Uiso   1.00
N274   N     0.21863   0.68769   0.99547   0.00000  Uiso   1.00
N275   N     0.89712   0.82669   0.56082   0.00000  Uiso   1.00
N276   N     0.16362   0.35768   0.52342   0.00000  Uiso   1.00
