data_job_05398
_audit_creation_date              2018-12-19
_audit_creation_method            'Materials Studio'
_symmetry_space_group_name_H-M    'P1'
_symmetry_Int_Tables_number       1
_symmetry_cell_setting            triclinic
loop_
_symmetry_equiv_pos_as_xyz
  x,y,z
_cell_length_a                    7.4768
_cell_length_b                    30.6081
_cell_length_c                    41.0588
_cell_angle_alpha                 90.0000
_cell_angle_beta                  99.9504
_cell_angle_gamma                 90.0000
loop_
_atom_site_label
_atom_site_type_symbol
_atom_site_fract_x
_atom_site_fract_y
_atom_site_fract_z
_atom_site_U_iso_or_equiv
_atom_site_adp_type
_atom_site_occupancy
C1     C     0.72745   0.09435   0.08809   0.00000  Uiso   1.00
C2     C     0.57817   0.12307   0.06910   0.00000  Uiso   1.00
C3     C     0.60374   0.16309   0.05470   0.00000  Uiso   1.00
C4     C     0.44973   0.18429   0.03842   0.00000  Uiso   1.00
C5     C     0.24427   0.23165   0.00922   0.00000  Uiso   1.00
C6     C     0.67639   0.08698   0.12206   0.00000  Uiso   1.00
C7     C     0.78457   0.09666   0.15218   0.00000  Uiso   1.00
C8     C     0.71325   0.08747   0.18048   0.00000  Uiso   1.00
C9     C     0.66035   0.07878   0.23350   0.00000  Uiso   1.00
C10    C     0.70920   0.05005   0.07086   0.00000  Uiso   1.00
C11    C     0.84497   0.02866   0.05795   0.00000  Uiso   1.00
C12    C     0.80129   0.98837   0.04315   0.00000  Uiso   1.00
C13    C     0.79932   0.92234   0.01667   0.00000  Uiso   1.00
C14    C     0.40847   0.06083   0.08479   0.00000  Uiso   1.00
C15    C     0.40491   0.10485   0.06730   0.00000  Uiso   1.00
C16    C     0.25082   0.12599   0.05104   0.00000  Uiso   1.00
C17    C     0.27616   0.16604   0.03662   0.00000  Uiso   1.00
C18    C     0.50314   0.06877   0.12026   0.00000  Uiso   1.00
C19    C     0.43165   0.05956   0.14852   0.00000  Uiso   1.00
C20    C     0.53968   0.06923   0.17869   0.00000  Uiso   1.00
C21    C     0.53594   0.03183   0.06906   0.00000  Uiso   1.00
C22    C     0.49205   0.99157   0.05429   0.00000  Uiso   1.00
C23    C     0.62772   0.97013   0.04135   0.00000  Uiso   1.00
H24    H     0.86234   0.10853   0.08949   0.00000  Uiso   1.00
H25    H     0.73784   0.17717   0.05610   0.00000  Uiso   1.00
H26    H     0.91864   0.11075   0.15356   0.00000  Uiso   1.00
H27    H     0.97903   0.04276   0.05934   0.00000  Uiso   1.00
H28    H     0.52339   0.24525   0.01829   0.00000  Uiso   1.00
H29    H     0.90465   0.10517   0.22381   0.00000  Uiso   1.00
H30    H     0.03200   0.96182   0.02512   0.00000  Uiso   1.00
H31    H     0.27358   0.04665   0.08339   0.00000  Uiso   1.00
H32    H     0.11676   0.11189   0.04966   0.00000  Uiso   1.00
H33    H     0.29757   0.04547   0.14713   0.00000  Uiso   1.00
H34    H     0.35796   0.97749   0.05290   0.00000  Uiso   1.00
H35    H     0.01931   0.19227   0.01306   0.00000  Uiso   1.00
H36    H     0.40057   0.05219   0.21858   0.00000  Uiso   1.00
H37    H     0.52791   0.90883   0.01989   0.00000  Uiso   1.00
O38    O     0.17881   0.26280   0.99361   0.00000  Uiso   1.00
O39    O     0.67903   0.07902   0.26323   0.00000  Uiso   1.00
O40    O     0.84609   0.89094   0.00256   0.00000  Uiso   1.00
N41    N     0.42628   0.22382   0.02168   0.00000  Uiso   1.00
N42    N     0.78273   0.09286   0.21383   0.00000  Uiso   1.00
N43    N     0.90180   0.95883   0.02808   0.00000  Uiso   1.00
N44    N     0.15503   0.19531   0.01887   0.00000  Uiso   1.00
N45    N     0.51148   0.06435   0.21102   0.00000  Uiso   1.00
N46    N     0.63055   0.93032   0.02527   0.00000  Uiso   1.00
C47    C     0.57272   0.94337   0.91725   0.00000  Uiso   1.00
C48    C     0.45724   0.91477   0.93588   0.00000  Uiso   1.00
C49    C     0.50917   0.87491   0.95066   0.00000  Uiso   1.00
C50    C     0.38400   0.85379   0.96651   0.00000  Uiso   1.00
C51    C     0.23065   0.80662   0.99527   0.00000  Uiso   1.00
C52    C     0.46071   0.95037   0.88293   0.00000  Uiso   1.00
C53    C     0.51559   0.94045   0.85317   0.00000  Uiso   1.00
C54    C     0.39335   0.94930   0.82444   0.00000  Uiso   1.00
C55    C     0.24545   0.95743   0.77099   0.00000  Uiso   1.00
C56    C     0.58456   0.98784   0.93422   0.00000  Uiso   1.00
C57    C     0.74358   0.00943   0.94760   0.00000  Uiso   1.00
C58    C     0.72561   0.04985   0.96205   0.00000  Uiso   1.00
C59    C     0.77001   0.11615   0.98824   0.00000  Uiso   1.00
C60    C     0.25806   0.97675   0.91913   0.00000  Uiso   1.00
C61    C     0.28633   0.93290   0.93690   0.00000  Uiso   1.00
C62    C     0.16104   0.91184   0.95274   0.00000  Uiso   1.00
C63    C     0.21279   0.87196   0.96753   0.00000  Uiso   1.00
C64    C     0.28981   0.96850   0.88395   0.00000  Uiso   1.00
C65    C     0.16746   0.97738   0.85525   0.00000  Uiso   1.00
C66    C     0.22213   0.96747   0.82547   0.00000  Uiso   1.00
C67    C     0.41366   0.00598   0.93525   0.00000  Uiso   1.00
C68    C     0.39544   0.04637   0.94968   0.00000  Uiso   1.00
C69    C     0.55439   0.06801   0.96307   0.00000  Uiso   1.00
H70    H     0.70577   0.92925   0.91645   0.00000  Uiso   1.00
H71    H     0.64145   0.86089   0.94986   0.00000  Uiso   1.00
H72    H     0.64786   0.92642   0.85239   0.00000  Uiso   1.00
H73    H     0.87581   0.99539   0.94680   0.00000  Uiso   1.00
H74    H     0.49473   0.79308   0.98734   0.00000  Uiso   1.00
H75    H     0.50829   0.93127   0.78182   0.00000  Uiso   1.00
H76    H     0.98896   0.07672   0.98090   0.00000  Uiso   1.00
H77    H     0.12499   0.99087   0.91992   0.00000  Uiso   1.00
H78    H     0.02879   0.92588   0.95352   0.00000  Uiso   1.00
H79    H     0.03522   0.99141   0.85605   0.00000  Uiso   1.00
H80    H     0.26316   0.06039   0.95046   0.00000  Uiso   1.00
H81    H     0.99747   0.84583   0.99031   0.00000  Uiso   1.00
H82    H     0.01104   0.98402   0.78479   0.00000  Uiso   1.00
H83    H     0.49171   0.12947   0.98387   0.00000  Uiso   1.00
O84    O     0.19327   0.77558   0.01085   0.00000  Uiso   1.00
O85    O     0.21108   0.95689   0.74122   0.00000  Uiso   1.00
O86    O     0.84171   0.14771   0.00241   0.00000  Uiso   1.00
N87    N     0.39092   0.81442   0.98343   0.00000  Uiso   1.00
N88    N     0.40358   0.94361   0.79129   0.00000  Uiso   1.00
N89    N     0.85297   0.07959   0.97740   0.00000  Uiso   1.00
N90    N     0.12335   0.84280   0.98503   0.00000  Uiso   1.00
N91    N     0.13602   0.97199   0.79289   0.00000  Uiso   1.00
N92    N     0.58541   0.10798   0.97900   0.00000  Uiso   1.00
C93    C     0.22745   0.59435   0.08809   0.00000  Uiso   1.00
C94    C     0.07817   0.62307   0.06910   0.00000  Uiso   1.00
C95    C     0.10374   0.66309   0.05470   0.00000  Uiso   1.00
C96    C     0.94973   0.68429   0.03842   0.00000  Uiso   1.00
C97    C     0.74427   0.73165   0.00922   0.00000  Uiso   1.00
C98    C     0.17639   0.58698   0.12206   0.00000  Uiso   1.00
C99    C     0.28457   0.59666   0.15218   0.00000  Uiso   1.00
C100   C     0.21325   0.58747   0.18048   0.00000  Uiso   1.00
C101   C     0.16035   0.57878   0.23350   0.00000  Uiso   1.00
C102   C     0.20920   0.55005   0.07086   0.00000  Uiso   1.00
C103   C     0.34497   0.52866   0.05795   0.00000  Uiso   1.00
C104   C     0.30129   0.48837   0.04315   0.00000  Uiso   1.00
C105   C     0.29932   0.42234   0.01667   0.00000  Uiso   1.00
C106   C     0.90847   0.56083   0.08479   0.00000  Uiso   1.00
C107   C     0.90491   0.60485   0.06730   0.00000  Uiso   1.00
C108   C     0.75082   0.62599   0.05104   0.00000  Uiso   1.00
C109   C     0.77616   0.66604   0.03662   0.00000  Uiso   1.00
C110   C     0.00314   0.56877   0.12026   0.00000  Uiso   1.00
C111   C     0.93165   0.55956   0.14852   0.00000  Uiso   1.00
C112   C     0.03968   0.56923   0.17869   0.00000  Uiso   1.00
C113   C     0.03594   0.53183   0.06906   0.00000  Uiso   1.00
C114   C     0.99205   0.49157   0.05429   0.00000  Uiso   1.00
C115   C     0.12772   0.47013   0.04135   0.00000  Uiso   1.00
H116   H     0.36234   0.60853   0.08949   0.00000  Uiso   1.00
H117   H     0.23784   0.67717   0.05610   0.00000  Uiso   1.00
H118   H     0.41864   0.61075   0.15356   0.00000  Uiso   1.00
H119   H     0.47903   0.54276   0.05934   0.00000  Uiso   1.00
H120   H     0.02339   0.74525   0.01829   0.00000  Uiso   1.00
H121   H     0.40465   0.60517   0.22381   0.00000  Uiso   1.00
H122   H     0.53200   0.46182   0.02512   0.00000  Uiso   1.00
H123   H     0.77358   0.54665   0.08339   0.00000  Uiso   1.00
H124   H     0.61676   0.61189   0.04966   0.00000  Uiso   1.00
H125   H     0.79757   0.54547   0.14713   0.00000  Uiso   1.00
H126   H     0.85796   0.47749   0.05290   0.00000  Uiso   1.00
H127   H     0.51931   0.69227   0.01306   0.00000  Uiso   1.00
H128   H     0.90057   0.55219   0.21858   0.00000  Uiso   1.00
H129   H     0.02791   0.40883   0.01989   0.00000  Uiso   1.00
O130   O     0.67881   0.76280   0.99361   0.00000  Uiso   1.00
O131   O     0.17903   0.57902   0.26323   0.00000  Uiso   1.00
O132   O     0.34609   0.39094   0.00256   0.00000  Uiso   1.00
N133   N     0.92628   0.72382   0.02168   0.00000  Uiso   1.00
N134   N     0.28273   0.59286   0.21383   0.00000  Uiso   1.00
N135   N     0.40180   0.45883   0.02808   0.00000  Uiso   1.00
N136   N     0.65503   0.69531   0.01887   0.00000  Uiso   1.00
N137   N     0.01148   0.56435   0.21102   0.00000  Uiso   1.00
N138   N     0.13055   0.43032   0.02527   0.00000  Uiso   1.00
C139   C     0.07272   0.44337   0.91725   0.00000  Uiso   1.00
C140   C     0.95724   0.41477   0.93588   0.00000  Uiso   1.00
C141   C     0.00917   0.37491   0.95066   0.00000  Uiso   1.00
C142   C     0.88400   0.35379   0.96651   0.00000  Uiso   1.00
C143   C     0.73065   0.30662   0.99527   0.00000  Uiso   1.00
C144   C     0.96071   0.45037   0.88293   0.00000  Uiso   1.00
C145   C     0.01559   0.44045   0.85317   0.00000  Uiso   1.00
C146   C     0.89335   0.44930   0.82444   0.00000  Uiso   1.00
C147   C     0.74545   0.45743   0.77099   0.00000  Uiso   1.00
C148   C     0.08456   0.48784   0.93422   0.00000  Uiso   1.00
C149   C     0.24358   0.50943   0.94760   0.00000  Uiso   1.00
C150   C     0.22561   0.54985   0.96205   0.00000  Uiso   1.00
C151   C     0.27001   0.61615   0.98824   0.00000  Uiso   1.00
C152   C     0.75806   0.47675   0.91913   0.00000  Uiso   1.00
C153   C     0.78633   0.43290   0.93690   0.00000  Uiso   1.00
C154   C     0.66104   0.41184   0.95274   0.00000  Uiso   1.00
C155   C     0.71279   0.37196   0.96753   0.00000  Uiso   1.00
C156   C     0.78981   0.46850   0.88395   0.00000  Uiso   1.00
C157   C     0.66746   0.47738   0.85525   0.00000  Uiso   1.00
C158   C     0.72213   0.46747   0.82547   0.00000  Uiso   1.00
C159   C     0.91366   0.50598   0.93525   0.00000  Uiso   1.00
C160   C     0.89544   0.54637   0.94968   0.00000  Uiso   1.00
C161   C     0.05439   0.56801   0.96307   0.00000  Uiso   1.00
H162   H     0.20577   0.42925   0.91645   0.00000  Uiso   1.00
H163   H     0.14145   0.36089   0.94986   0.00000  Uiso   1.00
H164   H     0.14786   0.42642   0.85239   0.00000  Uiso   1.00
H165   H     0.37581   0.49539   0.94680   0.00000  Uiso   1.00
H166   H     0.99473   0.29308   0.98734   0.00000  Uiso   1.00
H167   H     0.00829   0.43127   0.78182   0.00000  Uiso   1.00
H168   H     0.48896   0.57672   0.98090   0.00000  Uiso   1.00
H169   H     0.62499   0.49087   0.91992   0.00000  Uiso   1.00
H170   H     0.52879   0.42588   0.95352   0.00000  Uiso   1.00
H171   H     0.53522   0.49141   0.85605   0.00000  Uiso   1.00
H172   H     0.76316   0.56039   0.95046   0.00000  Uiso   1.00
H173   H     0.49747   0.34583   0.99031   0.00000  Uiso   1.00
H174   H     0.51104   0.48402   0.78479   0.00000  Uiso   1.00
H175   H     0.99171   0.62947   0.98387   0.00000  Uiso   1.00
O176   O     0.69327   0.27558   0.01085   0.00000  Uiso   1.00
O177   O     0.71108   0.45689   0.74122   0.00000  Uiso   1.00
O178   O     0.34171   0.64771   0.00241   0.00000  Uiso   1.00
N179   N     0.89092   0.31442   0.98343   0.00000  Uiso   1.00
N180   N     0.90358   0.44361   0.79129   0.00000  Uiso   1.00
N181   N     0.35297   0.57959   0.97740   0.00000  Uiso   1.00
N182   N     0.62335   0.34280   0.98503   0.00000  Uiso   1.00
N183   N     0.63602   0.47199   0.79289   0.00000  Uiso   1.00
N184   N     0.08541   0.60798   0.97900   0.00000  Uiso   1.00
C185   C     0.72745   0.90565   0.58809   0.00000  Uiso   1.00
C186   C     0.57817   0.87693   0.56910   0.00000  Uiso   1.00
C187   C     0.60374   0.83691   0.55470   0.00000  Uiso   1.00
C188   C     0.44973   0.81571   0.53842   0.00000  Uiso   1.00
C189   C     0.24427   0.76835   0.50922   0.00000  Uiso   1.00
C190   C     0.67639   0.91302   0.62206   0.00000  Uiso   1.00
C191   C     0.78457   0.90334   0.65218   0.00000  Uiso   1.00
C192   C     0.71325   0.91253   0.68048   0.00000  Uiso   1.00
C193   C     0.66035   0.92122   0.73350   0.00000  Uiso   1.00
C194   C     0.70920   0.94995   0.57086   0.00000  Uiso   1.00
C195   C     0.84497   0.97134   0.55795   0.00000  Uiso   1.00
C196   C     0.80129   0.01163   0.54315   0.00000  Uiso   1.00
C197   C     0.79932   0.07766   0.51667   0.00000  Uiso   1.00
C198   C     0.40847   0.93917   0.58479   0.00000  Uiso   1.00
C199   C     0.40491   0.89515   0.56730   0.00000  Uiso   1.00
C200   C     0.25082   0.87401   0.55104   0.00000  Uiso   1.00
C201   C     0.27616   0.83396   0.53662   0.00000  Uiso   1.00
C202   C     0.50314   0.93123   0.62026   0.00000  Uiso   1.00
C203   C     0.43165   0.94044   0.64852   0.00000  Uiso   1.00
C204   C     0.53968   0.93077   0.67869   0.00000  Uiso   1.00
C205   C     0.53594   0.96817   0.56906   0.00000  Uiso   1.00
C206   C     0.49205   0.00843   0.55429   0.00000  Uiso   1.00
C207   C     0.62772   0.02987   0.54135   0.00000  Uiso   1.00
H208   H     0.86234   0.89147   0.58949   0.00000  Uiso   1.00
H209   H     0.73784   0.82283   0.55610   0.00000  Uiso   1.00
H210   H     0.91864   0.88925   0.65356   0.00000  Uiso   1.00
H211   H     0.97903   0.95724   0.55934   0.00000  Uiso   1.00
H212   H     0.52339   0.75475   0.51829   0.00000  Uiso   1.00
H213   H     0.90465   0.89483   0.72381   0.00000  Uiso   1.00
H214   H     0.03200   0.03818   0.52512   0.00000  Uiso   1.00
H215   H     0.27358   0.95335   0.58339   0.00000  Uiso   1.00
H216   H     0.11676   0.88811   0.54966   0.00000  Uiso   1.00
H217   H     0.29757   0.95453   0.64713   0.00000  Uiso   1.00
H218   H     0.35796   0.02251   0.55290   0.00000  Uiso   1.00
H219   H     0.01931   0.80773   0.51306   0.00000  Uiso   1.00
H220   H     0.40057   0.94781   0.71858   0.00000  Uiso   1.00
H221   H     0.52791   0.09117   0.51989   0.00000  Uiso   1.00
O222   O     0.17881   0.73720   0.49361   0.00000  Uiso   1.00
O223   O     0.67903   0.92098   0.76323   0.00000  Uiso   1.00
O224   O     0.84609   0.10906   0.50256   0.00000  Uiso   1.00
N225   N     0.42628   0.77618   0.52168   0.00000  Uiso   1.00
N226   N     0.78273   0.90714   0.71383   0.00000  Uiso   1.00
N227   N     0.90180   0.04117   0.52808   0.00000  Uiso   1.00
N228   N     0.15503   0.80469   0.51887   0.00000  Uiso   1.00
N229   N     0.51148   0.93565   0.71102   0.00000  Uiso   1.00
N230   N     0.63055   0.06968   0.52527   0.00000  Uiso   1.00
C231   C     0.57272   0.05663   0.41725   0.00000  Uiso   1.00
C232   C     0.45724   0.08523   0.43588   0.00000  Uiso   1.00
C233   C     0.50917   0.12509   0.45066   0.00000  Uiso   1.00
C234   C     0.38400   0.14621   0.46651   0.00000  Uiso   1.00
C235   C     0.23065   0.19338   0.49527   0.00000  Uiso   1.00
C236   C     0.46071   0.04963   0.38293   0.00000  Uiso   1.00
C237   C     0.51559   0.05955   0.35317   0.00000  Uiso   1.00
C238   C     0.39335   0.05070   0.32444   0.00000  Uiso   1.00
C239   C     0.24545   0.04257   0.27099   0.00000  Uiso   1.00
C240   C     0.58456   0.01216   0.43422   0.00000  Uiso   1.00
C241   C     0.74358   0.99057   0.44760   0.00000  Uiso   1.00
C242   C     0.72561   0.95015   0.46205   0.00000  Uiso   1.00
C243   C     0.77001   0.88385   0.48824   0.00000  Uiso   1.00
C244   C     0.25806   0.02325   0.41913   0.00000  Uiso   1.00
C245   C     0.28633   0.06710   0.43690   0.00000  Uiso   1.00
C246   C     0.16104   0.08816   0.45274   0.00000  Uiso   1.00
C247   C     0.21279   0.12804   0.46753   0.00000  Uiso   1.00
C248   C     0.28981   0.03150   0.38395   0.00000  Uiso   1.00
C249   C     0.16746   0.02262   0.35525   0.00000  Uiso   1.00
C250   C     0.22213   0.03253   0.32547   0.00000  Uiso   1.00
C251   C     0.41366   0.99402   0.43525   0.00000  Uiso   1.00
C252   C     0.39544   0.95363   0.44968   0.00000  Uiso   1.00
C253   C     0.55439   0.93199   0.46307   0.00000  Uiso   1.00
H254   H     0.70577   0.07075   0.41645   0.00000  Uiso   1.00
H255   H     0.64145   0.13911   0.44986   0.00000  Uiso   1.00
H256   H     0.64786   0.07358   0.35239   0.00000  Uiso   1.00
H257   H     0.87581   0.00461   0.44680   0.00000  Uiso   1.00
H258   H     0.49473   0.20692   0.48734   0.00000  Uiso   1.00
H259   H     0.50829   0.06873   0.28182   0.00000  Uiso   1.00
H260   H     0.98896   0.92328   0.48090   0.00000  Uiso   1.00
H261   H     0.12499   0.00913   0.41992   0.00000  Uiso   1.00
H262   H     0.02879   0.07412   0.45352   0.00000  Uiso   1.00
H263   H     0.03522   0.00859   0.35605   0.00000  Uiso   1.00
H264   H     0.26316   0.93961   0.45046   0.00000  Uiso   1.00
H265   H     0.99747   0.15417   0.49031   0.00000  Uiso   1.00
H266   H     0.01104   0.01598   0.28479   0.00000  Uiso   1.00
H267   H     0.49171   0.87053   0.48387   0.00000  Uiso   1.00
O268   O     0.19327   0.22442   0.51085   0.00000  Uiso   1.00
O269   O     0.21108   0.04311   0.24122   0.00000  Uiso   1.00
O270   O     0.84171   0.85229   0.50241   0.00000  Uiso   1.00
N271   N     0.39092   0.18558   0.48343   0.00000  Uiso   1.00
N272   N     0.40358   0.05639   0.29129   0.00000  Uiso   1.00
N273   N     0.85297   0.92041   0.47740   0.00000  Uiso   1.00
N274   N     0.12335   0.15720   0.48503   0.00000  Uiso   1.00
N275   N     0.13602   0.02801   0.29289   0.00000  Uiso   1.00
N276   N     0.58541   0.89202   0.47900   0.00000  Uiso   1.00
C277   C     0.22745   0.40565   0.58809   0.00000  Uiso   1.00
C278   C     0.07817   0.37693   0.56910   0.00000  Uiso   1.00
C279   C     0.10374   0.33691   0.55470   0.00000  Uiso   1.00
C280   C     0.94973   0.31571   0.53842   0.00000  Uiso   1.00
C281   C     0.74427   0.26835   0.50922   0.00000  Uiso   1.00
C282   C     0.17639   0.41302   0.62206   0.00000  Uiso   1.00
C283   C     0.28457   0.40334   0.65218   0.00000  Uiso   1.00
C284   C     0.21325   0.41253   0.68048   0.00000  Uiso   1.00
C285   C     0.16035   0.42122   0.73350   0.00000  Uiso   1.00
C286   C     0.20920   0.44995   0.57086   0.00000  Uiso   1.00
C287   C     0.34497   0.47134   0.55795   0.00000  Uiso   1.00
C288   C     0.30129   0.51163   0.54315   0.00000  Uiso   1.00
C289   C     0.29932   0.57766   0.51667   0.00000  Uiso   1.00
C290   C     0.90847   0.43917   0.58479   0.00000  Uiso   1.00
C291   C     0.90491   0.39515   0.56730   0.00000  Uiso   1.00
C292   C     0.75082   0.37401   0.55104   0.00000  Uiso   1.00
C293   C     0.77616   0.33396   0.53662   0.00000  Uiso   1.00
C294   C     0.00314   0.43123   0.62026   0.00000  Uiso   1.00
C295   C     0.93165   0.44044   0.64852   0.00000  Uiso   1.00
C296   C     0.03968   0.43077   0.67869   0.00000  Uiso   1.00
C297   C     0.03594   0.46817   0.56906   0.00000  Uiso   1.00
C298   C     0.99205   0.50843   0.55429   0.00000  Uiso   1.00
C299   C     0.12772   0.52987   0.54135   0.00000  Uiso   1.00
H300   H     0.36234   0.39147   0.58949   0.00000  Uiso   1.00
H301   H     0.23784   0.32283   0.55610   0.00000  Uiso   1.00
H302   H     0.41864   0.38925   0.65356   0.00000  Uiso   1.00
H303   H     0.47903   0.45724   0.55934   0.00000  Uiso   1.00
H304   H     0.02339   0.25475   0.51829   0.00000  Uiso   1.00
H305   H     0.40465   0.39483   0.72381   0.00000  Uiso   1.00
H306   H     0.53200   0.53818   0.52512   0.00000  Uiso   1.00
H307   H     0.77358   0.45335   0.58339   0.00000  Uiso   1.00
H308   H     0.61676   0.38811   0.54966   0.00000  Uiso   1.00
H309   H     0.79757   0.45453   0.64713   0.00000  Uiso   1.00
H310   H     0.85796   0.52251   0.55290   0.00000  Uiso   1.00
H311   H     0.51931   0.30773   0.51306   0.00000  Uiso   1.00
H312   H     0.90057   0.44781   0.71858   0.00000  Uiso   1.00
H313   H     0.02791   0.59117   0.51989   0.00000  Uiso   1.00
O314   O     0.67881   0.23720   0.49361   0.00000  Uiso   1.00
O315   O     0.17903   0.42098   0.76323   0.00000  Uiso   1.00
O316   O     0.34609   0.60906   0.50256   0.00000  Uiso   1.00
N317   N     0.92628   0.27618   0.52168   0.00000  Uiso   1.00
N318   N     0.28273   0.40714   0.71383   0.00000  Uiso   1.00
N319   N     0.40180   0.54117   0.52808   0.00000  Uiso   1.00
N320   N     0.65503   0.30469   0.51887   0.00000  Uiso   1.00
N321   N     0.01148   0.43565   0.71102   0.00000  Uiso   1.00
N322   N     0.13055   0.56968   0.52527   0.00000  Uiso   1.00
C323   C     0.07272   0.55663   0.41725   0.00000  Uiso   1.00
C324   C     0.95724   0.58523   0.43588   0.00000  Uiso   1.00
C325   C     0.00917   0.62509   0.45066   0.00000  Uiso   1.00
C326   C     0.88400   0.64621   0.46651   0.00000  Uiso   1.00
C327   C     0.73065   0.69338   0.49527   0.00000  Uiso   1.00
C328   C     0.96071   0.54963   0.38293   0.00000  Uiso   1.00
C329   C     0.01559   0.55955   0.35317   0.00000  Uiso   1.00
C330   C     0.89335   0.55070   0.32444   0.00000  Uiso   1.00
C331   C     0.74545   0.54257   0.27099   0.00000  Uiso   1.00
C332   C     0.08456   0.51216   0.43422   0.00000  Uiso   1.00
C333   C     0.24358   0.49057   0.44760   0.00000  Uiso   1.00
C334   C     0.22561   0.45015   0.46205   0.00000  Uiso   1.00
C335   C     0.27001   0.38385   0.48824   0.00000  Uiso   1.00
C336   C     0.75806   0.52325   0.41913   0.00000  Uiso   1.00
C337   C     0.78633   0.56710   0.43690   0.00000  Uiso   1.00
C338   C     0.66104   0.58816   0.45274   0.00000  Uiso   1.00
C339   C     0.71279   0.62804   0.46753   0.00000  Uiso   1.00
C340   C     0.78981   0.53150   0.38395   0.00000  Uiso   1.00
C341   C     0.66746   0.52262   0.35525   0.00000  Uiso   1.00
C342   C     0.72213   0.53253   0.32547   0.00000  Uiso   1.00
C343   C     0.91366   0.49402   0.43525   0.00000  Uiso   1.00
C344   C     0.89544   0.45363   0.44968   0.00000  Uiso   1.00
C345   C     0.05439   0.43199   0.46307   0.00000  Uiso   1.00
H346   H     0.20577   0.57075   0.41645   0.00000  Uiso   1.00
H347   H     0.14145   0.63911   0.44986   0.00000  Uiso   1.00
H348   H     0.14786   0.57358   0.35239   0.00000  Uiso   1.00
H349   H     0.37581   0.50461   0.44680   0.00000  Uiso   1.00
H350   H     0.99473   0.70692   0.48734   0.00000  Uiso   1.00
H351   H     0.00829   0.56873   0.28182   0.00000  Uiso   1.00
H352   H     0.48896   0.42328   0.48090   0.00000  Uiso   1.00
H353   H     0.62499   0.50913   0.41992   0.00000  Uiso   1.00
H354   H     0.52879   0.57412   0.45352   0.00000  Uiso   1.00
H355   H     0.53522   0.50859   0.35605   0.00000  Uiso   1.00
H356   H     0.76316   0.43961   0.45046   0.00000  Uiso   1.00
H357   H     0.49747   0.65417   0.49031   0.00000  Uiso   1.00
H358   H     0.51104   0.51598   0.28479   0.00000  Uiso   1.00
H359   H     0.99171   0.37053   0.48387   0.00000  Uiso   1.00
O360   O     0.69327   0.72442   0.51085   0.00000  Uiso   1.00
O361   O     0.71108   0.54311   0.24122   0.00000  Uiso   1.00
O362   O     0.34171   0.35229   0.50241   0.00000  Uiso   1.00
N363   N     0.89092   0.68558   0.48343   0.00000  Uiso   1.00
N364   N     0.90358   0.55639   0.29129   0.00000  Uiso   1.00
N365   N     0.35297   0.42041   0.47740   0.00000  Uiso   1.00
N366   N     0.62335   0.65720   0.48503   0.00000  Uiso   1.00
N367   N     0.63602   0.52801   0.29289   0.00000  Uiso   1.00
N368   N     0.08541   0.39202   0.47900   0.00000  Uiso   1.00
