data_job_00645
_audit_creation_date              2018-12-19
_audit_creation_method            'Materials Studio'
_symmetry_space_group_name_H-M    'P1'
_symmetry_Int_Tables_number       1
_symmetry_cell_setting            triclinic
loop_
_symmetry_equiv_pos_as_xyz
  x,y,z
_cell_length_a                    13.8992
_cell_length_b                    13.5786
_cell_length_c                    12.5702
_cell_angle_alpha                 90.0000
_cell_angle_beta                  113.0520
_cell_angle_gamma                 90.0000
loop_
_atom_site_label
_atom_site_type_symbol
_atom_site_fract_x
_atom_site_fract_y
_atom_site_fract_z
_atom_site_U_iso_or_equiv
_atom_site_adp_type
_atom_site_occupancy
C1     C     0.65223   0.48800   0.55859   0.00000  Uiso   1.00
C2     C     0.73209   0.52288   0.67499   0.00000  Uiso   1.00
C3     C     0.70941   0.57143   0.75953   0.00000  Uiso   1.00
C4     C     0.79348   0.59720   0.86002   0.00000  Uiso   1.00
C5     C     0.90182   0.65475   0.03842   0.00000  Uiso   1.00
C6     C     0.68373   0.53553   0.46709   0.00000  Uiso   1.00
C7     C     0.62037   0.59471   0.37682   0.00000  Uiso   1.00
C8     C     0.66373   0.63112   0.30229   0.00000  Uiso   1.00
C9     C     0.69696   0.70825   0.15786   0.00000  Uiso   1.00
C10    C     0.67084   0.37780   0.55295   0.00000  Uiso   1.00
C11    C     0.59664   0.30436   0.53484   0.00000  Uiso   1.00
C12    C     0.62915   0.20798   0.53257   0.00000  Uiso   1.00
C13    C     0.64237   0.04022   0.52146   0.00000  Uiso   1.00
C14    C     0.84189   0.44743   0.58671   0.00000  Uiso   1.00
C15    C     0.83511   0.50084   0.69026   0.00000  Uiso   1.00
C16    C     0.91924   0.52654   0.79065   0.00000  Uiso   1.00
C17    C     0.89668   0.57512   0.87533   0.00000  Uiso   1.00
C18    C     0.78674   0.51350   0.48236   0.00000  Uiso   1.00
C19    C     0.83020   0.54982   0.40793   0.00000  Uiso   1.00
C20    C     0.76693   0.60904   0.31758   0.00000  Uiso   1.00
C21    C     0.77386   0.35577   0.56822   0.00000  Uiso   1.00
C22    C     0.80648   0.25948   0.56596   0.00000  Uiso   1.00
C23    C     0.73235   0.18591   0.54787   0.00000  Uiso   1.00
H24    H     0.57203   0.50516   0.54669   0.00000  Uiso   1.00
H25    H     0.62967   0.58848   0.74768   0.00000  Uiso   1.00
H26    H     0.54065   0.61174   0.36502   0.00000  Uiso   1.00
H27    H     0.51693   0.32144   0.52303   0.00000  Uiso   1.00
H28    H     0.73902   0.67116   0.97723   0.00000  Uiso   1.00
H29    H     0.55130   0.72019   0.17035   0.00000  Uiso   1.00
H30    H     0.50128   0.10804   0.50353   0.00000  Uiso   1.00
H31    H     0.92209   0.43027   0.59860   0.00000  Uiso   1.00
H32    H     0.99895   0.50948   0.80244   0.00000  Uiso   1.00
H33    H     0.90992   0.53275   0.41978   0.00000  Uiso   1.00
H34    H     0.88620   0.24245   0.57779   0.00000  Uiso   1.00
H35    H     0.03873   0.60705   0.02167   0.00000  Uiso   1.00
H36    H     0.85101   0.65608   0.21479   0.00000  Uiso   1.00
H37    H     0.80099   0.04393   0.54798   0.00000  Uiso   1.00
O38    O     0.93312   0.69259   0.13259   0.00000  Uiso   1.00
O39    O     0.68683   0.75690   0.07398   0.00000  Uiso   1.00
O40    O     0.62121   0.95378   0.51112   0.00000  Uiso   1.00
N41    N     0.79901   0.64519   0.95972   0.00000  Uiso   1.00
N42    N     0.62350   0.69104   0.20535   0.00000  Uiso   1.00
N43    N     0.57673   0.11873   0.51682   0.00000  Uiso   1.00
N44    N     0.96028   0.61069   0.98364   0.00000  Uiso   1.00
N45    N     0.78478   0.65654   0.22926   0.00000  Uiso   1.00
N46    N     0.73801   0.08423   0.54073   0.00000  Uiso   1.00
C47    C     0.34777   0.98800   0.94141   0.00000  Uiso   1.00
C48    C     0.26791   0.02288   0.82501   0.00000  Uiso   1.00
C49    C     0.29059   0.07143   0.74047   0.00000  Uiso   1.00
C50    C     0.20652   0.09720   0.63998   0.00000  Uiso   1.00
C51    C     0.09818   0.15475   0.46158   0.00000  Uiso   1.00
C52    C     0.31627   0.03553   0.03291   0.00000  Uiso   1.00
C53    C     0.37963   0.09471   0.12318   0.00000  Uiso   1.00
C54    C     0.33627   0.13112   0.19771   0.00000  Uiso   1.00
C55    C     0.30304   0.20825   0.34214   0.00000  Uiso   1.00
C56    C     0.32916   0.87780   0.94705   0.00000  Uiso   1.00
C57    C     0.40336   0.80436   0.96516   0.00000  Uiso   1.00
C58    C     0.37085   0.70798   0.96743   0.00000  Uiso   1.00
C59    C     0.35763   0.54022   0.97854   0.00000  Uiso   1.00
C60    C     0.15811   0.94743   0.91329   0.00000  Uiso   1.00
C61    C     0.16489   0.00084   0.80974   0.00000  Uiso   1.00
C62    C     0.08076   0.02654   0.70935   0.00000  Uiso   1.00
C63    C     0.10332   0.07512   0.62467   0.00000  Uiso   1.00
C64    C     0.21326   0.01350   0.01764   0.00000  Uiso   1.00
C65    C     0.16980   0.04982   0.09207   0.00000  Uiso   1.00
C66    C     0.23307   0.10904   0.18242   0.00000  Uiso   1.00
C67    C     0.22614   0.85577   0.93178   0.00000  Uiso   1.00
C68    C     0.19352   0.75948   0.93404   0.00000  Uiso   1.00
C69    C     0.26765   0.68591   0.95213   0.00000  Uiso   1.00
H70    H     0.42797   0.00516   0.95331   0.00000  Uiso   1.00
H71    H     0.37033   0.08848   0.75232   0.00000  Uiso   1.00
H72    H     0.45935   0.11174   0.13498   0.00000  Uiso   1.00
H73    H     0.48307   0.82144   0.97697   0.00000  Uiso   1.00
H74    H     0.26098   0.17116   0.52277   0.00000  Uiso   1.00
H75    H     0.44870   0.22019   0.32965   0.00000  Uiso   1.00
H76    H     0.49872   0.60804   0.99647   0.00000  Uiso   1.00
H77    H     0.07791   0.93027   0.90140   0.00000  Uiso   1.00
H78    H     0.00105   0.00948   0.69756   0.00000  Uiso   1.00
H79    H     0.09008   0.03275   0.08022   0.00000  Uiso   1.00
H80    H     0.11380   0.74245   0.92221   0.00000  Uiso   1.00
H81    H     0.96127   0.10705   0.47833   0.00000  Uiso   1.00
H82    H     0.14899   0.15608   0.28521   0.00000  Uiso   1.00
H83    H     0.19901   0.54393   0.95202   0.00000  Uiso   1.00
O84    O     0.06688   0.19259   0.36741   0.00000  Uiso   1.00
O85    O     0.31317   0.25690   0.42602   0.00000  Uiso   1.00
O86    O     0.37879   0.45378   0.98888   0.00000  Uiso   1.00
N87    N     0.20099   0.14519   0.54028   0.00000  Uiso   1.00
N88    N     0.37650   0.19104   0.29465   0.00000  Uiso   1.00
N89    N     0.42327   0.61873   0.98318   0.00000  Uiso   1.00
N90    N     0.03972   0.11069   0.51636   0.00000  Uiso   1.00
N91    N     0.21522   0.15654   0.27074   0.00000  Uiso   1.00
N92    N     0.26199   0.58423   0.95927   0.00000  Uiso   1.00
C93    C     0.34777   0.51200   0.44141   0.00000  Uiso   1.00
C94    C     0.26791   0.47712   0.32501   0.00000  Uiso   1.00
C95    C     0.29059   0.42857   0.24047   0.00000  Uiso   1.00
C96    C     0.20652   0.40280   0.13998   0.00000  Uiso   1.00
C97    C     0.09818   0.34525   0.96158   0.00000  Uiso   1.00
C98    C     0.31627   0.46447   0.53291   0.00000  Uiso   1.00
C99    C     0.37963   0.40529   0.62318   0.00000  Uiso   1.00
C100   C     0.33627   0.36888   0.69771   0.00000  Uiso   1.00
C101   C     0.30304   0.29175   0.84214   0.00000  Uiso   1.00
C102   C     0.32916   0.62220   0.44705   0.00000  Uiso   1.00
C103   C     0.40336   0.69564   0.46516   0.00000  Uiso   1.00
C104   C     0.37085   0.79202   0.46743   0.00000  Uiso   1.00
C105   C     0.35763   0.95978   0.47854   0.00000  Uiso   1.00
C106   C     0.15811   0.55257   0.41329   0.00000  Uiso   1.00
C107   C     0.16489   0.49916   0.30974   0.00000  Uiso   1.00
C108   C     0.08076   0.47346   0.20935   0.00000  Uiso   1.00
C109   C     0.10332   0.42488   0.12467   0.00000  Uiso   1.00
C110   C     0.21326   0.48650   0.51764   0.00000  Uiso   1.00
C111   C     0.16980   0.45018   0.59207   0.00000  Uiso   1.00
C112   C     0.23307   0.39096   0.68242   0.00000  Uiso   1.00
C113   C     0.22614   0.64423   0.43178   0.00000  Uiso   1.00
C114   C     0.19352   0.74052   0.43404   0.00000  Uiso   1.00
C115   C     0.26765   0.81409   0.45213   0.00000  Uiso   1.00
H116   H     0.42797   0.49484   0.45331   0.00000  Uiso   1.00
H117   H     0.37033   0.41152   0.25232   0.00000  Uiso   1.00
H118   H     0.45935   0.38826   0.63498   0.00000  Uiso   1.00
H119   H     0.48307   0.67856   0.47697   0.00000  Uiso   1.00
H120   H     0.26098   0.32884   0.02277   0.00000  Uiso   1.00
H121   H     0.44870   0.27981   0.82965   0.00000  Uiso   1.00
H122   H     0.49872   0.89196   0.49647   0.00000  Uiso   1.00
H123   H     0.07791   0.56973   0.40140   0.00000  Uiso   1.00
H124   H     0.00105   0.49052   0.19756   0.00000  Uiso   1.00
H125   H     0.09008   0.46725   0.58022   0.00000  Uiso   1.00
H126   H     0.11380   0.75755   0.42221   0.00000  Uiso   1.00
H127   H     0.96127   0.39295   0.97833   0.00000  Uiso   1.00
H128   H     0.14899   0.34392   0.78521   0.00000  Uiso   1.00
H129   H     0.19901   0.95607   0.45202   0.00000  Uiso   1.00
O130   O     0.06688   0.30741   0.86741   0.00000  Uiso   1.00
O131   O     0.31317   0.24310   0.92602   0.00000  Uiso   1.00
O132   O     0.37879   0.04622   0.48888   0.00000  Uiso   1.00
N133   N     0.20099   0.35481   0.04028   0.00000  Uiso   1.00
N134   N     0.37650   0.30896   0.79465   0.00000  Uiso   1.00
N135   N     0.42327   0.88127   0.48318   0.00000  Uiso   1.00
N136   N     0.03972   0.38931   0.01636   0.00000  Uiso   1.00
N137   N     0.21522   0.34346   0.77074   0.00000  Uiso   1.00
N138   N     0.26199   0.91577   0.45927   0.00000  Uiso   1.00
C139   C     0.65223   0.01200   0.05859   0.00000  Uiso   1.00
C140   C     0.73209   0.97712   0.17499   0.00000  Uiso   1.00
C141   C     0.70941   0.92857   0.25953   0.00000  Uiso   1.00
C142   C     0.79348   0.90280   0.36002   0.00000  Uiso   1.00
C143   C     0.90182   0.84525   0.53842   0.00000  Uiso   1.00
C144   C     0.68373   0.96447   0.96709   0.00000  Uiso   1.00
C145   C     0.62037   0.90529   0.87682   0.00000  Uiso   1.00
C146   C     0.66373   0.86888   0.80229   0.00000  Uiso   1.00
C147   C     0.69696   0.79175   0.65786   0.00000  Uiso   1.00
C148   C     0.67084   0.12220   0.05295   0.00000  Uiso   1.00
C149   C     0.59664   0.19564   0.03484   0.00000  Uiso   1.00
C150   C     0.62915   0.29202   0.03257   0.00000  Uiso   1.00
C151   C     0.64237   0.45978   0.02146   0.00000  Uiso   1.00
C152   C     0.84189   0.05257   0.08671   0.00000  Uiso   1.00
C153   C     0.83511   0.99916   0.19026   0.00000  Uiso   1.00
C154   C     0.91924   0.97346   0.29065   0.00000  Uiso   1.00
C155   C     0.89668   0.92488   0.37533   0.00000  Uiso   1.00
C156   C     0.78674   0.98650   0.98236   0.00000  Uiso   1.00
C157   C     0.83020   0.95018   0.90793   0.00000  Uiso   1.00
C158   C     0.76693   0.89096   0.81758   0.00000  Uiso   1.00
C159   C     0.77386   0.14423   0.06822   0.00000  Uiso   1.00
C160   C     0.80648   0.24052   0.06596   0.00000  Uiso   1.00
C161   C     0.73235   0.31409   0.04787   0.00000  Uiso   1.00
H162   H     0.57203   0.99484   0.04669   0.00000  Uiso   1.00
H163   H     0.62967   0.91152   0.24768   0.00000  Uiso   1.00
H164   H     0.54065   0.88826   0.86502   0.00000  Uiso   1.00
H165   H     0.51693   0.17856   0.02303   0.00000  Uiso   1.00
H166   H     0.73902   0.82884   0.47723   0.00000  Uiso   1.00
H167   H     0.55130   0.77981   0.67035   0.00000  Uiso   1.00
H168   H     0.50128   0.39196   0.00353   0.00000  Uiso   1.00
H169   H     0.92209   0.06973   0.09860   0.00000  Uiso   1.00
H170   H     0.99895   0.99052   0.30244   0.00000  Uiso   1.00
H171   H     0.90992   0.96725   0.91978   0.00000  Uiso   1.00
H172   H     0.88620   0.25755   0.07779   0.00000  Uiso   1.00
H173   H     0.03873   0.89295   0.52167   0.00000  Uiso   1.00
H174   H     0.85101   0.84392   0.71479   0.00000  Uiso   1.00
H175   H     0.80099   0.45607   0.04798   0.00000  Uiso   1.00
O176   O     0.93312   0.80741   0.63259   0.00000  Uiso   1.00
O177   O     0.68683   0.74310   0.57398   0.00000  Uiso   1.00
O178   O     0.62121   0.54622   0.01112   0.00000  Uiso   1.00
N179   N     0.79901   0.85481   0.45972   0.00000  Uiso   1.00
N180   N     0.62350   0.80896   0.70535   0.00000  Uiso   1.00
N181   N     0.57673   0.38127   0.01682   0.00000  Uiso   1.00
N182   N     0.96028   0.88931   0.48364   0.00000  Uiso   1.00
N183   N     0.78478   0.84346   0.72926   0.00000  Uiso   1.00
N184   N     0.73801   0.41577   0.04073   0.00000  Uiso   1.00
