data_job_03500
_audit_creation_date              2018-12-19
_audit_creation_method            'Materials Studio'
_symmetry_space_group_name_H-M    'P1'
_symmetry_Int_Tables_number       1
_symmetry_cell_setting            triclinic
loop_
_symmetry_equiv_pos_as_xyz
  x,y,z
_cell_length_a                    17.0929
_cell_length_b                    8.5420
_cell_length_c                    25.6750
_cell_angle_alpha                 90.0000
_cell_angle_beta                  132.3343
_cell_angle_gamma                 90.0000
loop_
_atom_site_label
_atom_site_type_symbol
_atom_site_fract_x
_atom_site_fract_y
_atom_site_fract_z
_atom_site_U_iso_or_equiv
_atom_site_adp_type
_atom_site_occupancy
C1     C     0.65733   0.92581   0.18970   0.00000  Uiso   1.00
C2     C     0.60657   0.07655   0.18665   0.00000  Uiso   1.00
C3     C     0.50400   0.09126   0.15936   0.00000  Uiso   1.00
C4     C     0.47249   0.23918   0.16141   0.00000  Uiso   1.00
C5     C     0.38321   0.45371   0.15233   0.00000  Uiso   1.00
C6     C     0.69491   0.96037   0.15129   0.00000  Uiso   1.00
C7     C     0.66662   0.87738   0.09427   0.00000  Uiso   1.00
C8     C     0.70948   0.92748   0.06657   0.00000  Uiso   1.00
C9     C     0.75741   0.96157   0.00263   0.00000  Uiso   1.00
C10    C     0.75716   0.90259   0.26693   0.00000  Uiso   1.00
C11    C     0.78123   0.77101   0.30713   0.00000  Uiso   1.00
C12    C     0.87652   0.77246   0.37678   0.00000  Uiso   1.00
C13    C     0.02110   0.71684   0.49238   0.00000  Uiso   1.00
C14    C     0.78378   0.16232   0.24190   0.00000  Uiso   1.00
C15    C     0.67525   0.20501   0.21501   0.00000  Uiso   1.00
C16    C     0.64389   0.35294   0.21711   0.00000  Uiso   1.00
C17    C     0.54129   0.36787   0.18982   0.00000  Uiso   1.00
C18    C     0.76359   0.08883   0.17964   0.00000  Uiso   1.00
C19    C     0.80651   0.13906   0.15202   0.00000  Uiso   1.00
C20    C     0.77829   0.05618   0.09497   0.00000  Uiso   1.00
C21    C     0.82584   0.03106   0.29528   0.00000  Uiso   1.00
C22    C     0.92112   0.03270   0.36488   0.00000  Uiso   1.00
C23    C     0.94532   0.90115   0.40519   0.00000  Uiso   1.00
H24    H     0.60387   0.82579   0.16763   0.00000  Uiso   1.00
H25    H     0.45087   0.99182   0.13741   0.00000  Uiso   1.00
H26    H     0.61348   0.77796   0.07235   0.00000  Uiso   1.00
H27    H     0.72806   0.67162   0.28517   0.00000  Uiso   1.00
H28    H     0.31152   0.23256   0.11639   0.00000  Uiso   1.00
H29    H     0.65441   0.78160   0.97921   0.00000  Uiso   1.00
H30    H     0.89604   0.55734   0.42800   0.00000  Uiso   1.00
H31    H     0.83725   0.26234   0.26398   0.00000  Uiso   1.00
H32    H     0.69706   0.45233   0.23905   0.00000  Uiso   1.00
H33    H     0.85966   0.23847   0.17398   0.00000  Uiso   1.00
H34    H     0.97425   0.13213   0.38681   0.00000  Uiso   1.00
H35    H     0.51133   0.60633   0.19888   0.00000  Uiso   1.00
H36    H     0.85422   0.15536   0.06170   0.00000  Uiso   1.00
H37    H     0.09585   0.93112   0.51049   0.00000  Uiso   1.00
O38    O     0.31499   0.53656   0.13948   0.00000  Uiso   1.00
O39    O     0.76485   0.94489   0.95951   0.00000  Uiso   1.00
O40    O     0.08186   0.65069   0.54831   0.00000  Uiso   1.00
N41    N     0.37780   0.29445   0.13924   0.00000  Uiso   1.00
N42    N     0.69836   0.87284   0.01098   0.00000  Uiso   1.00
N43    N     0.92428   0.66316   0.43055   0.00000  Uiso   1.00
N44    N     0.48531   0.49557   0.18363   0.00000  Uiso   1.00
N45    N     0.80588   0.07396   0.05537   0.00000  Uiso   1.00
N46    N     0.03180   0.86429   0.47494   0.00000  Uiso   1.00
C47    C     0.34267   0.92581   0.31030   0.00000  Uiso   1.00
C48    C     0.39343   0.07655   0.31335   0.00000  Uiso   1.00
C49    C     0.49600   0.09126   0.34064   0.00000  Uiso   1.00
C50    C     0.52751   0.23918   0.33859   0.00000  Uiso   1.00
C51    C     0.61679   0.45371   0.34767   0.00000  Uiso   1.00
C52    C     0.30509   0.96037   0.34871   0.00000  Uiso   1.00
C53    C     0.33338   0.87738   0.40573   0.00000  Uiso   1.00
C54    C     0.29052   0.92748   0.43343   0.00000  Uiso   1.00
C55    C     0.24259   0.96157   0.49737   0.00000  Uiso   1.00
C56    C     0.24284   0.90259   0.23307   0.00000  Uiso   1.00
C57    C     0.21877   0.77101   0.19287   0.00000  Uiso   1.00
C58    C     0.12348   0.77246   0.12322   0.00000  Uiso   1.00
C59    C     0.97890   0.71684   0.00762   0.00000  Uiso   1.00
C60    C     0.21622   0.16232   0.25810   0.00000  Uiso   1.00
C61    C     0.32475   0.20501   0.28499   0.00000  Uiso   1.00
C62    C     0.35611   0.35294   0.28289   0.00000  Uiso   1.00
C63    C     0.45871   0.36787   0.31018   0.00000  Uiso   1.00
C64    C     0.23641   0.08883   0.32036   0.00000  Uiso   1.00
C65    C     0.19349   0.13906   0.34798   0.00000  Uiso   1.00
C66    C     0.22171   0.05618   0.40503   0.00000  Uiso   1.00
C67    C     0.17416   0.03106   0.20472   0.00000  Uiso   1.00
C68    C     0.07888   0.03270   0.13512   0.00000  Uiso   1.00
C69    C     0.05468   0.90115   0.09481   0.00000  Uiso   1.00
H70    H     0.39613   0.82579   0.33237   0.00000  Uiso   1.00
H71    H     0.54913   0.99182   0.36259   0.00000  Uiso   1.00
H72    H     0.38652   0.77796   0.42765   0.00000  Uiso   1.00
H73    H     0.27194   0.67162   0.21483   0.00000  Uiso   1.00
H74    H     0.68848   0.23256   0.38361   0.00000  Uiso   1.00
H75    H     0.34559   0.78160   0.52079   0.00000  Uiso   1.00
H76    H     0.10396   0.55734   0.07200   0.00000  Uiso   1.00
H77    H     0.16275   0.26234   0.23602   0.00000  Uiso   1.00
H78    H     0.30294   0.45233   0.26095   0.00000  Uiso   1.00
H79    H     0.14034   0.23847   0.32602   0.00000  Uiso   1.00
H80    H     0.02575   0.13213   0.11319   0.00000  Uiso   1.00
H81    H     0.48867   0.60633   0.30112   0.00000  Uiso   1.00
H82    H     0.14578   0.15536   0.43830   0.00000  Uiso   1.00
H83    H     0.90415   0.93112   0.98951   0.00000  Uiso   1.00
O84    O     0.68501   0.53656   0.36052   0.00000  Uiso   1.00
O85    O     0.23515   0.94489   0.54049   0.00000  Uiso   1.00
O86    O     0.91814   0.65069   0.95169   0.00000  Uiso   1.00
N87    N     0.62220   0.29445   0.36076   0.00000  Uiso   1.00
N88    N     0.30164   0.87284   0.48902   0.00000  Uiso   1.00
N89    N     0.07572   0.66316   0.06945   0.00000  Uiso   1.00
N90    N     0.51469   0.49557   0.31637   0.00000  Uiso   1.00
N91    N     0.19412   0.07396   0.44463   0.00000  Uiso   1.00
N92    N     0.96820   0.86429   0.02506   0.00000  Uiso   1.00
C93    C     0.34267   0.07419   0.81030   0.00000  Uiso   1.00
C94    C     0.39343   0.92345   0.81335   0.00000  Uiso   1.00
C95    C     0.49600   0.90874   0.84064   0.00000  Uiso   1.00
C96    C     0.52751   0.76082   0.83859   0.00000  Uiso   1.00
C97    C     0.61679   0.54629   0.84767   0.00000  Uiso   1.00
C98    C     0.30509   0.03963   0.84871   0.00000  Uiso   1.00
C99    C     0.33338   0.12262   0.90573   0.00000  Uiso   1.00
C100   C     0.29052   0.07252   0.93343   0.00000  Uiso   1.00
C101   C     0.24259   0.03843   0.99737   0.00000  Uiso   1.00
C102   C     0.24284   0.09741   0.73307   0.00000  Uiso   1.00
C103   C     0.21877   0.22899   0.69287   0.00000  Uiso   1.00
C104   C     0.12348   0.22754   0.62322   0.00000  Uiso   1.00
C105   C     0.97890   0.28316   0.50762   0.00000  Uiso   1.00
C106   C     0.21622   0.83768   0.75810   0.00000  Uiso   1.00
C107   C     0.32475   0.79499   0.78499   0.00000  Uiso   1.00
C108   C     0.35611   0.64706   0.78289   0.00000  Uiso   1.00
C109   C     0.45871   0.63213   0.81018   0.00000  Uiso   1.00
C110   C     0.23641   0.91117   0.82036   0.00000  Uiso   1.00
C111   C     0.19349   0.86094   0.84798   0.00000  Uiso   1.00
C112   C     0.22171   0.94382   0.90503   0.00000  Uiso   1.00
C113   C     0.17416   0.96894   0.70472   0.00000  Uiso   1.00
C114   C     0.07888   0.96730   0.63512   0.00000  Uiso   1.00
C115   C     0.05468   0.09885   0.59481   0.00000  Uiso   1.00
H116   H     0.39613   0.17421   0.83237   0.00000  Uiso   1.00
H117   H     0.54913   0.00818   0.86259   0.00000  Uiso   1.00
H118   H     0.38652   0.22204   0.92765   0.00000  Uiso   1.00
H119   H     0.27194   0.32838   0.71483   0.00000  Uiso   1.00
H120   H     0.68848   0.76744   0.88361   0.00000  Uiso   1.00
H121   H     0.34559   0.21840   0.02079   0.00000  Uiso   1.00
H122   H     0.10396   0.44266   0.57200   0.00000  Uiso   1.00
H123   H     0.16275   0.73766   0.73602   0.00000  Uiso   1.00
H124   H     0.30294   0.54767   0.76095   0.00000  Uiso   1.00
H125   H     0.14034   0.76153   0.82602   0.00000  Uiso   1.00
H126   H     0.02575   0.86787   0.61319   0.00000  Uiso   1.00
H127   H     0.48867   0.39367   0.80112   0.00000  Uiso   1.00
H128   H     0.14578   0.84464   0.93830   0.00000  Uiso   1.00
H129   H     0.90415   0.06888   0.48951   0.00000  Uiso   1.00
O130   O     0.68501   0.46344   0.86052   0.00000  Uiso   1.00
O131   O     0.23515   0.05511   0.04049   0.00000  Uiso   1.00
O132   O     0.91814   0.34931   0.45169   0.00000  Uiso   1.00
N133   N     0.62220   0.70555   0.86076   0.00000  Uiso   1.00
N134   N     0.30164   0.12716   0.98902   0.00000  Uiso   1.00
N135   N     0.07572   0.33684   0.56945   0.00000  Uiso   1.00
N136   N     0.51469   0.50443   0.81637   0.00000  Uiso   1.00
N137   N     0.19412   0.92604   0.94463   0.00000  Uiso   1.00
N138   N     0.96820   0.13571   0.52506   0.00000  Uiso   1.00
C139   C     0.65733   0.07419   0.68970   0.00000  Uiso   1.00
C140   C     0.60657   0.92345   0.68665   0.00000  Uiso   1.00
C141   C     0.50400   0.90874   0.65936   0.00000  Uiso   1.00
C142   C     0.47249   0.76082   0.66141   0.00000  Uiso   1.00
C143   C     0.38321   0.54629   0.65233   0.00000  Uiso   1.00
C144   C     0.69491   0.03963   0.65129   0.00000  Uiso   1.00
C145   C     0.66662   0.12262   0.59427   0.00000  Uiso   1.00
C146   C     0.70948   0.07252   0.56657   0.00000  Uiso   1.00
C147   C     0.75741   0.03843   0.50263   0.00000  Uiso   1.00
C148   C     0.75716   0.09741   0.76693   0.00000  Uiso   1.00
C149   C     0.78123   0.22899   0.80713   0.00000  Uiso   1.00
C150   C     0.87652   0.22754   0.87678   0.00000  Uiso   1.00
C151   C     0.02110   0.28316   0.99238   0.00000  Uiso   1.00
C152   C     0.78378   0.83768   0.74190   0.00000  Uiso   1.00
C153   C     0.67525   0.79499   0.71501   0.00000  Uiso   1.00
C154   C     0.64389   0.64706   0.71711   0.00000  Uiso   1.00
C155   C     0.54129   0.63213   0.68982   0.00000  Uiso   1.00
C156   C     0.76359   0.91117   0.67964   0.00000  Uiso   1.00
C157   C     0.80651   0.86094   0.65202   0.00000  Uiso   1.00
C158   C     0.77829   0.94382   0.59497   0.00000  Uiso   1.00
C159   C     0.82584   0.96894   0.79528   0.00000  Uiso   1.00
C160   C     0.92112   0.96730   0.86488   0.00000  Uiso   1.00
C161   C     0.94532   0.09885   0.90519   0.00000  Uiso   1.00
H162   H     0.60387   0.17421   0.66763   0.00000  Uiso   1.00
H163   H     0.45087   0.00818   0.63741   0.00000  Uiso   1.00
H164   H     0.61348   0.22204   0.57235   0.00000  Uiso   1.00
H165   H     0.72806   0.32838   0.78517   0.00000  Uiso   1.00
H166   H     0.31152   0.76744   0.61639   0.00000  Uiso   1.00
H167   H     0.65441   0.21840   0.47921   0.00000  Uiso   1.00
H168   H     0.89604   0.44266   0.92800   0.00000  Uiso   1.00
H169   H     0.83725   0.73766   0.76398   0.00000  Uiso   1.00
H170   H     0.69706   0.54767   0.73905   0.00000  Uiso   1.00
H171   H     0.85966   0.76153   0.67398   0.00000  Uiso   1.00
H172   H     0.97425   0.86787   0.88681   0.00000  Uiso   1.00
H173   H     0.51133   0.39367   0.69888   0.00000  Uiso   1.00
H174   H     0.85422   0.84464   0.56170   0.00000  Uiso   1.00
H175   H     0.09585   0.06888   0.01049   0.00000  Uiso   1.00
O176   O     0.31499   0.46344   0.63948   0.00000  Uiso   1.00
O177   O     0.76485   0.05511   0.45951   0.00000  Uiso   1.00
O178   O     0.08186   0.34931   0.04831   0.00000  Uiso   1.00
N179   N     0.37780   0.70555   0.63924   0.00000  Uiso   1.00
N180   N     0.69836   0.12716   0.51098   0.00000  Uiso   1.00
N181   N     0.92428   0.33684   0.93055   0.00000  Uiso   1.00
N182   N     0.48531   0.50443   0.68363   0.00000  Uiso   1.00
N183   N     0.80588   0.92604   0.55537   0.00000  Uiso   1.00
N184   N     0.03180   0.13571   0.97494   0.00000  Uiso   1.00
