data_job_02033
_audit_creation_date              2018-12-19
_audit_creation_method            'Materials Studio'
_symmetry_space_group_name_H-M    'P1'
_symmetry_Int_Tables_number       1
_symmetry_cell_setting            triclinic
loop_
_symmetry_equiv_pos_as_xyz
  x,y,z
_cell_length_a                    44.5626
_cell_length_b                    12.4489
_cell_length_c                    44.4887
_cell_angle_alpha                 90.0000
_cell_angle_beta                  170.9065
_cell_angle_gamma                 90.0000
loop_
_atom_site_label
_atom_site_type_symbol
_atom_site_fract_x
_atom_site_fract_y
_atom_site_fract_z
_atom_site_U_iso_or_equiv
_atom_site_adp_type
_atom_site_occupancy
C1     C     0.80613   0.39879   0.70951   0.00000  Uiso   1.00
C2     C     0.66756   0.48334   0.58403   0.00000  Uiso   1.00
C3     C     0.71677   0.58136   0.64536   0.00000  Uiso   1.00
C4     C     0.56905   0.64748   0.50846   0.00000  Uiso   1.00
C5     C     0.38281   0.78343   0.34274   0.00000  Uiso   1.00
C6     C     0.75920   0.29559   0.68000   0.00000  Uiso   1.00
C7     C     0.88547   0.23575   0.82201   0.00000  Uiso   1.00
C8     C     0.81489   0.14381   0.76589   0.00000  Uiso   1.00
C9     C     0.77095   0.98824   0.74918   0.00000  Uiso   1.00
C10    C     0.75187   0.37846   0.62315   0.00000  Uiso   1.00
C11    C     0.87199   0.38827   0.71738   0.00000  Uiso   1.00
C12    C     0.79524   0.36608   0.61340   0.00000  Uiso   1.00
C13    C     0.73992   0.33919   0.50843   0.00000  Uiso   1.00
C14    C     0.45627   0.34190   0.35733   0.00000  Uiso   1.00
C15    C     0.47754   0.45243   0.39275   0.00000  Uiso   1.00
C16    C     0.32970   0.51842   0.25571   0.00000  Uiso   1.00
C17    C     0.37868   0.61653   0.31682   0.00000  Uiso   1.00
C18    C     0.56918   0.26469   0.48872   0.00000  Uiso   1.00
C19    C     0.49840   0.17281   0.43237   0.00000  Uiso   1.00
C20    C     0.62452   0.11285   0.57426   0.00000  Uiso   1.00
C21    C     0.56184   0.34756   0.43186   0.00000  Uiso   1.00
C22    C     0.48490   0.32534   0.32773   0.00000  Uiso   1.00
C23    C     0.60487   0.33513   0.42177   0.00000  Uiso   1.00
H24    H     0.95407   0.42284   0.85843   0.00000  Uiso   1.00
H25    H     0.86385   0.60524   0.79341   0.00000  Uiso   1.00
H26    H     0.03252   0.25968   0.97003   0.00000  Uiso   1.00
H27    H     0.01903   0.41219   0.86541   0.00000  Uiso   1.00
H28    H     0.68002   0.79381   0.63697   0.00000  Uiso   1.00
H29    H     0.03569   0.06516   0.00940   0.00000  Uiso   1.00
H30    H     0.00725   0.38675   0.78878   0.00000  Uiso   1.00
H31    H     0.30832   0.31784   0.20840   0.00000  Uiso   1.00
H32    H     0.18266   0.49449   0.10769   0.00000  Uiso   1.00
H33    H     0.35134   0.14892   0.28433   0.00000  Uiso   1.00
H34    H     0.33785   0.30143   0.17970   0.00000  Uiso   1.00
H35    H     0.12714   0.70392   0.08042   0.00000  Uiso   1.00
H36    H     0.48282   0.97526   0.45286   0.00000  Uiso   1.00
H37    H     0.45437   0.29686   0.23223   0.00000  Uiso   1.00
O38    O     0.33257   0.86695   0.30419   0.00000  Uiso   1.00
O39    O     0.79921   0.91097   0.79281   0.00000  Uiso   1.00
O40    O     0.76188   0.33290   0.50336   0.00000  Uiso   1.00
N41    N     0.56715   0.74843   0.51980   0.00000  Uiso   1.00
N42    N     0.89967   0.06719   0.86800   0.00000  Uiso   1.00
N43    N     0.87309   0.36782   0.66175   0.00000  Uiso   1.00
N44    N     0.26965   0.70006   0.22032   0.00000  Uiso   1.00
N45    N     0.60217   0.01882   0.56852   0.00000  Uiso   1.00
N46    N     0.57559   0.31945   0.36228   0.00000  Uiso   1.00
C47    C     0.19387   0.39879   0.79049   0.00000  Uiso   1.00
C48    C     0.33244   0.48334   0.91597   0.00000  Uiso   1.00
C49    C     0.28323   0.58136   0.85464   0.00000  Uiso   1.00
C50    C     0.43095   0.64748   0.99154   0.00000  Uiso   1.00
C51    C     0.61719   0.78343   0.15726   0.00000  Uiso   1.00
C52    C     0.24080   0.29559   0.82000   0.00000  Uiso   1.00
C53    C     0.11453   0.23575   0.67799   0.00000  Uiso   1.00
C54    C     0.18511   0.14381   0.73411   0.00000  Uiso   1.00
C55    C     0.22905   0.98824   0.75082   0.00000  Uiso   1.00
C56    C     0.24813   0.37846   0.87685   0.00000  Uiso   1.00
C57    C     0.12801   0.38827   0.78262   0.00000  Uiso   1.00
C58    C     0.20476   0.36608   0.88660   0.00000  Uiso   1.00
C59    C     0.26008   0.33919   0.99157   0.00000  Uiso   1.00
C60    C     0.54373   0.34190   0.14267   0.00000  Uiso   1.00
C61    C     0.52246   0.45243   0.10725   0.00000  Uiso   1.00
C62    C     0.67030   0.51842   0.24429   0.00000  Uiso   1.00
C63    C     0.62132   0.61653   0.18318   0.00000  Uiso   1.00
C64    C     0.43082   0.26469   0.01128   0.00000  Uiso   1.00
C65    C     0.50160   0.17281   0.06763   0.00000  Uiso   1.00
C66    C     0.37548   0.11285   0.92574   0.00000  Uiso   1.00
C67    C     0.43816   0.34756   0.06814   0.00000  Uiso   1.00
C68    C     0.51510   0.32534   0.17227   0.00000  Uiso   1.00
C69    C     0.39513   0.33513   0.07823   0.00000  Uiso   1.00
H70    H     0.04593   0.42284   0.64157   0.00000  Uiso   1.00
H71    H     0.13615   0.60524   0.70659   0.00000  Uiso   1.00
H72    H     0.96748   0.25968   0.52997   0.00000  Uiso   1.00
H73    H     0.98097   0.41219   0.63459   0.00000  Uiso   1.00
H74    H     0.31998   0.79381   0.86303   0.00000  Uiso   1.00
H75    H     0.96431   0.06516   0.49060   0.00000  Uiso   1.00
H76    H     0.99275   0.38675   0.71122   0.00000  Uiso   1.00
H77    H     0.69168   0.31784   0.29160   0.00000  Uiso   1.00
H78    H     0.81734   0.49449   0.39231   0.00000  Uiso   1.00
H79    H     0.64866   0.14892   0.21567   0.00000  Uiso   1.00
H80    H     0.66215   0.30143   0.32030   0.00000  Uiso   1.00
H81    H     0.87286   0.70392   0.41958   0.00000  Uiso   1.00
H82    H     0.51718   0.97526   0.04714   0.00000  Uiso   1.00
H83    H     0.54563   0.29686   0.26777   0.00000  Uiso   1.00
O84    O     0.66743   0.86695   0.19581   0.00000  Uiso   1.00
O85    O     0.20079   0.91097   0.70719   0.00000  Uiso   1.00
O86    O     0.23812   0.33290   0.99664   0.00000  Uiso   1.00
N87    N     0.43285   0.74843   0.98020   0.00000  Uiso   1.00
N88    N     0.10033   0.06719   0.63200   0.00000  Uiso   1.00
N89    N     0.12691   0.36782   0.83825   0.00000  Uiso   1.00
N90    N     0.73035   0.70006   0.27968   0.00000  Uiso   1.00
N91    N     0.39783   0.01882   0.93148   0.00000  Uiso   1.00
N92    N     0.42441   0.31945   0.13772   0.00000  Uiso   1.00
C93    C     0.19387   0.60121   0.29049   0.00000  Uiso   1.00
C94    C     0.33244   0.51666   0.41597   0.00000  Uiso   1.00
C95    C     0.28323   0.41864   0.35464   0.00000  Uiso   1.00
C96    C     0.43095   0.35252   0.49154   0.00000  Uiso   1.00
C97    C     0.61719   0.21657   0.65726   0.00000  Uiso   1.00
C98    C     0.24080   0.70441   0.32000   0.00000  Uiso   1.00
C99    C     0.11453   0.76425   0.17799   0.00000  Uiso   1.00
C100   C     0.18511   0.85619   0.23411   0.00000  Uiso   1.00
C101   C     0.22905   0.01176   0.25082   0.00000  Uiso   1.00
C102   C     0.24813   0.62154   0.37685   0.00000  Uiso   1.00
C103   C     0.12801   0.61173   0.28262   0.00000  Uiso   1.00
C104   C     0.20476   0.63392   0.38660   0.00000  Uiso   1.00
C105   C     0.26008   0.66081   0.49157   0.00000  Uiso   1.00
C106   C     0.54373   0.65810   0.64267   0.00000  Uiso   1.00
C107   C     0.52246   0.54757   0.60725   0.00000  Uiso   1.00
C108   C     0.67030   0.48158   0.74429   0.00000  Uiso   1.00
C109   C     0.62132   0.38347   0.68318   0.00000  Uiso   1.00
C110   C     0.43082   0.73531   0.51128   0.00000  Uiso   1.00
C111   C     0.50160   0.82719   0.56763   0.00000  Uiso   1.00
C112   C     0.37548   0.88715   0.42574   0.00000  Uiso   1.00
C113   C     0.43816   0.65244   0.56814   0.00000  Uiso   1.00
C114   C     0.51510   0.67466   0.67227   0.00000  Uiso   1.00
C115   C     0.39513   0.66487   0.57823   0.00000  Uiso   1.00
H116   H     0.04593   0.57716   0.14157   0.00000  Uiso   1.00
H117   H     0.13615   0.39476   0.20659   0.00000  Uiso   1.00
H118   H     0.96748   0.74032   0.02997   0.00000  Uiso   1.00
H119   H     0.98097   0.58781   0.13459   0.00000  Uiso   1.00
H120   H     0.31998   0.20619   0.36303   0.00000  Uiso   1.00
H121   H     0.96431   0.93484   0.99060   0.00000  Uiso   1.00
H122   H     0.99275   0.61325   0.21122   0.00000  Uiso   1.00
H123   H     0.69168   0.68216   0.79160   0.00000  Uiso   1.00
H124   H     0.81734   0.50551   0.89231   0.00000  Uiso   1.00
H125   H     0.64866   0.85108   0.71567   0.00000  Uiso   1.00
H126   H     0.66215   0.69857   0.82030   0.00000  Uiso   1.00
H127   H     0.87286   0.29608   0.91958   0.00000  Uiso   1.00
H128   H     0.51718   0.02474   0.54714   0.00000  Uiso   1.00
H129   H     0.54563   0.70314   0.76777   0.00000  Uiso   1.00
O130   O     0.66743   0.13305   0.69581   0.00000  Uiso   1.00
O131   O     0.20079   0.08903   0.20719   0.00000  Uiso   1.00
O132   O     0.23812   0.66710   0.49664   0.00000  Uiso   1.00
N133   N     0.43285   0.25157   0.48020   0.00000  Uiso   1.00
N134   N     0.10033   0.93281   0.13200   0.00000  Uiso   1.00
N135   N     0.12691   0.63218   0.33825   0.00000  Uiso   1.00
N136   N     0.73035   0.29994   0.77968   0.00000  Uiso   1.00
N137   N     0.39783   0.98118   0.43148   0.00000  Uiso   1.00
N138   N     0.42441   0.68055   0.63772   0.00000  Uiso   1.00
C139   C     0.80613   0.60121   0.20951   0.00000  Uiso   1.00
C140   C     0.66756   0.51666   0.08403   0.00000  Uiso   1.00
C141   C     0.71677   0.41864   0.14536   0.00000  Uiso   1.00
C142   C     0.56905   0.35252   0.00846   0.00000  Uiso   1.00
C143   C     0.38281   0.21657   0.84274   0.00000  Uiso   1.00
C144   C     0.75920   0.70441   0.18000   0.00000  Uiso   1.00
C145   C     0.88547   0.76425   0.32201   0.00000  Uiso   1.00
C146   C     0.81489   0.85619   0.26589   0.00000  Uiso   1.00
C147   C     0.77095   0.01176   0.24918   0.00000  Uiso   1.00
C148   C     0.75187   0.62154   0.12315   0.00000  Uiso   1.00
C149   C     0.87199   0.61173   0.21738   0.00000  Uiso   1.00
C150   C     0.79524   0.63392   0.11340   0.00000  Uiso   1.00
C151   C     0.73992   0.66081   0.00843   0.00000  Uiso   1.00
C152   C     0.45627   0.65810   0.85733   0.00000  Uiso   1.00
C153   C     0.47754   0.54757   0.89275   0.00000  Uiso   1.00
C154   C     0.32970   0.48158   0.75571   0.00000  Uiso   1.00
C155   C     0.37868   0.38347   0.81682   0.00000  Uiso   1.00
C156   C     0.56918   0.73531   0.98872   0.00000  Uiso   1.00
C157   C     0.49840   0.82719   0.93237   0.00000  Uiso   1.00
C158   C     0.62452   0.88715   0.07426   0.00000  Uiso   1.00
C159   C     0.56184   0.65244   0.93186   0.00000  Uiso   1.00
C160   C     0.48490   0.67466   0.82773   0.00000  Uiso   1.00
C161   C     0.60487   0.66487   0.92177   0.00000  Uiso   1.00
H162   H     0.95407   0.57716   0.35843   0.00000  Uiso   1.00
H163   H     0.86385   0.39476   0.29341   0.00000  Uiso   1.00
H164   H     0.03252   0.74032   0.47003   0.00000  Uiso   1.00
H165   H     0.01903   0.58781   0.36541   0.00000  Uiso   1.00
H166   H     0.68002   0.20619   0.13697   0.00000  Uiso   1.00
H167   H     0.03569   0.93484   0.50940   0.00000  Uiso   1.00
H168   H     0.00725   0.61325   0.28878   0.00000  Uiso   1.00
H169   H     0.30832   0.68216   0.70840   0.00000  Uiso   1.00
H170   H     0.18266   0.50551   0.60769   0.00000  Uiso   1.00
H171   H     0.35134   0.85108   0.78433   0.00000  Uiso   1.00
H172   H     0.33785   0.69857   0.67970   0.00000  Uiso   1.00
H173   H     0.12714   0.29608   0.58042   0.00000  Uiso   1.00
H174   H     0.48282   0.02474   0.95286   0.00000  Uiso   1.00
H175   H     0.45437   0.70314   0.73223   0.00000  Uiso   1.00
O176   O     0.33257   0.13305   0.80419   0.00000  Uiso   1.00
O177   O     0.79921   0.08903   0.29281   0.00000  Uiso   1.00
O178   O     0.76188   0.66710   0.00336   0.00000  Uiso   1.00
N179   N     0.56715   0.25157   0.01980   0.00000  Uiso   1.00
N180   N     0.89967   0.93281   0.36800   0.00000  Uiso   1.00
N181   N     0.87309   0.63218   0.16175   0.00000  Uiso   1.00
N182   N     0.26965   0.29994   0.72032   0.00000  Uiso   1.00
N183   N     0.60217   0.98118   0.06852   0.00000  Uiso   1.00
N184   N     0.57559   0.68055   0.86228   0.00000  Uiso   1.00
