data_job_02959
_audit_creation_date              2018-12-19
_audit_creation_method            'Materials Studio'
_symmetry_space_group_name_H-M    'P1'
_symmetry_Int_Tables_number       1
_symmetry_cell_setting            triclinic
loop_
_symmetry_equiv_pos_as_xyz
  x,y,z
_cell_length_a                    25.4818
_cell_length_b                    13.2075
_cell_length_c                    23.4834
_cell_angle_alpha                 90.0000
_cell_angle_beta                  153.8060
_cell_angle_gamma                 90.0000
loop_
_atom_site_label
_atom_site_type_symbol
_atom_site_fract_x
_atom_site_fract_y
_atom_site_fract_z
_atom_site_U_iso_or_equiv
_atom_site_adp_type
_atom_site_occupancy
C1     C     0.14076   0.49420   0.49342   0.00000  Uiso   1.00
C2     C     0.22184   0.52426   0.52315   0.00000  Uiso   1.00
C3     C     0.18603   0.54177   0.43259   0.00000  Uiso   1.00
C4     C     0.27379   0.56852   0.47928   0.00000  Uiso   1.00
C5     C     0.38156   0.61379   0.50529   0.00000  Uiso   1.00
C6     C     0.19130   0.39574   0.56638   0.00000  Uiso   1.00
C7     C     0.12980   0.30520   0.51217   0.00000  Uiso   1.00
C8     C     0.19186   0.22376   0.59526   0.00000  Uiso   1.00
C9     C     0.25219   0.06952   0.68840   0.00000  Uiso   1.00
C10    C     0.15958   0.57380   0.55791   0.00000  Uiso   1.00
C11    C     0.07140   0.63296   0.49658   0.00000  Uiso   1.00
C12    C     0.10675   0.70141   0.57255   0.00000  Uiso   1.00
C13    C     0.11783   0.82364   0.65254   0.00000  Uiso   1.00
C14    C     0.36030   0.51055   0.73737   0.00000  Uiso   1.00
C15    C     0.34109   0.53313   0.65566   0.00000  Uiso   1.00
C16    C     0.42893   0.55986   0.70250   0.00000  Uiso   1.00
C17    C     0.39325   0.57742   0.61203   0.00000  Uiso   1.00
C18    C     0.31055   0.40461   0.69888   0.00000  Uiso   1.00
C19    C     0.37271   0.32329   0.78208   0.00000  Uiso   1.00
C20    C     0.31132   0.23265   0.72801   0.00000  Uiso   1.00
C21    C     0.27883   0.58268   0.69042   0.00000  Uiso   1.00
C22    C     0.31431   0.65105   0.76649   0.00000  Uiso   1.00
C23    C     0.22621   0.71030   0.70530   0.00000  Uiso   1.00
H24    H     0.04792   0.48728   0.39026   0.00000  Uiso   1.00
H25    H     0.09374   0.53489   0.33005   0.00000  Uiso   1.00
H26    H     0.03752   0.29835   0.40962   0.00000  Uiso   1.00
H27    H     0.97913   0.62606   0.39404   0.00000  Uiso   1.00
H28    H     0.19713   0.59154   0.32174   0.00000  Uiso   1.00
H29    H     0.07858   0.09281   0.48953   0.00000  Uiso   1.00
H30    H     0.95546   0.78385   0.45667   0.00000  Uiso   1.00
H31    H     0.45315   0.51746   0.84054   0.00000  Uiso   1.00
H32    H     0.52121   0.56673   0.80505   0.00000  Uiso   1.00
H33    H     0.46499   0.33019   0.88461   0.00000  Uiso   1.00
H34    H     0.40660   0.65790   0.86903   0.00000  Uiso   1.00
H35    H     0.54408   0.61738   0.70726   0.00000  Uiso   1.00
H36    H     0.42553   0.11865   0.87505   0.00000  Uiso   1.00
H37    H     0.30241   0.80969   0.84220   0.00000  Uiso   1.00
O38    O     0.40807   0.63629   0.48303   0.00000  Uiso   1.00
O39    O     0.25253   0.98198   0.70316   0.00000  Uiso   1.00
O40    O     0.09100   0.88861   0.66005   0.00000  Uiso   1.00
N41    N     0.26944   0.59088   0.41734   0.00000  Uiso   1.00
N42    N     0.15861   0.12459   0.57421   0.00000  Uiso   1.00
N43    N     0.04350   0.77064   0.54350   0.00000  Uiso   1.00
N44    N     0.45613   0.60479   0.62479   0.00000  Uiso   1.00
N45    N     0.34530   0.13850   0.78166   0.00000  Uiso   1.00
N46    N     0.23019   0.78454   0.75095   0.00000  Uiso   1.00
C47    C     0.85924   0.99420   0.00658   0.00000  Uiso   1.00
C48    C     0.77816   0.02426   0.97685   0.00000  Uiso   1.00
C49    C     0.81397   0.04177   0.06741   0.00000  Uiso   1.00
C50    C     0.72621   0.06852   0.02072   0.00000  Uiso   1.00
C51    C     0.61844   0.11379   0.99471   0.00000  Uiso   1.00
C52    C     0.80870   0.89574   0.93362   0.00000  Uiso   1.00
C53    C     0.87020   0.80520   0.98783   0.00000  Uiso   1.00
C54    C     0.80814   0.72376   0.90474   0.00000  Uiso   1.00
C55    C     0.74781   0.56952   0.81160   0.00000  Uiso   1.00
C56    C     0.84042   0.07380   0.94209   0.00000  Uiso   1.00
C57    C     0.92860   0.13296   0.00342   0.00000  Uiso   1.00
C58    C     0.89325   0.20141   0.92745   0.00000  Uiso   1.00
C59    C     0.88217   0.32364   0.84746   0.00000  Uiso   1.00
C60    C     0.63970   0.01055   0.76263   0.00000  Uiso   1.00
C61    C     0.65891   0.03313   0.84434   0.00000  Uiso   1.00
C62    C     0.57107   0.05986   0.79750   0.00000  Uiso   1.00
C63    C     0.60675   0.07742   0.88797   0.00000  Uiso   1.00
C64    C     0.68945   0.90461   0.80112   0.00000  Uiso   1.00
C65    C     0.62729   0.82329   0.71792   0.00000  Uiso   1.00
C66    C     0.68868   0.73265   0.77199   0.00000  Uiso   1.00
C67    C     0.72117   0.08268   0.80958   0.00000  Uiso   1.00
C68    C     0.68569   0.15105   0.73351   0.00000  Uiso   1.00
C69    C     0.77379   0.21030   0.79470   0.00000  Uiso   1.00
H70    H     0.95208   0.98728   0.10974   0.00000  Uiso   1.00
H71    H     0.90626   0.03489   0.16995   0.00000  Uiso   1.00
H72    H     0.96248   0.79835   0.09038   0.00000  Uiso   1.00
H73    H     0.02087   0.12606   0.10596   0.00000  Uiso   1.00
H74    H     0.80287   0.09154   0.17826   0.00000  Uiso   1.00
H75    H     0.92142   0.59281   0.01047   0.00000  Uiso   1.00
H76    H     0.04454   0.28385   0.04333   0.00000  Uiso   1.00
H77    H     0.54685   0.01746   0.65946   0.00000  Uiso   1.00
H78    H     0.47879   0.06673   0.69495   0.00000  Uiso   1.00
H79    H     0.53501   0.83019   0.61539   0.00000  Uiso   1.00
H80    H     0.59340   0.15790   0.63097   0.00000  Uiso   1.00
H81    H     0.45592   0.11738   0.79274   0.00000  Uiso   1.00
H82    H     0.57447   0.61865   0.62495   0.00000  Uiso   1.00
H83    H     0.69759   0.30969   0.65780   0.00000  Uiso   1.00
O84    O     0.59193   0.13629   0.01697   0.00000  Uiso   1.00
O85    O     0.74747   0.48198   0.79684   0.00000  Uiso   1.00
O86    O     0.90900   0.38861   0.83995   0.00000  Uiso   1.00
N87    N     0.73056   0.09088   0.08266   0.00000  Uiso   1.00
N88    N     0.84139   0.62459   0.92579   0.00000  Uiso   1.00
N89    N     0.95650   0.27064   0.95650   0.00000  Uiso   1.00
N90    N     0.54387   0.10479   0.87521   0.00000  Uiso   1.00
N91    N     0.65470   0.63850   0.71834   0.00000  Uiso   1.00
N92    N     0.76981   0.28454   0.74905   0.00000  Uiso   1.00
C93    C     0.85924   0.50580   0.50658   0.00000  Uiso   1.00
C94    C     0.77816   0.47574   0.47685   0.00000  Uiso   1.00
C95    C     0.81397   0.45823   0.56741   0.00000  Uiso   1.00
C96    C     0.72621   0.43148   0.52072   0.00000  Uiso   1.00
C97    C     0.61844   0.38621   0.49471   0.00000  Uiso   1.00
C98    C     0.80870   0.60426   0.43362   0.00000  Uiso   1.00
C99    C     0.87020   0.69480   0.48783   0.00000  Uiso   1.00
C100   C     0.80814   0.77624   0.40474   0.00000  Uiso   1.00
C101   C     0.74781   0.93048   0.31160   0.00000  Uiso   1.00
C102   C     0.84042   0.42620   0.44209   0.00000  Uiso   1.00
C103   C     0.92860   0.36704   0.50342   0.00000  Uiso   1.00
C104   C     0.89325   0.29859   0.42745   0.00000  Uiso   1.00
C105   C     0.88217   0.17636   0.34746   0.00000  Uiso   1.00
C106   C     0.63970   0.48945   0.26263   0.00000  Uiso   1.00
C107   C     0.65891   0.46687   0.34434   0.00000  Uiso   1.00
C108   C     0.57107   0.44014   0.29750   0.00000  Uiso   1.00
C109   C     0.60675   0.42258   0.38797   0.00000  Uiso   1.00
C110   C     0.68945   0.59539   0.30112   0.00000  Uiso   1.00
C111   C     0.62729   0.67671   0.21792   0.00000  Uiso   1.00
C112   C     0.68868   0.76735   0.27199   0.00000  Uiso   1.00
C113   C     0.72117   0.41732   0.30958   0.00000  Uiso   1.00
C114   C     0.68569   0.34895   0.23351   0.00000  Uiso   1.00
C115   C     0.77379   0.28970   0.29470   0.00000  Uiso   1.00
H116   H     0.95208   0.51272   0.60974   0.00000  Uiso   1.00
H117   H     0.90626   0.46511   0.66995   0.00000  Uiso   1.00
H118   H     0.96248   0.70165   0.59038   0.00000  Uiso   1.00
H119   H     0.02087   0.37394   0.60596   0.00000  Uiso   1.00
H120   H     0.80287   0.40846   0.67826   0.00000  Uiso   1.00
H121   H     0.92142   0.90719   0.51047   0.00000  Uiso   1.00
H122   H     0.04454   0.21615   0.54333   0.00000  Uiso   1.00
H123   H     0.54685   0.48254   0.15946   0.00000  Uiso   1.00
H124   H     0.47879   0.43327   0.19495   0.00000  Uiso   1.00
H125   H     0.53501   0.66981   0.11539   0.00000  Uiso   1.00
H126   H     0.59340   0.34210   0.13097   0.00000  Uiso   1.00
H127   H     0.45592   0.38262   0.29274   0.00000  Uiso   1.00
H128   H     0.57447   0.88135   0.12495   0.00000  Uiso   1.00
H129   H     0.69759   0.19031   0.15780   0.00000  Uiso   1.00
O130   O     0.59193   0.36371   0.51697   0.00000  Uiso   1.00
O131   O     0.74747   0.01802   0.29684   0.00000  Uiso   1.00
O132   O     0.90900   0.11139   0.33995   0.00000  Uiso   1.00
N133   N     0.73056   0.40912   0.58266   0.00000  Uiso   1.00
N134   N     0.84139   0.87541   0.42579   0.00000  Uiso   1.00
N135   N     0.95650   0.22936   0.45650   0.00000  Uiso   1.00
N136   N     0.54387   0.39521   0.37521   0.00000  Uiso   1.00
N137   N     0.65470   0.86150   0.21834   0.00000  Uiso   1.00
N138   N     0.76981   0.21546   0.24905   0.00000  Uiso   1.00
C139   C     0.14076   0.00580   0.99342   0.00000  Uiso   1.00
C140   C     0.22184   0.97574   0.02315   0.00000  Uiso   1.00
C141   C     0.18603   0.95823   0.93259   0.00000  Uiso   1.00
C142   C     0.27379   0.93148   0.97928   0.00000  Uiso   1.00
C143   C     0.38156   0.88621   0.00529   0.00000  Uiso   1.00
C144   C     0.19130   0.10426   0.06638   0.00000  Uiso   1.00
C145   C     0.12980   0.19480   0.01217   0.00000  Uiso   1.00
C146   C     0.19186   0.27624   0.09526   0.00000  Uiso   1.00
C147   C     0.25219   0.43048   0.18840   0.00000  Uiso   1.00
C148   C     0.15958   0.92620   0.05791   0.00000  Uiso   1.00
C149   C     0.07140   0.86704   0.99658   0.00000  Uiso   1.00
C150   C     0.10675   0.79859   0.07255   0.00000  Uiso   1.00
C151   C     0.11783   0.67636   0.15254   0.00000  Uiso   1.00
C152   C     0.36030   0.98945   0.23737   0.00000  Uiso   1.00
C153   C     0.34109   0.96687   0.15566   0.00000  Uiso   1.00
C154   C     0.42893   0.94014   0.20250   0.00000  Uiso   1.00
C155   C     0.39325   0.92258   0.11203   0.00000  Uiso   1.00
C156   C     0.31055   0.09539   0.19888   0.00000  Uiso   1.00
C157   C     0.37271   0.17671   0.28208   0.00000  Uiso   1.00
C158   C     0.31132   0.26735   0.22801   0.00000  Uiso   1.00
C159   C     0.27883   0.91732   0.19042   0.00000  Uiso   1.00
C160   C     0.31431   0.84895   0.26649   0.00000  Uiso   1.00
C161   C     0.22621   0.78970   0.20530   0.00000  Uiso   1.00
H162   H     0.04792   0.01272   0.89026   0.00000  Uiso   1.00
H163   H     0.09374   0.96511   0.83005   0.00000  Uiso   1.00
H164   H     0.03752   0.20165   0.90962   0.00000  Uiso   1.00
H165   H     0.97913   0.87394   0.89404   0.00000  Uiso   1.00
H166   H     0.19713   0.90846   0.82174   0.00000  Uiso   1.00
H167   H     0.07858   0.40719   0.98953   0.00000  Uiso   1.00
H168   H     0.95546   0.71615   0.95667   0.00000  Uiso   1.00
H169   H     0.45315   0.98254   0.34054   0.00000  Uiso   1.00
H170   H     0.52121   0.93327   0.30505   0.00000  Uiso   1.00
H171   H     0.46499   0.16981   0.38461   0.00000  Uiso   1.00
H172   H     0.40660   0.84210   0.36903   0.00000  Uiso   1.00
H173   H     0.54408   0.88262   0.20726   0.00000  Uiso   1.00
H174   H     0.42553   0.38135   0.37505   0.00000  Uiso   1.00
H175   H     0.30241   0.69031   0.34220   0.00000  Uiso   1.00
O176   O     0.40807   0.86371   0.98303   0.00000  Uiso   1.00
O177   O     0.25253   0.51802   0.20316   0.00000  Uiso   1.00
O178   O     0.09100   0.61139   0.16005   0.00000  Uiso   1.00
N179   N     0.26944   0.90912   0.91734   0.00000  Uiso   1.00
N180   N     0.15861   0.37541   0.07421   0.00000  Uiso   1.00
N181   N     0.04350   0.72936   0.04350   0.00000  Uiso   1.00
N182   N     0.45613   0.89521   0.12479   0.00000  Uiso   1.00
N183   N     0.34530   0.36150   0.28166   0.00000  Uiso   1.00
N184   N     0.23019   0.71546   0.25095   0.00000  Uiso   1.00
