data_job_00293
_audit_creation_date              2018-12-19
_audit_creation_method            'Materials Studio'
_symmetry_space_group_name_H-M    'P1'
_symmetry_Int_Tables_number       1
_symmetry_cell_setting            triclinic
loop_
_symmetry_equiv_pos_as_xyz
  x,y,z
_cell_length_a                    21.8061
_cell_length_b                    18.3361
_cell_length_c                    12.3865
_cell_angle_alpha                 90.0000
_cell_angle_beta                  90.0000
_cell_angle_gamma                 90.0000
loop_
_atom_site_label
_atom_site_type_symbol
_atom_site_fract_x
_atom_site_fract_y
_atom_site_fract_z
_atom_site_U_iso_or_equiv
_atom_site_adp_type
_atom_site_occupancy
C1     C     0.92417   0.94202   0.24282   0.00000  Uiso   1.00
C2     C     0.91189   0.91260   0.35592   0.00000  Uiso   1.00
C3     C     0.95484   0.87991   0.42297   0.00000  Uiso   1.00
C4     C     0.93451   0.85662   0.52344   0.00000  Uiso   1.00
C5     C     0.92473   0.80952   0.69415   0.00000  Uiso   1.00
C6     C     0.87904   0.90313   0.16845   0.00000  Uiso   1.00
C7     C     0.89437   0.86249   0.07786   0.00000  Uiso   1.00
C8     C     0.84639   0.83123   0.02052   0.00000  Uiso   1.00
C9     C     0.78561   0.76948   0.90013   0.00000  Uiso   1.00
C10    C     0.90450   0.02182   0.24466   0.00000  Uiso   1.00
C11    C     0.94123   0.08097   0.21811   0.00000  Uiso   1.00
C12    C     0.91468   0.14964   0.22490   0.00000  Uiso   1.00
C13    C     0.89342   0.27216   0.22282   0.00000  Uiso   1.00
C14    C     0.81170   0.95879   0.30203   0.00000  Uiso   1.00
C15    C     0.85080   0.92171   0.38808   0.00000  Uiso   1.00
C16    C     0.83040   0.89846   0.48848   0.00000  Uiso   1.00
C17    C     0.87331   0.86575   0.55566   0.00000  Uiso   1.00
C18    C     0.81795   0.91224   0.20061   0.00000  Uiso   1.00
C19    C     0.76994   0.88104   0.14338   0.00000  Uiso   1.00
C20    C     0.78519   0.84036   0.05273   0.00000  Uiso   1.00
C21    C     0.84341   0.03093   0.27682   0.00000  Uiso   1.00
C22    C     0.81679   0.09952   0.28363   0.00000  Uiso   1.00
C23    C     0.85347   0.15877   0.25711   0.00000  Uiso   1.00
H24    H     0.97173   0.93493   0.21777   0.00000  Uiso   1.00
H25    H     0.00211   0.87287   0.39804   0.00000  Uiso   1.00
H26    H     0.94165   0.85546   0.05299   0.00000  Uiso   1.00
H27    H     0.98850   0.07390   0.19323   0.00000  Uiso   1.00
H28    H     0.00884   0.80806   0.61207   0.00000  Uiso   1.00
H29    H     0.88137   0.77136   0.88449   0.00000  Uiso   1.00
H30    H     0.98016   0.23200   0.18020   0.00000  Uiso   1.00
H31    H     0.76413   0.96588   0.32707   0.00000  Uiso   1.00
H32    H     0.78312   0.90552   0.51335   0.00000  Uiso   1.00
H33    H     0.72267   0.88810   0.16829   0.00000  Uiso   1.00
H34    H     0.76952   0.10655   0.30853   0.00000  Uiso   1.00
H35    H     0.83111   0.83455   0.70566   0.00000  Uiso   1.00
H36    H     0.70363   0.79786   0.97807   0.00000  Uiso   1.00
H37    H     0.80242   0.25849   0.27378   0.00000  Uiso   1.00
O38    O     0.93621   0.78102   0.77941   0.00000  Uiso   1.00
O39    O     0.76897   0.73289   0.82484   0.00000  Uiso   1.00
O40    O     0.89858   0.33722   0.21281   0.00000  Uiso   1.00
N41    N     0.96441   0.82259   0.60854   0.00000  Uiso   1.00
N42    N     0.84523   0.78827   0.92830   0.00000  Uiso   1.00
N43    N     0.93758   0.21892   0.20474   0.00000  Uiso   1.00
N44    N     0.86877   0.83685   0.65890   0.00000  Uiso   1.00
N45    N     0.74959   0.80253   0.97866   0.00000  Uiso   1.00
N46    N     0.84195   0.23318   0.25510   0.00000  Uiso   1.00
C47    C     0.57583   0.05798   0.74282   0.00000  Uiso   1.00
C48    C     0.58811   0.08740   0.85592   0.00000  Uiso   1.00
C49    C     0.54516   0.12009   0.92297   0.00000  Uiso   1.00
C50    C     0.56549   0.14338   0.02344   0.00000  Uiso   1.00
C51    C     0.57527   0.19048   0.19415   0.00000  Uiso   1.00
C52    C     0.62096   0.09687   0.66845   0.00000  Uiso   1.00
C53    C     0.60563   0.13751   0.57786   0.00000  Uiso   1.00
C54    C     0.65361   0.16877   0.52052   0.00000  Uiso   1.00
C55    C     0.71439   0.23052   0.40013   0.00000  Uiso   1.00
C56    C     0.59550   0.97818   0.74466   0.00000  Uiso   1.00
C57    C     0.55877   0.91903   0.71811   0.00000  Uiso   1.00
C58    C     0.58532   0.85036   0.72490   0.00000  Uiso   1.00
C59    C     0.60658   0.72784   0.72282   0.00000  Uiso   1.00
C60    C     0.68830   0.04121   0.80203   0.00000  Uiso   1.00
C61    C     0.64920   0.07829   0.88808   0.00000  Uiso   1.00
C62    C     0.66960   0.10154   0.98848   0.00000  Uiso   1.00
C63    C     0.62669   0.13425   0.05566   0.00000  Uiso   1.00
C64    C     0.68205   0.08776   0.70061   0.00000  Uiso   1.00
C65    C     0.73006   0.11896   0.64338   0.00000  Uiso   1.00
C66    C     0.71481   0.15964   0.55273   0.00000  Uiso   1.00
C67    C     0.65659   0.96907   0.77682   0.00000  Uiso   1.00
C68    C     0.68321   0.90048   0.78363   0.00000  Uiso   1.00
C69    C     0.64653   0.84123   0.75711   0.00000  Uiso   1.00
H70    H     0.52827   0.06507   0.71777   0.00000  Uiso   1.00
H71    H     0.49789   0.12713   0.89804   0.00000  Uiso   1.00
H72    H     0.55835   0.14454   0.55299   0.00000  Uiso   1.00
H73    H     0.51150   0.92610   0.69323   0.00000  Uiso   1.00
H74    H     0.49116   0.19194   0.11207   0.00000  Uiso   1.00
H75    H     0.61863   0.22864   0.38449   0.00000  Uiso   1.00
H76    H     0.51984   0.76800   0.68020   0.00000  Uiso   1.00
H77    H     0.73587   0.03412   0.82707   0.00000  Uiso   1.00
H78    H     0.71688   0.09448   0.01335   0.00000  Uiso   1.00
H79    H     0.77733   0.11190   0.66829   0.00000  Uiso   1.00
H80    H     0.73048   0.89345   0.80853   0.00000  Uiso   1.00
H81    H     0.66889   0.16545   0.20566   0.00000  Uiso   1.00
H82    H     0.79637   0.20214   0.47807   0.00000  Uiso   1.00
H83    H     0.69758   0.74151   0.77378   0.00000  Uiso   1.00
O84    O     0.56379   0.21898   0.27941   0.00000  Uiso   1.00
O85    O     0.73103   0.26711   0.32484   0.00000  Uiso   1.00
O86    O     0.60142   0.66278   0.71281   0.00000  Uiso   1.00
N87    N     0.53559   0.17741   0.10854   0.00000  Uiso   1.00
N88    N     0.65477   0.21173   0.42830   0.00000  Uiso   1.00
N89    N     0.56242   0.78108   0.70474   0.00000  Uiso   1.00
N90    N     0.63123   0.16315   0.15890   0.00000  Uiso   1.00
N91    N     0.75041   0.19747   0.47866   0.00000  Uiso   1.00
N92    N     0.65805   0.76682   0.75510   0.00000  Uiso   1.00
C93    C     0.07583   0.44202   0.25718   0.00000  Uiso   1.00
C94    C     0.08811   0.41260   0.14408   0.00000  Uiso   1.00
C95    C     0.04516   0.37991   0.07703   0.00000  Uiso   1.00
C96    C     0.06549   0.35662   0.97656   0.00000  Uiso   1.00
C97    C     0.07527   0.30952   0.80585   0.00000  Uiso   1.00
C98    C     0.12096   0.40313   0.33155   0.00000  Uiso   1.00
C99    C     0.10563   0.36249   0.42214   0.00000  Uiso   1.00
C100   C     0.15361   0.33123   0.47948   0.00000  Uiso   1.00
C101   C     0.21439   0.26948   0.59987   0.00000  Uiso   1.00
C102   C     0.09550   0.52182   0.25534   0.00000  Uiso   1.00
C103   C     0.05877   0.58097   0.28189   0.00000  Uiso   1.00
C104   C     0.08532   0.64964   0.27510   0.00000  Uiso   1.00
C105   C     0.10658   0.77216   0.27718   0.00000  Uiso   1.00
C106   C     0.18830   0.45879   0.19797   0.00000  Uiso   1.00
C107   C     0.14920   0.42171   0.11192   0.00000  Uiso   1.00
C108   C     0.16960   0.39846   0.01152   0.00000  Uiso   1.00
C109   C     0.12669   0.36575   0.94434   0.00000  Uiso   1.00
C110   C     0.18205   0.41224   0.29939   0.00000  Uiso   1.00
C111   C     0.23006   0.38104   0.35662   0.00000  Uiso   1.00
C112   C     0.21481   0.34036   0.44727   0.00000  Uiso   1.00
C113   C     0.15659   0.53093   0.22318   0.00000  Uiso   1.00
C114   C     0.18321   0.59952   0.21637   0.00000  Uiso   1.00
C115   C     0.14653   0.65877   0.24289   0.00000  Uiso   1.00
H116   H     0.02827   0.43493   0.28223   0.00000  Uiso   1.00
H117   H     0.99789   0.37287   0.10196   0.00000  Uiso   1.00
H118   H     0.05835   0.35546   0.44701   0.00000  Uiso   1.00
H119   H     0.01150   0.57390   0.30677   0.00000  Uiso   1.00
H120   H     0.99116   0.30806   0.88793   0.00000  Uiso   1.00
H121   H     0.11863   0.27136   0.61551   0.00000  Uiso   1.00
H122   H     0.01984   0.73200   0.31980   0.00000  Uiso   1.00
H123   H     0.23587   0.46588   0.17293   0.00000  Uiso   1.00
H124   H     0.21688   0.40552   0.98665   0.00000  Uiso   1.00
H125   H     0.27733   0.38810   0.33171   0.00000  Uiso   1.00
H126   H     0.23048   0.60655   0.19147   0.00000  Uiso   1.00
H127   H     0.16889   0.33455   0.79434   0.00000  Uiso   1.00
H128   H     0.29637   0.29786   0.52193   0.00000  Uiso   1.00
H129   H     0.19758   0.75849   0.22622   0.00000  Uiso   1.00
O130   O     0.06379   0.28102   0.72059   0.00000  Uiso   1.00
O131   O     0.23103   0.23289   0.67516   0.00000  Uiso   1.00
O132   O     0.10142   0.83722   0.28719   0.00000  Uiso   1.00
N133   N     0.03559   0.32259   0.89146   0.00000  Uiso   1.00
N134   N     0.15477   0.28827   0.57170   0.00000  Uiso   1.00
N135   N     0.06242   0.71892   0.29526   0.00000  Uiso   1.00
N136   N     0.13123   0.33685   0.84110   0.00000  Uiso   1.00
N137   N     0.25041   0.30253   0.52134   0.00000  Uiso   1.00
N138   N     0.15805   0.73318   0.24490   0.00000  Uiso   1.00
C139   C     0.42417   0.55798   0.75718   0.00000  Uiso   1.00
C140   C     0.41189   0.58740   0.64408   0.00000  Uiso   1.00
C141   C     0.45484   0.62009   0.57703   0.00000  Uiso   1.00
C142   C     0.43451   0.64338   0.47656   0.00000  Uiso   1.00
C143   C     0.42473   0.69048   0.30585   0.00000  Uiso   1.00
C144   C     0.37904   0.59687   0.83155   0.00000  Uiso   1.00
C145   C     0.39437   0.63751   0.92214   0.00000  Uiso   1.00
C146   C     0.34639   0.66877   0.97948   0.00000  Uiso   1.00
C147   C     0.28561   0.73052   0.09987   0.00000  Uiso   1.00
C148   C     0.40450   0.47818   0.75534   0.00000  Uiso   1.00
C149   C     0.44123   0.41903   0.78189   0.00000  Uiso   1.00
C150   C     0.41468   0.35036   0.77510   0.00000  Uiso   1.00
C151   C     0.39342   0.22784   0.77718   0.00000  Uiso   1.00
C152   C     0.31170   0.54121   0.69797   0.00000  Uiso   1.00
C153   C     0.35080   0.57829   0.61192   0.00000  Uiso   1.00
C154   C     0.33040   0.60154   0.51152   0.00000  Uiso   1.00
C155   C     0.37331   0.63425   0.44434   0.00000  Uiso   1.00
C156   C     0.31795   0.58776   0.79939   0.00000  Uiso   1.00
C157   C     0.26994   0.61896   0.85662   0.00000  Uiso   1.00
C158   C     0.28519   0.65964   0.94727   0.00000  Uiso   1.00
C159   C     0.34341   0.46907   0.72318   0.00000  Uiso   1.00
C160   C     0.31679   0.40048   0.71637   0.00000  Uiso   1.00
C161   C     0.35347   0.34123   0.74289   0.00000  Uiso   1.00
H162   H     0.47173   0.56507   0.78223   0.00000  Uiso   1.00
H163   H     0.50211   0.62713   0.60196   0.00000  Uiso   1.00
H164   H     0.44165   0.64454   0.94701   0.00000  Uiso   1.00
H165   H     0.48850   0.42610   0.80677   0.00000  Uiso   1.00
H166   H     0.50884   0.69194   0.38793   0.00000  Uiso   1.00
H167   H     0.38137   0.72864   0.11551   0.00000  Uiso   1.00
H168   H     0.48016   0.26800   0.81980   0.00000  Uiso   1.00
H169   H     0.26413   0.53412   0.67293   0.00000  Uiso   1.00
H170   H     0.28312   0.59448   0.48665   0.00000  Uiso   1.00
H171   H     0.22267   0.61190   0.83171   0.00000  Uiso   1.00
H172   H     0.26952   0.39345   0.69147   0.00000  Uiso   1.00
H173   H     0.33111   0.66545   0.29434   0.00000  Uiso   1.00
H174   H     0.20363   0.70214   0.02193   0.00000  Uiso   1.00
H175   H     0.30242   0.24151   0.72622   0.00000  Uiso   1.00
O176   O     0.43621   0.71898   0.22059   0.00000  Uiso   1.00
O177   O     0.26897   0.76711   0.17516   0.00000  Uiso   1.00
O178   O     0.39858   0.16278   0.78719   0.00000  Uiso   1.00
N179   N     0.46441   0.67741   0.39146   0.00000  Uiso   1.00
N180   N     0.34523   0.71173   0.07170   0.00000  Uiso   1.00
N181   N     0.43758   0.28108   0.79526   0.00000  Uiso   1.00
N182   N     0.36877   0.66315   0.34110   0.00000  Uiso   1.00
N183   N     0.24959   0.69747   0.02134   0.00000  Uiso   1.00
N184   N     0.34195   0.26682   0.74490   0.00000  Uiso   1.00
C185   C     0.07583   0.05798   0.75718   0.00000  Uiso   1.00
C186   C     0.08811   0.08740   0.64408   0.00000  Uiso   1.00
C187   C     0.04516   0.12009   0.57703   0.00000  Uiso   1.00
C188   C     0.06549   0.14338   0.47656   0.00000  Uiso   1.00
C189   C     0.07527   0.19048   0.30585   0.00000  Uiso   1.00
C190   C     0.12096   0.09687   0.83155   0.00000  Uiso   1.00
C191   C     0.10563   0.13751   0.92214   0.00000  Uiso   1.00
C192   C     0.15361   0.16877   0.97948   0.00000  Uiso   1.00
C193   C     0.21439   0.23052   0.09987   0.00000  Uiso   1.00
C194   C     0.09550   0.97818   0.75534   0.00000  Uiso   1.00
C195   C     0.05877   0.91903   0.78189   0.00000  Uiso   1.00
C196   C     0.08532   0.85036   0.77510   0.00000  Uiso   1.00
C197   C     0.10658   0.72784   0.77718   0.00000  Uiso   1.00
C198   C     0.18830   0.04121   0.69797   0.00000  Uiso   1.00
C199   C     0.14920   0.07829   0.61192   0.00000  Uiso   1.00
C200   C     0.16960   0.10154   0.51152   0.00000  Uiso   1.00
C201   C     0.12669   0.13425   0.44434   0.00000  Uiso   1.00
C202   C     0.18205   0.08776   0.79939   0.00000  Uiso   1.00
C203   C     0.23006   0.11896   0.85662   0.00000  Uiso   1.00
C204   C     0.21481   0.15964   0.94727   0.00000  Uiso   1.00
C205   C     0.15659   0.96907   0.72318   0.00000  Uiso   1.00
C206   C     0.18321   0.90048   0.71637   0.00000  Uiso   1.00
C207   C     0.14653   0.84123   0.74289   0.00000  Uiso   1.00
H208   H     0.02827   0.06507   0.78223   0.00000  Uiso   1.00
H209   H     0.99789   0.12713   0.60196   0.00000  Uiso   1.00
H210   H     0.05835   0.14454   0.94701   0.00000  Uiso   1.00
H211   H     0.01150   0.92610   0.80677   0.00000  Uiso   1.00
H212   H     0.99116   0.19194   0.38793   0.00000  Uiso   1.00
H213   H     0.11863   0.22864   0.11551   0.00000  Uiso   1.00
H214   H     0.01984   0.76800   0.81980   0.00000  Uiso   1.00
H215   H     0.23587   0.03412   0.67293   0.00000  Uiso   1.00
H216   H     0.21688   0.09448   0.48665   0.00000  Uiso   1.00
H217   H     0.27733   0.11190   0.83171   0.00000  Uiso   1.00
H218   H     0.23048   0.89345   0.69147   0.00000  Uiso   1.00
H219   H     0.16889   0.16545   0.29434   0.00000  Uiso   1.00
H220   H     0.29637   0.20214   0.02193   0.00000  Uiso   1.00
H221   H     0.19758   0.74151   0.72622   0.00000  Uiso   1.00
O222   O     0.06379   0.21898   0.22059   0.00000  Uiso   1.00
O223   O     0.23103   0.26711   0.17516   0.00000  Uiso   1.00
O224   O     0.10142   0.66278   0.78719   0.00000  Uiso   1.00
N225   N     0.03559   0.17741   0.39146   0.00000  Uiso   1.00
N226   N     0.15477   0.21173   0.07170   0.00000  Uiso   1.00
N227   N     0.06242   0.78108   0.79526   0.00000  Uiso   1.00
N228   N     0.13123   0.16315   0.34110   0.00000  Uiso   1.00
N229   N     0.25041   0.19747   0.02134   0.00000  Uiso   1.00
N230   N     0.15805   0.76682   0.74490   0.00000  Uiso   1.00
C231   C     0.42417   0.94202   0.25718   0.00000  Uiso   1.00
C232   C     0.41189   0.91260   0.14408   0.00000  Uiso   1.00
C233   C     0.45484   0.87991   0.07703   0.00000  Uiso   1.00
C234   C     0.43451   0.85662   0.97656   0.00000  Uiso   1.00
C235   C     0.42473   0.80952   0.80585   0.00000  Uiso   1.00
C236   C     0.37904   0.90313   0.33155   0.00000  Uiso   1.00
C237   C     0.39437   0.86249   0.42214   0.00000  Uiso   1.00
C238   C     0.34639   0.83123   0.47948   0.00000  Uiso   1.00
C239   C     0.28561   0.76948   0.59987   0.00000  Uiso   1.00
C240   C     0.40450   0.02182   0.25534   0.00000  Uiso   1.00
C241   C     0.44123   0.08097   0.28189   0.00000  Uiso   1.00
C242   C     0.41468   0.14964   0.27510   0.00000  Uiso   1.00
C243   C     0.39342   0.27216   0.27718   0.00000  Uiso   1.00
C244   C     0.31170   0.95879   0.19797   0.00000  Uiso   1.00
C245   C     0.35080   0.92171   0.11192   0.00000  Uiso   1.00
C246   C     0.33040   0.89846   0.01152   0.00000  Uiso   1.00
C247   C     0.37331   0.86575   0.94434   0.00000  Uiso   1.00
C248   C     0.31795   0.91224   0.29939   0.00000  Uiso   1.00
C249   C     0.26994   0.88104   0.35662   0.00000  Uiso   1.00
C250   C     0.28519   0.84036   0.44727   0.00000  Uiso   1.00
C251   C     0.34341   0.03093   0.22318   0.00000  Uiso   1.00
C252   C     0.31679   0.09952   0.21637   0.00000  Uiso   1.00
C253   C     0.35347   0.15877   0.24289   0.00000  Uiso   1.00
H254   H     0.47173   0.93493   0.28223   0.00000  Uiso   1.00
H255   H     0.50211   0.87287   0.10196   0.00000  Uiso   1.00
H256   H     0.44165   0.85546   0.44701   0.00000  Uiso   1.00
H257   H     0.48850   0.07390   0.30677   0.00000  Uiso   1.00
H258   H     0.50884   0.80806   0.88793   0.00000  Uiso   1.00
H259   H     0.38137   0.77136   0.61551   0.00000  Uiso   1.00
H260   H     0.48016   0.23200   0.31980   0.00000  Uiso   1.00
H261   H     0.26413   0.96588   0.17293   0.00000  Uiso   1.00
H262   H     0.28312   0.90552   0.98665   0.00000  Uiso   1.00
H263   H     0.22267   0.88810   0.33171   0.00000  Uiso   1.00
H264   H     0.26952   0.10655   0.19147   0.00000  Uiso   1.00
H265   H     0.33111   0.83455   0.79434   0.00000  Uiso   1.00
H266   H     0.20363   0.79786   0.52193   0.00000  Uiso   1.00
H267   H     0.30242   0.25849   0.22622   0.00000  Uiso   1.00
O268   O     0.43621   0.78102   0.72059   0.00000  Uiso   1.00
O269   O     0.26897   0.73289   0.67516   0.00000  Uiso   1.00
O270   O     0.39858   0.33722   0.28719   0.00000  Uiso   1.00
N271   N     0.46441   0.82259   0.89146   0.00000  Uiso   1.00
N272   N     0.34523   0.78827   0.57170   0.00000  Uiso   1.00
N273   N     0.43758   0.21892   0.29526   0.00000  Uiso   1.00
N274   N     0.36877   0.83685   0.84110   0.00000  Uiso   1.00
N275   N     0.24959   0.80253   0.52134   0.00000  Uiso   1.00
N276   N     0.34195   0.23318   0.24490   0.00000  Uiso   1.00
C277   C     0.92417   0.55798   0.74282   0.00000  Uiso   1.00
C278   C     0.91189   0.58740   0.85592   0.00000  Uiso   1.00
C279   C     0.95484   0.62009   0.92297   0.00000  Uiso   1.00
C280   C     0.93451   0.64338   0.02344   0.00000  Uiso   1.00
C281   C     0.92473   0.69048   0.19415   0.00000  Uiso   1.00
C282   C     0.87904   0.59687   0.66845   0.00000  Uiso   1.00
C283   C     0.89437   0.63751   0.57786   0.00000  Uiso   1.00
C284   C     0.84639   0.66877   0.52052   0.00000  Uiso   1.00
C285   C     0.78561   0.73052   0.40013   0.00000  Uiso   1.00
C286   C     0.90450   0.47818   0.74466   0.00000  Uiso   1.00
C287   C     0.94123   0.41903   0.71811   0.00000  Uiso   1.00
C288   C     0.91468   0.35036   0.72490   0.00000  Uiso   1.00
C289   C     0.89342   0.22784   0.72282   0.00000  Uiso   1.00
C290   C     0.81170   0.54121   0.80203   0.00000  Uiso   1.00
C291   C     0.85080   0.57829   0.88808   0.00000  Uiso   1.00
C292   C     0.83040   0.60154   0.98848   0.00000  Uiso   1.00
C293   C     0.87331   0.63425   0.05566   0.00000  Uiso   1.00
C294   C     0.81795   0.58776   0.70061   0.00000  Uiso   1.00
C295   C     0.76994   0.61896   0.64338   0.00000  Uiso   1.00
C296   C     0.78519   0.65964   0.55273   0.00000  Uiso   1.00
C297   C     0.84341   0.46907   0.77682   0.00000  Uiso   1.00
C298   C     0.81679   0.40048   0.78363   0.00000  Uiso   1.00
C299   C     0.85347   0.34123   0.75711   0.00000  Uiso   1.00
H300   H     0.97173   0.56507   0.71777   0.00000  Uiso   1.00
H301   H     0.00211   0.62713   0.89804   0.00000  Uiso   1.00
H302   H     0.94165   0.64454   0.55299   0.00000  Uiso   1.00
H303   H     0.98850   0.42610   0.69323   0.00000  Uiso   1.00
H304   H     0.00884   0.69194   0.11207   0.00000  Uiso   1.00
H305   H     0.88137   0.72864   0.38449   0.00000  Uiso   1.00
H306   H     0.98016   0.26800   0.68020   0.00000  Uiso   1.00
H307   H     0.76413   0.53412   0.82707   0.00000  Uiso   1.00
H308   H     0.78312   0.59448   0.01335   0.00000  Uiso   1.00
H309   H     0.72267   0.61190   0.66829   0.00000  Uiso   1.00
H310   H     0.76952   0.39345   0.80853   0.00000  Uiso   1.00
H311   H     0.83111   0.66545   0.20566   0.00000  Uiso   1.00
H312   H     0.70363   0.70214   0.47807   0.00000  Uiso   1.00
H313   H     0.80242   0.24151   0.77378   0.00000  Uiso   1.00
O314   O     0.93621   0.71898   0.27941   0.00000  Uiso   1.00
O315   O     0.76897   0.76711   0.32484   0.00000  Uiso   1.00
O316   O     0.89858   0.16278   0.71281   0.00000  Uiso   1.00
N317   N     0.96441   0.67741   0.10854   0.00000  Uiso   1.00
N318   N     0.84523   0.71173   0.42830   0.00000  Uiso   1.00
N319   N     0.93758   0.28108   0.70474   0.00000  Uiso   1.00
N320   N     0.86877   0.66315   0.15890   0.00000  Uiso   1.00
N321   N     0.74959   0.69747   0.47866   0.00000  Uiso   1.00
N322   N     0.84195   0.26682   0.75510   0.00000  Uiso   1.00
C323   C     0.57583   0.44202   0.24282   0.00000  Uiso   1.00
C324   C     0.58811   0.41260   0.35592   0.00000  Uiso   1.00
C325   C     0.54516   0.37991   0.42297   0.00000  Uiso   1.00
C326   C     0.56549   0.35662   0.52344   0.00000  Uiso   1.00
C327   C     0.57527   0.30952   0.69415   0.00000  Uiso   1.00
C328   C     0.62096   0.40313   0.16845   0.00000  Uiso   1.00
C329   C     0.60563   0.36249   0.07786   0.00000  Uiso   1.00
C330   C     0.65361   0.33123   0.02052   0.00000  Uiso   1.00
C331   C     0.71439   0.26948   0.90013   0.00000  Uiso   1.00
C332   C     0.59550   0.52182   0.24466   0.00000  Uiso   1.00
C333   C     0.55877   0.58097   0.21811   0.00000  Uiso   1.00
C334   C     0.58532   0.64964   0.22490   0.00000  Uiso   1.00
C335   C     0.60658   0.77216   0.22282   0.00000  Uiso   1.00
C336   C     0.68830   0.45879   0.30203   0.00000  Uiso   1.00
C337   C     0.64920   0.42171   0.38808   0.00000  Uiso   1.00
C338   C     0.66960   0.39846   0.48848   0.00000  Uiso   1.00
C339   C     0.62669   0.36575   0.55566   0.00000  Uiso   1.00
C340   C     0.68205   0.41224   0.20061   0.00000  Uiso   1.00
C341   C     0.73006   0.38104   0.14338   0.00000  Uiso   1.00
C342   C     0.71481   0.34036   0.05273   0.00000  Uiso   1.00
C343   C     0.65659   0.53093   0.27682   0.00000  Uiso   1.00
C344   C     0.68321   0.59952   0.28363   0.00000  Uiso   1.00
C345   C     0.64653   0.65877   0.25711   0.00000  Uiso   1.00
H346   H     0.52827   0.43493   0.21777   0.00000  Uiso   1.00
H347   H     0.49789   0.37287   0.39804   0.00000  Uiso   1.00
H348   H     0.55835   0.35546   0.05299   0.00000  Uiso   1.00
H349   H     0.51150   0.57390   0.19323   0.00000  Uiso   1.00
H350   H     0.49116   0.30806   0.61207   0.00000  Uiso   1.00
H351   H     0.61863   0.27136   0.88449   0.00000  Uiso   1.00
H352   H     0.51984   0.73200   0.18020   0.00000  Uiso   1.00
H353   H     0.73587   0.46588   0.32707   0.00000  Uiso   1.00
H354   H     0.71688   0.40552   0.51335   0.00000  Uiso   1.00
H355   H     0.77733   0.38810   0.16829   0.00000  Uiso   1.00
H356   H     0.73048   0.60655   0.30853   0.00000  Uiso   1.00
H357   H     0.66889   0.33455   0.70566   0.00000  Uiso   1.00
H358   H     0.79637   0.29786   0.97807   0.00000  Uiso   1.00
H359   H     0.69758   0.75849   0.27378   0.00000  Uiso   1.00
O360   O     0.56379   0.28102   0.77941   0.00000  Uiso   1.00
O361   O     0.73103   0.23289   0.82484   0.00000  Uiso   1.00
O362   O     0.60142   0.83722   0.21281   0.00000  Uiso   1.00
N363   N     0.53559   0.32259   0.60854   0.00000  Uiso   1.00
N364   N     0.65477   0.28827   0.92830   0.00000  Uiso   1.00
N365   N     0.56242   0.71892   0.20474   0.00000  Uiso   1.00
N366   N     0.63123   0.33685   0.65890   0.00000  Uiso   1.00
N367   N     0.75041   0.30253   0.97866   0.00000  Uiso   1.00
N368   N     0.65805   0.73318   0.25510   0.00000  Uiso   1.00
