data_job_01889
_audit_creation_date              2018-12-19
_audit_creation_method            'Materials Studio'
_symmetry_space_group_name_H-M    'P1'
_symmetry_Int_Tables_number       1
_symmetry_cell_setting            triclinic
loop_
_symmetry_equiv_pos_as_xyz
  x,y,z
_cell_length_a                    26.5713
_cell_length_b                    7.2261
_cell_length_c                    12.3477
_cell_angle_alpha                 90.0000
_cell_angle_beta                  90.0000
_cell_angle_gamma                 90.0000
loop_
_atom_site_label
_atom_site_type_symbol
_atom_site_fract_x
_atom_site_fract_y
_atom_site_fract_z
_atom_site_U_iso_or_equiv
_atom_site_adp_type
_atom_site_occupancy
C1     C     0.37255   0.63161   0.98841   0.00000  Uiso   1.00
C2     C     0.39847   0.68991   0.09318   0.00000  Uiso   1.00
C3     C     0.43075   0.58096   0.15433   0.00000  Uiso   1.00
C4     C     0.45060   0.65965   0.24760   0.00000  Uiso   1.00
C5     C     0.49265   0.72259   0.40561   0.00000  Uiso   1.00
C6     C     0.31633   0.65882   0.00741   0.00000  Uiso   1.00
C7     C     0.27955   0.52374   0.99644   0.00000  Uiso   1.00
C8     C     0.23025   0.57627   0.01750   0.00000  Uiso   1.00
C9     C     0.14478   0.59099   0.04228   0.00000  Uiso   1.00
C10    C     0.38766   0.77461   0.90362   0.00000  Uiso   1.00
C11    C     0.41085   0.73689   0.80535   0.00000  Uiso   1.00
C12    C     0.42159   0.88691   0.73901   0.00000  Uiso   1.00
C13    C     0.44688   0.08140   0.60263   0.00000  Uiso   1.00
C14    C     0.35039   0.96510   0.04529   0.00000  Uiso   1.00
C15    C     0.38643   0.87105   0.12408   0.00000  Uiso   1.00
C16    C     0.40623   0.94993   0.21727   0.00000  Uiso   1.00
C17    C     0.43854   0.84111   0.27855   0.00000  Uiso   1.00
C18    C     0.30429   0.83995   0.03831   0.00000  Uiso   1.00
C19    C     0.25503   0.89271   0.05938   0.00000  Uiso   1.00
C20    C     0.21819   0.75774   0.04845   0.00000  Uiso   1.00
C21    C     0.37562   0.95576   0.93451   0.00000  Uiso   1.00
C22    C     0.38633   0.10586   0.86830   0.00000  Uiso   1.00
C23    C     0.40953   0.06837   0.76996   0.00000  Uiso   1.00
H24    H     0.38192   0.49058   0.96435   0.00000  Uiso   1.00
H25    H     0.44006   0.44078   0.13040   0.00000  Uiso   1.00
H26    H     0.28888   0.38358   0.97252   0.00000  Uiso   1.00
H27    H     0.42016   0.59670   0.78147   0.00000  Uiso   1.00
H28    H     0.49919   0.46542   0.32814   0.00000  Uiso   1.00
H29    H     0.18043   0.34483   0.99521   0.00000  Uiso   1.00
H30    H     0.45725   0.79423   0.59234   0.00000  Uiso   1.00
H31    H     0.34101   0.10613   0.06935   0.00000  Uiso   1.00
H32    H     0.39691   0.09011   0.24116   0.00000  Uiso   1.00
H33    H     0.24573   0.03290   0.08328   0.00000  Uiso   1.00
H34    H     0.37701   0.24601   0.89224   0.00000  Uiso   1.00
H35    H     0.46416   0.99244   0.41805   0.00000  Uiso   1.00
H36    H     0.14540   0.87184   0.08511   0.00000  Uiso   1.00
H37    H     0.42222   0.32124   0.68224   0.00000  Uiso   1.00
O38    O     0.51917   0.70726   0.48424   0.00000  Uiso   1.00
O39    O     0.10097   0.54905   0.04742   0.00000  Uiso   1.00
O40    O     0.46415   0.13865   0.51888   0.00000  Uiso   1.00
N41    N     0.48328   0.59167   0.32571   0.00000  Uiso   1.00
N42    N     0.18526   0.47891   0.01445   0.00000  Uiso   1.00
N43    N     0.44405   0.89905   0.63779   0.00000  Uiso   1.00
N44    N     0.46444   0.87525   0.37409   0.00000  Uiso   1.00
N45    N     0.16641   0.76249   0.06283   0.00000  Uiso   1.00
N46    N     0.42521   0.18264   0.68617   0.00000  Uiso   1.00
C47    C     0.62745   0.36839   0.48841   0.00000  Uiso   1.00
C48    C     0.60153   0.31009   0.59318   0.00000  Uiso   1.00
C49    C     0.56925   0.41904   0.65433   0.00000  Uiso   1.00
C50    C     0.54940   0.34035   0.74760   0.00000  Uiso   1.00
C51    C     0.50735   0.27741   0.90561   0.00000  Uiso   1.00
C52    C     0.68367   0.34118   0.50741   0.00000  Uiso   1.00
C53    C     0.72045   0.47626   0.49644   0.00000  Uiso   1.00
C54    C     0.76975   0.42373   0.51750   0.00000  Uiso   1.00
C55    C     0.85522   0.40901   0.54228   0.00000  Uiso   1.00
C56    C     0.61234   0.22539   0.40362   0.00000  Uiso   1.00
C57    C     0.58915   0.26311   0.30535   0.00000  Uiso   1.00
C58    C     0.57841   0.11309   0.23901   0.00000  Uiso   1.00
C59    C     0.55312   0.91860   0.10263   0.00000  Uiso   1.00
C60    C     0.64961   0.03490   0.54529   0.00000  Uiso   1.00
C61    C     0.61357   0.12895   0.62408   0.00000  Uiso   1.00
C62    C     0.59377   0.05007   0.71727   0.00000  Uiso   1.00
C63    C     0.56146   0.15889   0.77855   0.00000  Uiso   1.00
C64    C     0.69571   0.16005   0.53831   0.00000  Uiso   1.00
C65    C     0.74497   0.10729   0.55938   0.00000  Uiso   1.00
C66    C     0.78181   0.24226   0.54845   0.00000  Uiso   1.00
C67    C     0.62438   0.04424   0.43451   0.00000  Uiso   1.00
C68    C     0.61367   0.89414   0.36830   0.00000  Uiso   1.00
C69    C     0.59047   0.93163   0.26996   0.00000  Uiso   1.00
H70    H     0.61808   0.50942   0.46435   0.00000  Uiso   1.00
H71    H     0.55994   0.55922   0.63040   0.00000  Uiso   1.00
H72    H     0.71112   0.61642   0.47252   0.00000  Uiso   1.00
H73    H     0.57984   0.40330   0.28147   0.00000  Uiso   1.00
H74    H     0.50081   0.53458   0.82814   0.00000  Uiso   1.00
H75    H     0.81957   0.65517   0.49521   0.00000  Uiso   1.00
H76    H     0.54275   0.20577   0.09234   0.00000  Uiso   1.00
H77    H     0.65899   0.89387   0.56935   0.00000  Uiso   1.00
H78    H     0.60309   0.90989   0.74116   0.00000  Uiso   1.00
H79    H     0.75427   0.96710   0.58328   0.00000  Uiso   1.00
H80    H     0.62299   0.75399   0.39224   0.00000  Uiso   1.00
H81    H     0.53584   0.00756   0.91805   0.00000  Uiso   1.00
H82    H     0.85460   0.12816   0.58511   0.00000  Uiso   1.00
H83    H     0.57778   0.67876   0.18224   0.00000  Uiso   1.00
O84    O     0.48083   0.29274   0.98424   0.00000  Uiso   1.00
O85    O     0.89903   0.45095   0.54742   0.00000  Uiso   1.00
O86    O     0.53585   0.86135   0.01888   0.00000  Uiso   1.00
N87    N     0.51672   0.40833   0.82571   0.00000  Uiso   1.00
N88    N     0.81474   0.52109   0.51445   0.00000  Uiso   1.00
N89    N     0.55595   0.10095   0.13779   0.00000  Uiso   1.00
N90    N     0.53556   0.12475   0.87409   0.00000  Uiso   1.00
N91    N     0.83359   0.23751   0.56283   0.00000  Uiso   1.00
N92    N     0.57479   0.81736   0.18617   0.00000  Uiso   1.00
C93    C     0.87255   0.36839   0.98841   0.00000  Uiso   1.00
C94    C     0.89847   0.31009   0.09318   0.00000  Uiso   1.00
C95    C     0.93075   0.41904   0.15433   0.00000  Uiso   1.00
C96    C     0.95060   0.34035   0.24760   0.00000  Uiso   1.00
C97    C     0.99265   0.27741   0.40561   0.00000  Uiso   1.00
C98    C     0.81633   0.34118   0.00741   0.00000  Uiso   1.00
C99    C     0.77955   0.47626   0.99644   0.00000  Uiso   1.00
C100   C     0.73025   0.42373   0.01750   0.00000  Uiso   1.00
C101   C     0.64478   0.40901   0.04228   0.00000  Uiso   1.00
C102   C     0.88766   0.22539   0.90362   0.00000  Uiso   1.00
C103   C     0.91085   0.26311   0.80535   0.00000  Uiso   1.00
C104   C     0.92159   0.11309   0.73901   0.00000  Uiso   1.00
C105   C     0.94688   0.91860   0.60263   0.00000  Uiso   1.00
C106   C     0.85039   0.03490   0.04529   0.00000  Uiso   1.00
C107   C     0.88643   0.12895   0.12408   0.00000  Uiso   1.00
C108   C     0.90623   0.05007   0.21727   0.00000  Uiso   1.00
C109   C     0.93854   0.15889   0.27855   0.00000  Uiso   1.00
C110   C     0.80429   0.16005   0.03831   0.00000  Uiso   1.00
C111   C     0.75503   0.10729   0.05938   0.00000  Uiso   1.00
C112   C     0.71819   0.24226   0.04845   0.00000  Uiso   1.00
C113   C     0.87562   0.04424   0.93451   0.00000  Uiso   1.00
C114   C     0.88633   0.89414   0.86830   0.00000  Uiso   1.00
C115   C     0.90953   0.93163   0.76996   0.00000  Uiso   1.00
H116   H     0.88192   0.50942   0.96435   0.00000  Uiso   1.00
H117   H     0.94006   0.55922   0.13040   0.00000  Uiso   1.00
H118   H     0.78888   0.61642   0.97252   0.00000  Uiso   1.00
H119   H     0.92016   0.40330   0.78147   0.00000  Uiso   1.00
H120   H     0.99919   0.53458   0.32814   0.00000  Uiso   1.00
H121   H     0.68043   0.65517   0.99521   0.00000  Uiso   1.00
H122   H     0.95725   0.20577   0.59234   0.00000  Uiso   1.00
H123   H     0.84101   0.89387   0.06935   0.00000  Uiso   1.00
H124   H     0.89691   0.90989   0.24116   0.00000  Uiso   1.00
H125   H     0.74573   0.96710   0.08328   0.00000  Uiso   1.00
H126   H     0.87701   0.75399   0.89224   0.00000  Uiso   1.00
H127   H     0.96416   0.00756   0.41805   0.00000  Uiso   1.00
H128   H     0.64540   0.12816   0.08511   0.00000  Uiso   1.00
H129   H     0.92222   0.67876   0.68224   0.00000  Uiso   1.00
O130   O     0.01917   0.29274   0.48424   0.00000  Uiso   1.00
O131   O     0.60097   0.45095   0.04742   0.00000  Uiso   1.00
O132   O     0.96415   0.86135   0.51888   0.00000  Uiso   1.00
N133   N     0.98328   0.40833   0.32571   0.00000  Uiso   1.00
N134   N     0.68526   0.52109   0.01445   0.00000  Uiso   1.00
N135   N     0.94405   0.10095   0.63779   0.00000  Uiso   1.00
N136   N     0.96444   0.12475   0.37409   0.00000  Uiso   1.00
N137   N     0.66641   0.23751   0.06283   0.00000  Uiso   1.00
N138   N     0.92521   0.81736   0.68617   0.00000  Uiso   1.00
C139   C     0.12745   0.63161   0.48841   0.00000  Uiso   1.00
C140   C     0.10153   0.68991   0.59318   0.00000  Uiso   1.00
C141   C     0.06925   0.58096   0.65433   0.00000  Uiso   1.00
C142   C     0.04940   0.65965   0.74760   0.00000  Uiso   1.00
C143   C     0.00735   0.72259   0.90561   0.00000  Uiso   1.00
C144   C     0.18367   0.65882   0.50741   0.00000  Uiso   1.00
C145   C     0.22045   0.52374   0.49644   0.00000  Uiso   1.00
C146   C     0.26975   0.57627   0.51750   0.00000  Uiso   1.00
C147   C     0.35522   0.59099   0.54228   0.00000  Uiso   1.00
C148   C     0.11234   0.77461   0.40362   0.00000  Uiso   1.00
C149   C     0.08915   0.73689   0.30535   0.00000  Uiso   1.00
C150   C     0.07841   0.88691   0.23901   0.00000  Uiso   1.00
C151   C     0.05312   0.08140   0.10263   0.00000  Uiso   1.00
C152   C     0.14961   0.96510   0.54529   0.00000  Uiso   1.00
C153   C     0.11357   0.87105   0.62408   0.00000  Uiso   1.00
C154   C     0.09377   0.94993   0.71727   0.00000  Uiso   1.00
C155   C     0.06146   0.84111   0.77855   0.00000  Uiso   1.00
C156   C     0.19571   0.83995   0.53831   0.00000  Uiso   1.00
C157   C     0.24497   0.89271   0.55938   0.00000  Uiso   1.00
C158   C     0.28181   0.75774   0.54845   0.00000  Uiso   1.00
C159   C     0.12438   0.95576   0.43451   0.00000  Uiso   1.00
C160   C     0.11367   0.10586   0.36830   0.00000  Uiso   1.00
C161   C     0.09047   0.06837   0.26996   0.00000  Uiso   1.00
H162   H     0.11808   0.49058   0.46435   0.00000  Uiso   1.00
H163   H     0.05994   0.44078   0.63040   0.00000  Uiso   1.00
H164   H     0.21112   0.38358   0.47252   0.00000  Uiso   1.00
H165   H     0.07984   0.59670   0.28147   0.00000  Uiso   1.00
H166   H     0.00081   0.46542   0.82814   0.00000  Uiso   1.00
H167   H     0.31957   0.34483   0.49521   0.00000  Uiso   1.00
H168   H     0.04275   0.79423   0.09234   0.00000  Uiso   1.00
H169   H     0.15899   0.10613   0.56935   0.00000  Uiso   1.00
H170   H     0.10309   0.09011   0.74116   0.00000  Uiso   1.00
H171   H     0.25427   0.03290   0.58328   0.00000  Uiso   1.00
H172   H     0.12299   0.24601   0.39224   0.00000  Uiso   1.00
H173   H     0.03584   0.99244   0.91805   0.00000  Uiso   1.00
H174   H     0.35460   0.87184   0.58511   0.00000  Uiso   1.00
H175   H     0.07778   0.32124   0.18224   0.00000  Uiso   1.00
O176   O     0.98083   0.70726   0.98424   0.00000  Uiso   1.00
O177   O     0.39903   0.54905   0.54742   0.00000  Uiso   1.00
O178   O     0.03585   0.13865   0.01888   0.00000  Uiso   1.00
N179   N     0.01672   0.59167   0.82571   0.00000  Uiso   1.00
N180   N     0.31474   0.47891   0.51445   0.00000  Uiso   1.00
N181   N     0.05595   0.89905   0.13779   0.00000  Uiso   1.00
N182   N     0.03556   0.87525   0.87409   0.00000  Uiso   1.00
N183   N     0.33359   0.76249   0.56283   0.00000  Uiso   1.00
N184   N     0.07479   0.18264   0.18617   0.00000  Uiso   1.00
