data_job_01556
_audit_creation_date              2018-12-19
_audit_creation_method            'Materials Studio'
_symmetry_space_group_name_H-M    'P1'
_symmetry_Int_Tables_number       1
_symmetry_cell_setting            triclinic
loop_
_symmetry_equiv_pos_as_xyz
  x,y,z
_cell_length_a                    17.7814
_cell_length_b                    7.8674
_cell_length_c                    31.4305
_cell_angle_alpha                 90.0000
_cell_angle_beta                  147.4228
_cell_angle_gamma                 90.0000
loop_
_atom_site_label
_atom_site_type_symbol
_atom_site_fract_x
_atom_site_fract_y
_atom_site_fract_z
_atom_site_U_iso_or_equiv
_atom_site_adp_type
_atom_site_occupancy
C1     C     0.57156   0.69490   0.17662   0.00000  Uiso   1.00
C2     C     0.62027   0.83469   0.22999   0.00000  Uiso   1.00
C3     C     0.70209   0.81144   0.30498   0.00000  Uiso   1.00
C4     C     0.73541   0.95552   0.34427   0.00000  Uiso   1.00
C5     C     0.81811   0.14801   0.43238   0.00000  Uiso   1.00
C6     C     0.41268   0.70742   0.09949   0.00000  Uiso   1.00
C7     C     0.31999   0.57716   0.06474   0.00000  Uiso   1.00
C8     C     0.17856   0.61410   0.99416   0.00000  Uiso   1.00
C9     C     0.93899   0.60897   0.87963   0.00000  Uiso   1.00
C10    C     0.62255   0.74626   0.15680   0.00000  Uiso   1.00
C11    C     0.70629   0.64863   0.17022   0.00000  Uiso   1.00
C12    C     0.74153   0.71825   0.14788   0.00000  Uiso   1.00
C13    C     0.82781   0.77342   0.12234   0.00000  Uiso   1.00
C14    C     0.48522   0.99212   0.11304   0.00000  Uiso   1.00
C15    C     0.57336   0.99613   0.19546   0.00000  Uiso   1.00
C16    C     0.60657   0.14028   0.23464   0.00000  Uiso   1.00
C17    C     0.68844   0.11725   0.30967   0.00000  Uiso   1.00
C18    C     0.36578   0.86885   0.06495   0.00000  Uiso   1.00
C19    C     0.22446   0.90600   0.99440   0.00000  Uiso   1.00
C20    C     0.13157   0.77583   0.95956   0.00000  Uiso   1.00
C21    C     0.57566   0.90770   0.12227   0.00000  Uiso   1.00
C22    C     0.61077   0.97748   0.09989   0.00000  Uiso   1.00
C23    C     0.69454   0.87998   0.11328   0.00000  Uiso   1.00
H24    H     0.60806   0.56921   0.20350   0.00000  Uiso   1.00
H25    H     0.73836   0.68648   0.33168   0.00000  Uiso   1.00
H26    H     0.35631   0.45224   0.09148   0.00000  Uiso   1.00
H27    H     0.74256   0.52371   0.19695   0.00000  Uiso   1.00
H28    H     0.86208   0.88769   0.45856   0.00000  Uiso   1.00
H29    H     0.05652   0.39375   0.95206   0.00000  Uiso   1.00
H30    H     0.87100   0.54445   0.17446   0.00000  Uiso   1.00
H31    H     0.44870   0.11781   0.08615   0.00000  Uiso   1.00
H32    H     0.57026   0.26519   0.20790   0.00000  Uiso   1.00
H33    H     0.18821   0.03094   0.96769   0.00000  Uiso   1.00
H34    H     0.57446   0.10241   0.07317   0.00000  Uiso   1.00
H35    H     0.72564   0.35739   0.35809   0.00000  Uiso   1.00
H36    H     0.92008   0.86344   0.85159   0.00000  Uiso   1.00
H37    H     0.73456   0.01415   0.07399   0.00000  Uiso   1.00
O38    O     0.87666   0.20959   0.49052   0.00000  Uiso   1.00
O39    O     0.81980   0.56154   0.82601   0.00000  Uiso   1.00
O40    O     0.88838   0.75927   0.11780   0.00000  Uiso   1.00
N41    N     0.81332   0.97801   0.41821   0.00000  Uiso   1.00
N42    N     0.06016   0.51621   0.94467   0.00000  Uiso   1.00
N43    N     0.82160   0.65709   0.15258   0.00000  Uiso   1.00
N44    N     0.73990   0.23076   0.36415   0.00000  Uiso   1.00
N45    N     0.98675   0.76895   0.89061   0.00000  Uiso   1.00
N46    N     0.74818   0.90983   0.09852   0.00000  Uiso   1.00
C47    C     0.42844   0.69490   0.32338   0.00000  Uiso   1.00
C48    C     0.37973   0.83469   0.27001   0.00000  Uiso   1.00
C49    C     0.29791   0.81144   0.19502   0.00000  Uiso   1.00
C50    C     0.26459   0.95552   0.15573   0.00000  Uiso   1.00
C51    C     0.18189   0.14801   0.06762   0.00000  Uiso   1.00
C52    C     0.58732   0.70742   0.40051   0.00000  Uiso   1.00
C53    C     0.68001   0.57716   0.43526   0.00000  Uiso   1.00
C54    C     0.82144   0.61410   0.50584   0.00000  Uiso   1.00
C55    C     0.06101   0.60897   0.62037   0.00000  Uiso   1.00
C56    C     0.37745   0.74626   0.34320   0.00000  Uiso   1.00
C57    C     0.29371   0.64863   0.32978   0.00000  Uiso   1.00
C58    C     0.25847   0.71825   0.35212   0.00000  Uiso   1.00
C59    C     0.17219   0.77342   0.37766   0.00000  Uiso   1.00
C60    C     0.51478   0.99212   0.38696   0.00000  Uiso   1.00
C61    C     0.42664   0.99613   0.30454   0.00000  Uiso   1.00
C62    C     0.39343   0.14028   0.26536   0.00000  Uiso   1.00
C63    C     0.31156   0.11725   0.19033   0.00000  Uiso   1.00
C64    C     0.63422   0.86885   0.43505   0.00000  Uiso   1.00
C65    C     0.77554   0.90600   0.50560   0.00000  Uiso   1.00
C66    C     0.86843   0.77583   0.54044   0.00000  Uiso   1.00
C67    C     0.42434   0.90770   0.37773   0.00000  Uiso   1.00
C68    C     0.38923   0.97748   0.40011   0.00000  Uiso   1.00
C69    C     0.30546   0.87998   0.38672   0.00000  Uiso   1.00
H70    H     0.39194   0.56921   0.29650   0.00000  Uiso   1.00
H71    H     0.26164   0.68648   0.16832   0.00000  Uiso   1.00
H72    H     0.64369   0.45224   0.40852   0.00000  Uiso   1.00
H73    H     0.25744   0.52371   0.30305   0.00000  Uiso   1.00
H74    H     0.13792   0.88769   0.04144   0.00000  Uiso   1.00
H75    H     0.94348   0.39375   0.54794   0.00000  Uiso   1.00
H76    H     0.12900   0.54445   0.32554   0.00000  Uiso   1.00
H77    H     0.55130   0.11781   0.41385   0.00000  Uiso   1.00
H78    H     0.42974   0.26519   0.29210   0.00000  Uiso   1.00
H79    H     0.81179   0.03094   0.53231   0.00000  Uiso   1.00
H80    H     0.42554   0.10241   0.42683   0.00000  Uiso   1.00
H81    H     0.27436   0.35739   0.14191   0.00000  Uiso   1.00
H82    H     0.07992   0.86344   0.64841   0.00000  Uiso   1.00
H83    H     0.26544   0.01415   0.42601   0.00000  Uiso   1.00
O84    O     0.12334   0.20959   0.00948   0.00000  Uiso   1.00
O85    O     0.18020   0.56154   0.67399   0.00000  Uiso   1.00
O86    O     0.11162   0.75927   0.38220   0.00000  Uiso   1.00
N87    N     0.18668   0.97801   0.08179   0.00000  Uiso   1.00
N88    N     0.93984   0.51621   0.55533   0.00000  Uiso   1.00
N89    N     0.17840   0.65709   0.34742   0.00000  Uiso   1.00
N90    N     0.26010   0.23076   0.13585   0.00000  Uiso   1.00
N91    N     0.01325   0.76895   0.60939   0.00000  Uiso   1.00
N92    N     0.25182   0.90983   0.40148   0.00000  Uiso   1.00
C93    C     0.42844   0.30510   0.82338   0.00000  Uiso   1.00
C94    C     0.37973   0.16531   0.77001   0.00000  Uiso   1.00
C95    C     0.29791   0.18856   0.69502   0.00000  Uiso   1.00
C96    C     0.26459   0.04448   0.65573   0.00000  Uiso   1.00
C97    C     0.18189   0.85199   0.56762   0.00000  Uiso   1.00
C98    C     0.58732   0.29258   0.90051   0.00000  Uiso   1.00
C99    C     0.68001   0.42284   0.93526   0.00000  Uiso   1.00
C100   C     0.82144   0.38590   0.00584   0.00000  Uiso   1.00
C101   C     0.06101   0.39103   0.12037   0.00000  Uiso   1.00
C102   C     0.37745   0.25374   0.84320   0.00000  Uiso   1.00
C103   C     0.29371   0.35137   0.82978   0.00000  Uiso   1.00
C104   C     0.25847   0.28175   0.85212   0.00000  Uiso   1.00
C105   C     0.17219   0.22658   0.87766   0.00000  Uiso   1.00
C106   C     0.51478   0.00788   0.88696   0.00000  Uiso   1.00
C107   C     0.42664   0.00387   0.80454   0.00000  Uiso   1.00
C108   C     0.39343   0.85972   0.76536   0.00000  Uiso   1.00
C109   C     0.31156   0.88275   0.69033   0.00000  Uiso   1.00
C110   C     0.63422   0.13115   0.93505   0.00000  Uiso   1.00
C111   C     0.77554   0.09400   0.00560   0.00000  Uiso   1.00
C112   C     0.86843   0.22417   0.04044   0.00000  Uiso   1.00
C113   C     0.42434   0.09230   0.87773   0.00000  Uiso   1.00
C114   C     0.38923   0.02252   0.90011   0.00000  Uiso   1.00
C115   C     0.30546   0.12002   0.88672   0.00000  Uiso   1.00
H116   H     0.39194   0.43079   0.79650   0.00000  Uiso   1.00
H117   H     0.26164   0.31352   0.66832   0.00000  Uiso   1.00
H118   H     0.64369   0.54776   0.90852   0.00000  Uiso   1.00
H119   H     0.25744   0.47629   0.80305   0.00000  Uiso   1.00
H120   H     0.13792   0.11231   0.54144   0.00000  Uiso   1.00
H121   H     0.94348   0.60625   0.04794   0.00000  Uiso   1.00
H122   H     0.12900   0.45555   0.82554   0.00000  Uiso   1.00
H123   H     0.55130   0.88219   0.91385   0.00000  Uiso   1.00
H124   H     0.42974   0.73481   0.79210   0.00000  Uiso   1.00
H125   H     0.81179   0.96906   0.03231   0.00000  Uiso   1.00
H126   H     0.42554   0.89759   0.92683   0.00000  Uiso   1.00
H127   H     0.27436   0.64261   0.64191   0.00000  Uiso   1.00
H128   H     0.07992   0.13656   0.14841   0.00000  Uiso   1.00
H129   H     0.26544   0.98585   0.92601   0.00000  Uiso   1.00
O130   O     0.12334   0.79041   0.50948   0.00000  Uiso   1.00
O131   O     0.18020   0.43846   0.17399   0.00000  Uiso   1.00
O132   O     0.11162   0.24073   0.88220   0.00000  Uiso   1.00
N133   N     0.18668   0.02199   0.58179   0.00000  Uiso   1.00
N134   N     0.93984   0.48379   0.05533   0.00000  Uiso   1.00
N135   N     0.17840   0.34291   0.84742   0.00000  Uiso   1.00
N136   N     0.26010   0.76924   0.63585   0.00000  Uiso   1.00
N137   N     0.01325   0.23105   0.10939   0.00000  Uiso   1.00
N138   N     0.25182   0.09017   0.90148   0.00000  Uiso   1.00
C139   C     0.57156   0.30510   0.67662   0.00000  Uiso   1.00
C140   C     0.62027   0.16531   0.72999   0.00000  Uiso   1.00
C141   C     0.70209   0.18856   0.80498   0.00000  Uiso   1.00
C142   C     0.73541   0.04448   0.84427   0.00000  Uiso   1.00
C143   C     0.81811   0.85199   0.93238   0.00000  Uiso   1.00
C144   C     0.41268   0.29258   0.59949   0.00000  Uiso   1.00
C145   C     0.31999   0.42284   0.56474   0.00000  Uiso   1.00
C146   C     0.17856   0.38590   0.49416   0.00000  Uiso   1.00
C147   C     0.93899   0.39103   0.37963   0.00000  Uiso   1.00
C148   C     0.62255   0.25374   0.65680   0.00000  Uiso   1.00
C149   C     0.70629   0.35137   0.67022   0.00000  Uiso   1.00
C150   C     0.74153   0.28175   0.64788   0.00000  Uiso   1.00
C151   C     0.82781   0.22658   0.62234   0.00000  Uiso   1.00
C152   C     0.48522   0.00788   0.61304   0.00000  Uiso   1.00
C153   C     0.57336   0.00387   0.69546   0.00000  Uiso   1.00
C154   C     0.60657   0.85972   0.73464   0.00000  Uiso   1.00
C155   C     0.68844   0.88275   0.80967   0.00000  Uiso   1.00
C156   C     0.36578   0.13115   0.56495   0.00000  Uiso   1.00
C157   C     0.22446   0.09400   0.49440   0.00000  Uiso   1.00
C158   C     0.13157   0.22417   0.45956   0.00000  Uiso   1.00
C159   C     0.57566   0.09230   0.62227   0.00000  Uiso   1.00
C160   C     0.61077   0.02252   0.59989   0.00000  Uiso   1.00
C161   C     0.69454   0.12002   0.61328   0.00000  Uiso   1.00
H162   H     0.60806   0.43079   0.70350   0.00000  Uiso   1.00
H163   H     0.73836   0.31352   0.83168   0.00000  Uiso   1.00
H164   H     0.35631   0.54776   0.59148   0.00000  Uiso   1.00
H165   H     0.74256   0.47629   0.69695   0.00000  Uiso   1.00
H166   H     0.86208   0.11231   0.95856   0.00000  Uiso   1.00
H167   H     0.05652   0.60625   0.45206   0.00000  Uiso   1.00
H168   H     0.87100   0.45555   0.67446   0.00000  Uiso   1.00
H169   H     0.44870   0.88219   0.58615   0.00000  Uiso   1.00
H170   H     0.57026   0.73481   0.70790   0.00000  Uiso   1.00
H171   H     0.18821   0.96906   0.46769   0.00000  Uiso   1.00
H172   H     0.57446   0.89759   0.57317   0.00000  Uiso   1.00
H173   H     0.72564   0.64261   0.85809   0.00000  Uiso   1.00
H174   H     0.92008   0.13656   0.35159   0.00000  Uiso   1.00
H175   H     0.73456   0.98585   0.57399   0.00000  Uiso   1.00
O176   O     0.87666   0.79041   0.99052   0.00000  Uiso   1.00
O177   O     0.81980   0.43846   0.32601   0.00000  Uiso   1.00
O178   O     0.88838   0.24073   0.61780   0.00000  Uiso   1.00
N179   N     0.81332   0.02199   0.91821   0.00000  Uiso   1.00
N180   N     0.06016   0.48379   0.44467   0.00000  Uiso   1.00
N181   N     0.82160   0.34291   0.65258   0.00000  Uiso   1.00
N182   N     0.73990   0.76924   0.86415   0.00000  Uiso   1.00
N183   N     0.98675   0.23105   0.39061   0.00000  Uiso   1.00
N184   N     0.74818   0.09017   0.59852   0.00000  Uiso   1.00
