data_job_03048
_audit_creation_date              2018-12-19
_audit_creation_method            'Materials Studio'
_symmetry_space_group_name_H-M    'P1'
_symmetry_Int_Tables_number       1
_symmetry_cell_setting            triclinic
loop_
_symmetry_equiv_pos_as_xyz
  x,y,z
_cell_length_a                    10.1860
_cell_length_b                    13.3440
_cell_length_c                    13.4817
_cell_angle_alpha                 90.2413
_cell_angle_beta                  95.2835
_cell_angle_gamma                 82.0339
loop_
_atom_site_label
_atom_site_type_symbol
_atom_site_fract_x
_atom_site_fract_y
_atom_site_fract_z
_atom_site_U_iso_or_equiv
_atom_site_adp_type
_atom_site_occupancy
C1     C     0.59693   0.16211   0.20771   0.00000  Uiso   1.00
C2     C     0.68006   0.23001   0.27035   0.00000  Uiso   1.00
C3     C     0.72547   0.21503   0.37014   0.00000  Uiso   1.00
C4     C     0.80002   0.28571   0.41404   0.00000  Uiso   1.00
C5     C     0.92478   0.37859   0.51953   0.00000  Uiso   1.00
C6     C     0.47160   0.23036   0.16598   0.00000  Uiso   1.00
C7     C     0.34174   0.21567   0.17801   0.00000  Uiso   1.00
C8     C     0.24082   0.28665   0.13404   0.00000  Uiso   1.00
C9     C     0.04194   0.38004   0.07743   0.00000  Uiso   1.00
C10    C     0.67453   0.13024   0.11863   0.00000  Uiso   1.00
C11    C     0.71525   0.03137   0.09082   0.00000  Uiso   1.00
C12    C     0.78515   0.01805   0.00697   0.00000  Uiso   1.00
C13    C     0.90133   0.95599   0.87685   0.00000  Uiso   1.00
C14    C     0.64861   0.31427   0.10822   0.00000  Uiso   1.00
C15    C     0.70812   0.31265   0.21630   0.00000  Uiso   1.00
C16    C     0.78264   0.38337   0.26007   0.00000  Uiso   1.00
C17    C     0.82815   0.36850   0.35991   0.00000  Uiso   1.00
C18    C     0.49967   0.31300   0.11194   0.00000  Uiso   1.00
C19    C     0.39891   0.38401   0.06793   0.00000  Uiso   1.00
C20    C     0.26893   0.36944   0.07990   0.00000  Uiso   1.00
C21    C     0.70260   0.21288   0.06459   0.00000  Uiso   1.00
C22    C     0.77243   0.19971   0.98076   0.00000  Uiso   1.00
C23    C     0.81326   0.10084   0.95284   0.00000  Uiso   1.00
H24    H     0.57507   0.09777   0.24978   0.00000  Uiso   1.00
H25    H     0.70371   0.15107   0.41194   0.00000  Uiso   1.00
H26    H     0.32005   0.15170   0.21982   0.00000  Uiso   1.00
H27    H     0.69351   0.96743   0.13266   0.00000  Uiso   1.00
H28    H     0.85867   0.24662   0.56790   0.00000  Uiso   1.00
H29    H     0.04970   0.24795   0.16279   0.00000  Uiso   1.00
H30    H     0.83721   0.85937   0.97899   0.00000  Uiso   1.00
H31    H     0.67045   0.37861   0.06614   0.00000  Uiso   1.00
H32    H     0.80434   0.44732   0.21823   0.00000  Uiso   1.00
H33    H     0.42067   0.44796   0.02612   0.00000  Uiso   1.00
H34    H     0.79413   0.26368   0.93896   0.00000  Uiso   1.00
H35    H     0.94034   0.48707   0.41068   0.00000  Uiso   1.00
H36    H     0.13136   0.48840   0.00557   0.00000  Uiso   1.00
H37    H     0.91888   0.09982   0.82177   0.00000  Uiso   1.00
O38    O     0.98582   0.40700   0.59265   0.00000  Uiso   1.00
O39    O     0.92448   0.40872   0.06115   0.00000  Uiso   1.00
O40    O     0.95768   0.89892   0.82002   0.00000  Uiso   1.00
N41    N     0.85954   0.29377   0.51002   0.00000  Uiso   1.00
N42    N     0.10320   0.29502   0.13128   0.00000  Uiso   1.00
N43    N     0.83943   0.93173   0.95943   0.00000  Uiso   1.00
N44    N     0.90349   0.42316   0.42542   0.00000  Uiso   1.00
N45    N     0.14715   0.42440   0.04668   0.00000  Uiso   1.00
N46    N     0.88337   0.06112   0.87483   0.00000  Uiso   1.00
C47    C     0.40307   0.83789   0.79229   0.00000  Uiso   1.00
C48    C     0.31994   0.76999   0.72965   0.00000  Uiso   1.00
C49    C     0.27453   0.78497   0.62986   0.00000  Uiso   1.00
C50    C     0.19998   0.71429   0.58596   0.00000  Uiso   1.00
C51    C     0.07522   0.62141   0.48047   0.00000  Uiso   1.00
C52    C     0.52840   0.76964   0.83402   0.00000  Uiso   1.00
C53    C     0.65826   0.78433   0.82199   0.00000  Uiso   1.00
C54    C     0.75918   0.71335   0.86596   0.00000  Uiso   1.00
C55    C     0.95806   0.61996   0.92257   0.00000  Uiso   1.00
C56    C     0.32547   0.86976   0.88137   0.00000  Uiso   1.00
C57    C     0.28475   0.96863   0.90918   0.00000  Uiso   1.00
C58    C     0.21485   0.98195   0.99303   0.00000  Uiso   1.00
C59    C     0.09867   0.04401   0.12315   0.00000  Uiso   1.00
C60    C     0.35139   0.68573   0.89178   0.00000  Uiso   1.00
C61    C     0.29188   0.68735   0.78370   0.00000  Uiso   1.00
C62    C     0.21736   0.61663   0.73993   0.00000  Uiso   1.00
C63    C     0.17185   0.63150   0.64009   0.00000  Uiso   1.00
C64    C     0.50033   0.68700   0.88806   0.00000  Uiso   1.00
C65    C     0.60109   0.61599   0.93207   0.00000  Uiso   1.00
C66    C     0.73107   0.63056   0.92010   0.00000  Uiso   1.00
C67    C     0.29740   0.78712   0.93541   0.00000  Uiso   1.00
C68    C     0.22757   0.80029   0.01924   0.00000  Uiso   1.00
C69    C     0.18674   0.89916   0.04716   0.00000  Uiso   1.00
H70    H     0.42493   0.90223   0.75022   0.00000  Uiso   1.00
H71    H     0.29629   0.84893   0.58806   0.00000  Uiso   1.00
H72    H     0.67995   0.84830   0.78018   0.00000  Uiso   1.00
H73    H     0.30649   0.03257   0.86734   0.00000  Uiso   1.00
H74    H     0.14133   0.75338   0.43210   0.00000  Uiso   1.00
H75    H     0.95030   0.75205   0.83721   0.00000  Uiso   1.00
H76    H     0.16279   0.14063   0.02101   0.00000  Uiso   1.00
H77    H     0.32955   0.62139   0.93386   0.00000  Uiso   1.00
H78    H     0.19566   0.55268   0.78177   0.00000  Uiso   1.00
H79    H     0.57933   0.55204   0.97388   0.00000  Uiso   1.00
H80    H     0.20587   0.73632   0.06104   0.00000  Uiso   1.00
H81    H     0.05966   0.51293   0.58932   0.00000  Uiso   1.00
H82    H     0.86864   0.51160   0.99443   0.00000  Uiso   1.00
H83    H     0.08112   0.90018   0.17823   0.00000  Uiso   1.00
O84    O     0.01418   0.59300   0.40735   0.00000  Uiso   1.00
O85    O     0.07552   0.59128   0.93885   0.00000  Uiso   1.00
O86    O     0.04232   0.10108   0.17998   0.00000  Uiso   1.00
N87    N     0.14046   0.70623   0.48998   0.00000  Uiso   1.00
N88    N     0.89680   0.70498   0.86872   0.00000  Uiso   1.00
N89    N     0.16057   0.06827   0.04057   0.00000  Uiso   1.00
N90    N     0.09651   0.57684   0.57458   0.00000  Uiso   1.00
N91    N     0.85285   0.57560   0.95332   0.00000  Uiso   1.00
N92    N     0.11663   0.93888   0.12517   0.00000  Uiso   1.00
