data_job_05512
_audit_creation_date              2018-12-19
_audit_creation_method            'Materials Studio'
_symmetry_space_group_name_H-M    'P1'
_symmetry_Int_Tables_number       1
_symmetry_cell_setting            triclinic
loop_
_symmetry_equiv_pos_as_xyz
  x,y,z
_cell_length_a                    10.2754
_cell_length_b                    29.3238
_cell_length_c                    14.5923
_cell_angle_alpha                 90.0000
_cell_angle_beta                  90.0000
_cell_angle_gamma                 90.0000
loop_
_atom_site_label
_atom_site_type_symbol
_atom_site_fract_x
_atom_site_fract_y
_atom_site_fract_z
_atom_site_U_iso_or_equiv
_atom_site_adp_type
_atom_site_occupancy
C1     C     0.77119   0.66740   0.42914   0.00000  Uiso   1.00
C2     C     0.88303   0.70037   0.41095   0.00000  Uiso   1.00
C3     C     0.88480   0.74633   0.43358   0.00000  Uiso   1.00
C4     C     0.99624   0.77066   0.41115   0.00000  Uiso   1.00
C5     C     0.15378   0.82503   0.38948   0.00000  Uiso   1.00
C6     C     0.73530   0.64702   0.33638   0.00000  Uiso   1.00
C7     C     0.61285   0.64813   0.29631   0.00000  Uiso   1.00
C8     C     0.59993   0.62755   0.21110   0.00000  Uiso   1.00
C9     C     0.52809   0.59908   0.07369   0.00000  Uiso   1.00
C10    C     0.82873   0.62842   0.48520   0.00000  Uiso   1.00
C11    C     0.78480   0.61388   0.57026   0.00000  Uiso   1.00
C12    C     0.85053   0.57763   0.61034   0.00000  Uiso   1.00
C13    C     0.92374   0.52028   0.70399   0.00000  Uiso   1.00
C14    C     0.96598   0.62888   0.34906   0.00000  Uiso   1.00
C15    C     0.98883   0.67944   0.36745   0.00000  Uiso   1.00
C16    C     0.10031   0.70371   0.34498   0.00000  Uiso   1.00
C17    C     0.10224   0.74970   0.36758   0.00000  Uiso   1.00
C18    C     0.84110   0.62610   0.29288   0.00000  Uiso   1.00
C19    C     0.82836   0.60551   0.20771   0.00000  Uiso   1.00
C20    C     0.70592   0.60659   0.16753   0.00000  Uiso   1.00
C21    C     0.93453   0.60750   0.44170   0.00000  Uiso   1.00
C22    C     0.00032   0.57127   0.48166   0.00000  Uiso   1.00
C23    C     0.95652   0.55667   0.56676   0.00000  Uiso   1.00
H24    H     0.68882   0.68369   0.46300   0.00000  Uiso   1.00
H25    H     0.80289   0.76251   0.46723   0.00000  Uiso   1.00
H26    H     0.53099   0.66432   0.32999   0.00000  Uiso   1.00
H27    H     0.70293   0.63008   0.60389   0.00000  Uiso   1.00
H28    H     0.97600   0.84067   0.45272   0.00000  Uiso   1.00
H29    H     0.40266   0.63362   0.16335   0.00000  Uiso   1.00
H30    H     0.76523   0.56142   0.74093   0.00000  Uiso   1.00
H31    H     0.04836   0.61259   0.31519   0.00000  Uiso   1.00
H32    H     0.18217   0.68751   0.31132   0.00000  Uiso   1.00
H33    H     0.91025   0.58932   0.17408   0.00000  Uiso   1.00
H34    H     0.08220   0.55508   0.44798   0.00000  Uiso   1.00
H35    H     0.28383   0.77980   0.32617   0.00000  Uiso   1.00
H36    H     0.71049   0.57275   0.03680   0.00000  Uiso   1.00
H37    H     0.07306   0.50055   0.61438   0.00000  Uiso   1.00
O38    O     0.21144   0.86080   0.38954   0.00000  Uiso   1.00
O39    O     0.45923   0.58916   0.00991   0.00000  Uiso   1.00
O40    O     0.93491   0.49443   0.76767   0.00000  Uiso   1.00
N41    N     0.03010   0.81606   0.42349   0.00000  Uiso   1.00
N42    N     0.49406   0.62249   0.15294   0.00000  Uiso   1.00
N43    N     0.83301   0.55498   0.69291   0.00000  Uiso   1.00
N44    N     0.19574   0.78331   0.35539   0.00000  Uiso   1.00
N45    N     0.65971   0.58974   0.08484   0.00000  Uiso   1.00
N46    N     0.99865   0.52222   0.62481   0.00000  Uiso   1.00
C47    C     0.72881   0.33260   0.42914   0.00000  Uiso   1.00
C48    C     0.61697   0.29963   0.41095   0.00000  Uiso   1.00
C49    C     0.61520   0.25367   0.43358   0.00000  Uiso   1.00
C50    C     0.50376   0.22934   0.41115   0.00000  Uiso   1.00
C51    C     0.34622   0.17497   0.38948   0.00000  Uiso   1.00
C52    C     0.76470   0.35298   0.33638   0.00000  Uiso   1.00
C53    C     0.88715   0.35187   0.29631   0.00000  Uiso   1.00
C54    C     0.90007   0.37245   0.21110   0.00000  Uiso   1.00
C55    C     0.97191   0.40092   0.07369   0.00000  Uiso   1.00
C56    C     0.67127   0.37158   0.48520   0.00000  Uiso   1.00
C57    C     0.71520   0.38612   0.57026   0.00000  Uiso   1.00
C58    C     0.64947   0.42237   0.61034   0.00000  Uiso   1.00
C59    C     0.57626   0.47972   0.70399   0.00000  Uiso   1.00
C60    C     0.53402   0.37112   0.34906   0.00000  Uiso   1.00
C61    C     0.51117   0.32056   0.36745   0.00000  Uiso   1.00
C62    C     0.39969   0.29629   0.34498   0.00000  Uiso   1.00
C63    C     0.39776   0.25030   0.36758   0.00000  Uiso   1.00
C64    C     0.65890   0.37390   0.29288   0.00000  Uiso   1.00
C65    C     0.67164   0.39449   0.20771   0.00000  Uiso   1.00
C66    C     0.79408   0.39341   0.16753   0.00000  Uiso   1.00
C67    C     0.56547   0.39250   0.44170   0.00000  Uiso   1.00
C68    C     0.49968   0.42873   0.48166   0.00000  Uiso   1.00
C69    C     0.54348   0.44333   0.56676   0.00000  Uiso   1.00
H70    H     0.81118   0.31631   0.46300   0.00000  Uiso   1.00
H71    H     0.69711   0.23749   0.46723   0.00000  Uiso   1.00
H72    H     0.96901   0.33568   0.32999   0.00000  Uiso   1.00
H73    H     0.79707   0.36992   0.60389   0.00000  Uiso   1.00
H74    H     0.52400   0.15933   0.45272   0.00000  Uiso   1.00
H75    H     0.09734   0.36638   0.16335   0.00000  Uiso   1.00
H76    H     0.73477   0.43858   0.74093   0.00000  Uiso   1.00
H77    H     0.45164   0.38741   0.31519   0.00000  Uiso   1.00
H78    H     0.31783   0.31249   0.31132   0.00000  Uiso   1.00
H79    H     0.58975   0.41068   0.17408   0.00000  Uiso   1.00
H80    H     0.41780   0.44492   0.44798   0.00000  Uiso   1.00
H81    H     0.21617   0.22020   0.32617   0.00000  Uiso   1.00
H82    H     0.78951   0.42725   0.03680   0.00000  Uiso   1.00
H83    H     0.42694   0.49945   0.61438   0.00000  Uiso   1.00
O84    O     0.28856   0.13920   0.38954   0.00000  Uiso   1.00
O85    O     0.04077   0.41084   0.00991   0.00000  Uiso   1.00
O86    O     0.56509   0.50557   0.76767   0.00000  Uiso   1.00
N87    N     0.46990   0.18394   0.42349   0.00000  Uiso   1.00
N88    N     0.00594   0.37751   0.15294   0.00000  Uiso   1.00
N89    N     0.66699   0.44502   0.69291   0.00000  Uiso   1.00
N90    N     0.30426   0.21669   0.35539   0.00000  Uiso   1.00
N91    N     0.84029   0.41026   0.08484   0.00000  Uiso   1.00
N92    N     0.50135   0.47778   0.62481   0.00000  Uiso   1.00
C93    C     0.72881   0.16740   0.07086   0.00000  Uiso   1.00
C94    C     0.61697   0.20037   0.08905   0.00000  Uiso   1.00
C95    C     0.61520   0.24633   0.06642   0.00000  Uiso   1.00
C96    C     0.50376   0.27066   0.08885   0.00000  Uiso   1.00
C97    C     0.34622   0.32503   0.11052   0.00000  Uiso   1.00
C98    C     0.76470   0.14702   0.16362   0.00000  Uiso   1.00
C99    C     0.88715   0.14813   0.20369   0.00000  Uiso   1.00
C100   C     0.90007   0.12755   0.28890   0.00000  Uiso   1.00
C101   C     0.97191   0.09908   0.42631   0.00000  Uiso   1.00
C102   C     0.67127   0.12842   0.01480   0.00000  Uiso   1.00
C103   C     0.71520   0.11388   0.92974   0.00000  Uiso   1.00
C104   C     0.64947   0.07763   0.88966   0.00000  Uiso   1.00
C105   C     0.57626   0.02028   0.79601   0.00000  Uiso   1.00
C106   C     0.53402   0.12888   0.15094   0.00000  Uiso   1.00
C107   C     0.51117   0.17944   0.13255   0.00000  Uiso   1.00
C108   C     0.39969   0.20371   0.15502   0.00000  Uiso   1.00
C109   C     0.39776   0.24970   0.13242   0.00000  Uiso   1.00
C110   C     0.65890   0.12610   0.20712   0.00000  Uiso   1.00
C111   C     0.67164   0.10551   0.29229   0.00000  Uiso   1.00
C112   C     0.79408   0.10659   0.33247   0.00000  Uiso   1.00
C113   C     0.56547   0.10750   0.05830   0.00000  Uiso   1.00
C114   C     0.49968   0.07127   0.01834   0.00000  Uiso   1.00
C115   C     0.54348   0.05667   0.93324   0.00000  Uiso   1.00
H116   H     0.81118   0.18369   0.03700   0.00000  Uiso   1.00
H117   H     0.69711   0.26251   0.03277   0.00000  Uiso   1.00
H118   H     0.96901   0.16432   0.17001   0.00000  Uiso   1.00
H119   H     0.79707   0.13008   0.89611   0.00000  Uiso   1.00
H120   H     0.52400   0.34067   0.04728   0.00000  Uiso   1.00
H121   H     0.09734   0.13362   0.33665   0.00000  Uiso   1.00
H122   H     0.73477   0.06142   0.75907   0.00000  Uiso   1.00
H123   H     0.45164   0.11259   0.18481   0.00000  Uiso   1.00
H124   H     0.31783   0.18751   0.18868   0.00000  Uiso   1.00
H125   H     0.58975   0.08932   0.32592   0.00000  Uiso   1.00
H126   H     0.41780   0.05508   0.05202   0.00000  Uiso   1.00
H127   H     0.21617   0.27980   0.17383   0.00000  Uiso   1.00
H128   H     0.78951   0.07275   0.46320   0.00000  Uiso   1.00
H129   H     0.42694   0.00055   0.88562   0.00000  Uiso   1.00
O130   O     0.28856   0.36080   0.11046   0.00000  Uiso   1.00
O131   O     0.04077   0.08916   0.49009   0.00000  Uiso   1.00
O132   O     0.56509   0.99443   0.73233   0.00000  Uiso   1.00
N133   N     0.46990   0.31606   0.07651   0.00000  Uiso   1.00
N134   N     0.00594   0.12249   0.34706   0.00000  Uiso   1.00
N135   N     0.66699   0.05498   0.80709   0.00000  Uiso   1.00
N136   N     0.30426   0.28331   0.14461   0.00000  Uiso   1.00
N137   N     0.84029   0.08974   0.41516   0.00000  Uiso   1.00
N138   N     0.50135   0.02222   0.87519   0.00000  Uiso   1.00
C139   C     0.77119   0.83260   0.07086   0.00000  Uiso   1.00
C140   C     0.88303   0.79963   0.08905   0.00000  Uiso   1.00
C141   C     0.88480   0.75367   0.06642   0.00000  Uiso   1.00
C142   C     0.99624   0.72934   0.08885   0.00000  Uiso   1.00
C143   C     0.15378   0.67497   0.11052   0.00000  Uiso   1.00
C144   C     0.73530   0.85298   0.16362   0.00000  Uiso   1.00
C145   C     0.61285   0.85187   0.20369   0.00000  Uiso   1.00
C146   C     0.59993   0.87245   0.28890   0.00000  Uiso   1.00
C147   C     0.52809   0.90092   0.42631   0.00000  Uiso   1.00
C148   C     0.82873   0.87158   0.01480   0.00000  Uiso   1.00
C149   C     0.78480   0.88612   0.92974   0.00000  Uiso   1.00
C150   C     0.85053   0.92237   0.88966   0.00000  Uiso   1.00
C151   C     0.92374   0.97972   0.79601   0.00000  Uiso   1.00
C152   C     0.96598   0.87112   0.15094   0.00000  Uiso   1.00
C153   C     0.98883   0.82056   0.13255   0.00000  Uiso   1.00
C154   C     0.10031   0.79629   0.15502   0.00000  Uiso   1.00
C155   C     0.10224   0.75030   0.13242   0.00000  Uiso   1.00
C156   C     0.84110   0.87390   0.20712   0.00000  Uiso   1.00
C157   C     0.82836   0.89449   0.29229   0.00000  Uiso   1.00
C158   C     0.70592   0.89341   0.33247   0.00000  Uiso   1.00
C159   C     0.93453   0.89250   0.05830   0.00000  Uiso   1.00
C160   C     0.00032   0.92873   0.01834   0.00000  Uiso   1.00
C161   C     0.95652   0.94333   0.93324   0.00000  Uiso   1.00
H162   H     0.68882   0.81631   0.03700   0.00000  Uiso   1.00
H163   H     0.80289   0.73749   0.03277   0.00000  Uiso   1.00
H164   H     0.53099   0.83568   0.17001   0.00000  Uiso   1.00
H165   H     0.70293   0.86992   0.89611   0.00000  Uiso   1.00
H166   H     0.97600   0.65933   0.04728   0.00000  Uiso   1.00
H167   H     0.40266   0.86638   0.33665   0.00000  Uiso   1.00
H168   H     0.76523   0.93858   0.75907   0.00000  Uiso   1.00
H169   H     0.04836   0.88741   0.18481   0.00000  Uiso   1.00
H170   H     0.18217   0.81249   0.18868   0.00000  Uiso   1.00
H171   H     0.91025   0.91068   0.32592   0.00000  Uiso   1.00
H172   H     0.08220   0.94492   0.05202   0.00000  Uiso   1.00
H173   H     0.28383   0.72020   0.17383   0.00000  Uiso   1.00
H174   H     0.71049   0.92725   0.46320   0.00000  Uiso   1.00
H175   H     0.07306   0.99945   0.88562   0.00000  Uiso   1.00
O176   O     0.21144   0.63920   0.11046   0.00000  Uiso   1.00
O177   O     0.45923   0.91084   0.49009   0.00000  Uiso   1.00
O178   O     0.93491   0.00557   0.73233   0.00000  Uiso   1.00
N179   N     0.03010   0.68394   0.07651   0.00000  Uiso   1.00
N180   N     0.49406   0.87751   0.34706   0.00000  Uiso   1.00
N181   N     0.83301   0.94502   0.80709   0.00000  Uiso   1.00
N182   N     0.19574   0.71669   0.14461   0.00000  Uiso   1.00
N183   N     0.65971   0.91026   0.41516   0.00000  Uiso   1.00
N184   N     0.99865   0.97778   0.87519   0.00000  Uiso   1.00
C185   C     0.22881   0.33260   0.57086   0.00000  Uiso   1.00
C186   C     0.11697   0.29963   0.58905   0.00000  Uiso   1.00
C187   C     0.11520   0.25367   0.56642   0.00000  Uiso   1.00
C188   C     0.00376   0.22934   0.58885   0.00000  Uiso   1.00
C189   C     0.84622   0.17497   0.61052   0.00000  Uiso   1.00
C190   C     0.26470   0.35298   0.66362   0.00000  Uiso   1.00
C191   C     0.38715   0.35187   0.70369   0.00000  Uiso   1.00
C192   C     0.40007   0.37245   0.78890   0.00000  Uiso   1.00
C193   C     0.47191   0.40092   0.92631   0.00000  Uiso   1.00
C194   C     0.17127   0.37158   0.51480   0.00000  Uiso   1.00
C195   C     0.21520   0.38612   0.42974   0.00000  Uiso   1.00
C196   C     0.14947   0.42237   0.38966   0.00000  Uiso   1.00
C197   C     0.07626   0.47972   0.29601   0.00000  Uiso   1.00
C198   C     0.03402   0.37112   0.65094   0.00000  Uiso   1.00
C199   C     0.01117   0.32056   0.63255   0.00000  Uiso   1.00
C200   C     0.89969   0.29629   0.65502   0.00000  Uiso   1.00
C201   C     0.89776   0.25030   0.63242   0.00000  Uiso   1.00
C202   C     0.15890   0.37390   0.70712   0.00000  Uiso   1.00
C203   C     0.17164   0.39449   0.79229   0.00000  Uiso   1.00
C204   C     0.29408   0.39341   0.83247   0.00000  Uiso   1.00
C205   C     0.06547   0.39250   0.55830   0.00000  Uiso   1.00
C206   C     0.99968   0.42873   0.51834   0.00000  Uiso   1.00
C207   C     0.04348   0.44333   0.43324   0.00000  Uiso   1.00
H208   H     0.31118   0.31631   0.53700   0.00000  Uiso   1.00
H209   H     0.19711   0.23749   0.53277   0.00000  Uiso   1.00
H210   H     0.46901   0.33568   0.67001   0.00000  Uiso   1.00
H211   H     0.29707   0.36992   0.39611   0.00000  Uiso   1.00
H212   H     0.02400   0.15933   0.54728   0.00000  Uiso   1.00
H213   H     0.59734   0.36638   0.83665   0.00000  Uiso   1.00
H214   H     0.23477   0.43858   0.25907   0.00000  Uiso   1.00
H215   H     0.95164   0.38741   0.68481   0.00000  Uiso   1.00
H216   H     0.81783   0.31249   0.68868   0.00000  Uiso   1.00
H217   H     0.08975   0.41068   0.82592   0.00000  Uiso   1.00
H218   H     0.91780   0.44492   0.55202   0.00000  Uiso   1.00
H219   H     0.71617   0.22020   0.67383   0.00000  Uiso   1.00
H220   H     0.28951   0.42725   0.96320   0.00000  Uiso   1.00
H221   H     0.92694   0.49945   0.38562   0.00000  Uiso   1.00
O222   O     0.78856   0.13920   0.61046   0.00000  Uiso   1.00
O223   O     0.54077   0.41084   0.99009   0.00000  Uiso   1.00
O224   O     0.06509   0.50557   0.23233   0.00000  Uiso   1.00
N225   N     0.96990   0.18394   0.57651   0.00000  Uiso   1.00
N226   N     0.50594   0.37751   0.84706   0.00000  Uiso   1.00
N227   N     0.16699   0.44502   0.30709   0.00000  Uiso   1.00
N228   N     0.80426   0.21669   0.64461   0.00000  Uiso   1.00
N229   N     0.34029   0.41026   0.91516   0.00000  Uiso   1.00
N230   N     0.00135   0.47778   0.37519   0.00000  Uiso   1.00
C231   C     0.27119   0.66740   0.57086   0.00000  Uiso   1.00
C232   C     0.38303   0.70037   0.58905   0.00000  Uiso   1.00
C233   C     0.38480   0.74633   0.56642   0.00000  Uiso   1.00
C234   C     0.49624   0.77066   0.58885   0.00000  Uiso   1.00
C235   C     0.65378   0.82503   0.61052   0.00000  Uiso   1.00
C236   C     0.23530   0.64702   0.66362   0.00000  Uiso   1.00
C237   C     0.11285   0.64813   0.70369   0.00000  Uiso   1.00
C238   C     0.09993   0.62755   0.78890   0.00000  Uiso   1.00
C239   C     0.02809   0.59908   0.92631   0.00000  Uiso   1.00
C240   C     0.32873   0.62842   0.51480   0.00000  Uiso   1.00
C241   C     0.28480   0.61388   0.42974   0.00000  Uiso   1.00
C242   C     0.35053   0.57763   0.38966   0.00000  Uiso   1.00
C243   C     0.42374   0.52028   0.29601   0.00000  Uiso   1.00
C244   C     0.46598   0.62888   0.65094   0.00000  Uiso   1.00
C245   C     0.48883   0.67944   0.63255   0.00000  Uiso   1.00
C246   C     0.60031   0.70371   0.65502   0.00000  Uiso   1.00
C247   C     0.60224   0.74970   0.63242   0.00000  Uiso   1.00
C248   C     0.34110   0.62610   0.70712   0.00000  Uiso   1.00
C249   C     0.32836   0.60551   0.79229   0.00000  Uiso   1.00
C250   C     0.20592   0.60659   0.83247   0.00000  Uiso   1.00
C251   C     0.43453   0.60750   0.55830   0.00000  Uiso   1.00
C252   C     0.50032   0.57127   0.51834   0.00000  Uiso   1.00
C253   C     0.45652   0.55667   0.43324   0.00000  Uiso   1.00
H254   H     0.18882   0.68369   0.53700   0.00000  Uiso   1.00
H255   H     0.30289   0.76251   0.53277   0.00000  Uiso   1.00
H256   H     0.03099   0.66432   0.67001   0.00000  Uiso   1.00
H257   H     0.20293   0.63008   0.39611   0.00000  Uiso   1.00
H258   H     0.47600   0.84067   0.54728   0.00000  Uiso   1.00
H259   H     0.90266   0.63362   0.83665   0.00000  Uiso   1.00
H260   H     0.26523   0.56142   0.25907   0.00000  Uiso   1.00
H261   H     0.54836   0.61259   0.68481   0.00000  Uiso   1.00
H262   H     0.68217   0.68751   0.68868   0.00000  Uiso   1.00
H263   H     0.41025   0.58932   0.82592   0.00000  Uiso   1.00
H264   H     0.58220   0.55508   0.55202   0.00000  Uiso   1.00
H265   H     0.78383   0.77980   0.67383   0.00000  Uiso   1.00
H266   H     0.21049   0.57275   0.96320   0.00000  Uiso   1.00
H267   H     0.57306   0.50055   0.38562   0.00000  Uiso   1.00
O268   O     0.71144   0.86080   0.61046   0.00000  Uiso   1.00
O269   O     0.95923   0.58916   0.99009   0.00000  Uiso   1.00
O270   O     0.43491   0.49443   0.23233   0.00000  Uiso   1.00
N271   N     0.53010   0.81606   0.57651   0.00000  Uiso   1.00
N272   N     0.99406   0.62249   0.84706   0.00000  Uiso   1.00
N273   N     0.33301   0.55498   0.30709   0.00000  Uiso   1.00
N274   N     0.69574   0.78331   0.64461   0.00000  Uiso   1.00
N275   N     0.15971   0.58974   0.91516   0.00000  Uiso   1.00
N276   N     0.49865   0.52222   0.37519   0.00000  Uiso   1.00
C277   C     0.27119   0.83260   0.92914   0.00000  Uiso   1.00
C278   C     0.38303   0.79963   0.91095   0.00000  Uiso   1.00
C279   C     0.38480   0.75367   0.93358   0.00000  Uiso   1.00
C280   C     0.49624   0.72934   0.91115   0.00000  Uiso   1.00
C281   C     0.65378   0.67497   0.88948   0.00000  Uiso   1.00
C282   C     0.23530   0.85298   0.83638   0.00000  Uiso   1.00
C283   C     0.11285   0.85187   0.79631   0.00000  Uiso   1.00
C284   C     0.09993   0.87245   0.71110   0.00000  Uiso   1.00
C285   C     0.02809   0.90092   0.57369   0.00000  Uiso   1.00
C286   C     0.32873   0.87158   0.98520   0.00000  Uiso   1.00
C287   C     0.28480   0.88612   0.07026   0.00000  Uiso   1.00
C288   C     0.35053   0.92237   0.11034   0.00000  Uiso   1.00
C289   C     0.42374   0.97972   0.20399   0.00000  Uiso   1.00
C290   C     0.46598   0.87112   0.84906   0.00000  Uiso   1.00
C291   C     0.48883   0.82056   0.86745   0.00000  Uiso   1.00
C292   C     0.60031   0.79629   0.84498   0.00000  Uiso   1.00
C293   C     0.60224   0.75030   0.86758   0.00000  Uiso   1.00
C294   C     0.34110   0.87390   0.79288   0.00000  Uiso   1.00
C295   C     0.32836   0.89449   0.70771   0.00000  Uiso   1.00
C296   C     0.20592   0.89341   0.66753   0.00000  Uiso   1.00
C297   C     0.43453   0.89250   0.94170   0.00000  Uiso   1.00
C298   C     0.50032   0.92873   0.98166   0.00000  Uiso   1.00
C299   C     0.45652   0.94333   0.06676   0.00000  Uiso   1.00
H300   H     0.18882   0.81631   0.96300   0.00000  Uiso   1.00
H301   H     0.30289   0.73749   0.96723   0.00000  Uiso   1.00
H302   H     0.03099   0.83568   0.82999   0.00000  Uiso   1.00
H303   H     0.20293   0.86992   0.10389   0.00000  Uiso   1.00
H304   H     0.47600   0.65933   0.95272   0.00000  Uiso   1.00
H305   H     0.90266   0.86638   0.66335   0.00000  Uiso   1.00
H306   H     0.26523   0.93858   0.24093   0.00000  Uiso   1.00
H307   H     0.54836   0.88741   0.81519   0.00000  Uiso   1.00
H308   H     0.68217   0.81249   0.81132   0.00000  Uiso   1.00
H309   H     0.41025   0.91068   0.67408   0.00000  Uiso   1.00
H310   H     0.58220   0.94492   0.94798   0.00000  Uiso   1.00
H311   H     0.78383   0.72020   0.82617   0.00000  Uiso   1.00
H312   H     0.21049   0.92725   0.53680   0.00000  Uiso   1.00
H313   H     0.57306   0.99945   0.11438   0.00000  Uiso   1.00
O314   O     0.71144   0.63920   0.88954   0.00000  Uiso   1.00
O315   O     0.95923   0.91084   0.50991   0.00000  Uiso   1.00
O316   O     0.43491   0.00557   0.26767   0.00000  Uiso   1.00
N317   N     0.53010   0.68394   0.92349   0.00000  Uiso   1.00
N318   N     0.99406   0.87751   0.65294   0.00000  Uiso   1.00
N319   N     0.33301   0.94502   0.19291   0.00000  Uiso   1.00
N320   N     0.69574   0.71669   0.85539   0.00000  Uiso   1.00
N321   N     0.15971   0.91026   0.58484   0.00000  Uiso   1.00
N322   N     0.49865   0.97778   0.12481   0.00000  Uiso   1.00
C323   C     0.22881   0.16740   0.92914   0.00000  Uiso   1.00
C324   C     0.11697   0.20037   0.91095   0.00000  Uiso   1.00
C325   C     0.11520   0.24633   0.93358   0.00000  Uiso   1.00
C326   C     0.00376   0.27066   0.91115   0.00000  Uiso   1.00
C327   C     0.84622   0.32503   0.88948   0.00000  Uiso   1.00
C328   C     0.26470   0.14702   0.83638   0.00000  Uiso   1.00
C329   C     0.38715   0.14813   0.79631   0.00000  Uiso   1.00
C330   C     0.40007   0.12755   0.71110   0.00000  Uiso   1.00
C331   C     0.47191   0.09908   0.57369   0.00000  Uiso   1.00
C332   C     0.17127   0.12842   0.98520   0.00000  Uiso   1.00
C333   C     0.21520   0.11388   0.07026   0.00000  Uiso   1.00
C334   C     0.14947   0.07763   0.11034   0.00000  Uiso   1.00
C335   C     0.07626   0.02028   0.20399   0.00000  Uiso   1.00
C336   C     0.03402   0.12888   0.84906   0.00000  Uiso   1.00
C337   C     0.01117   0.17944   0.86745   0.00000  Uiso   1.00
C338   C     0.89969   0.20371   0.84498   0.00000  Uiso   1.00
C339   C     0.89776   0.24970   0.86758   0.00000  Uiso   1.00
C340   C     0.15890   0.12610   0.79288   0.00000  Uiso   1.00
C341   C     0.17164   0.10551   0.70771   0.00000  Uiso   1.00
C342   C     0.29408   0.10659   0.66753   0.00000  Uiso   1.00
C343   C     0.06547   0.10750   0.94170   0.00000  Uiso   1.00
C344   C     0.99968   0.07127   0.98166   0.00000  Uiso   1.00
C345   C     0.04348   0.05667   0.06676   0.00000  Uiso   1.00
H346   H     0.31118   0.18369   0.96300   0.00000  Uiso   1.00
H347   H     0.19711   0.26251   0.96723   0.00000  Uiso   1.00
H348   H     0.46901   0.16432   0.82999   0.00000  Uiso   1.00
H349   H     0.29707   0.13008   0.10389   0.00000  Uiso   1.00
H350   H     0.02400   0.34067   0.95272   0.00000  Uiso   1.00
H351   H     0.59734   0.13362   0.66335   0.00000  Uiso   1.00
H352   H     0.23477   0.06142   0.24093   0.00000  Uiso   1.00
H353   H     0.95164   0.11259   0.81519   0.00000  Uiso   1.00
H354   H     0.81783   0.18751   0.81132   0.00000  Uiso   1.00
H355   H     0.08975   0.08932   0.67408   0.00000  Uiso   1.00
H356   H     0.91780   0.05508   0.94798   0.00000  Uiso   1.00
H357   H     0.71617   0.27980   0.82617   0.00000  Uiso   1.00
H358   H     0.28951   0.07275   0.53680   0.00000  Uiso   1.00
H359   H     0.92694   0.00055   0.11438   0.00000  Uiso   1.00
O360   O     0.78856   0.36080   0.88954   0.00000  Uiso   1.00
O361   O     0.54077   0.08916   0.50991   0.00000  Uiso   1.00
O362   O     0.06509   0.99443   0.26767   0.00000  Uiso   1.00
N363   N     0.96990   0.31606   0.92349   0.00000  Uiso   1.00
N364   N     0.50594   0.12249   0.65294   0.00000  Uiso   1.00
N365   N     0.16699   0.05498   0.19291   0.00000  Uiso   1.00
N366   N     0.80426   0.28331   0.85539   0.00000  Uiso   1.00
N367   N     0.34029   0.08974   0.58484   0.00000  Uiso   1.00
N368   N     0.00135   0.02222   0.12481   0.00000  Uiso   1.00
