data_job_06556
_audit_creation_date              2018-12-19
_audit_creation_method            'Materials Studio'
_symmetry_space_group_name_H-M    'P1'
_symmetry_Int_Tables_number       1
_symmetry_cell_setting            triclinic
loop_
_symmetry_equiv_pos_as_xyz
  x,y,z
_cell_length_a                    23.2546
_cell_length_b                    19.3547
_cell_length_c                    17.5714
_cell_angle_alpha                 95.7261
_cell_angle_beta                  83.0262
_cell_angle_gamma                 68.3605
loop_
_atom_site_label
_atom_site_type_symbol
_atom_site_fract_x
_atom_site_fract_y
_atom_site_fract_z
_atom_site_U_iso_or_equiv
_atom_site_adp_type
_atom_site_occupancy
C1     C     0.27399   0.43107   0.34713   0.00000  Uiso   1.00
C2     C     0.30272   0.48053   0.38781   0.00000  Uiso   1.00
C3     C     0.34310   0.45960   0.44096   0.00000  Uiso   1.00
C4     C     0.36424   0.51296   0.47168   0.00000  Uiso   1.00
C5     C     0.41167   0.57887   0.53819   0.00000  Uiso   1.00
C6     C     0.20308   0.47461   0.36584   0.00000  Uiso   1.00
C7     C     0.15968   0.44869   0.40051   0.00000  Uiso   1.00
C8     C     0.09694   0.49708   0.41272   0.00000  Uiso   1.00
C9     C     0.98967   0.55378   0.44507   0.00000  Uiso   1.00
C10    C     0.29268   0.42852   0.26034   0.00000  Uiso   1.00
C11    C     0.32460   0.36385   0.20628   0.00000  Uiso   1.00
C12    C     0.33728   0.37343   0.12966   0.00000  Uiso   1.00
C13    C     0.36912   0.35857   0.99819   0.00000  Uiso   1.00
C14    C     0.23973   0.56307   0.30716   0.00000  Uiso   1.00
C15    C     0.28411   0.55223   0.36611   0.00000  Uiso   1.00
C16    C     0.30520   0.60564   0.39675   0.00000  Uiso   1.00
C17    C     0.34561   0.58479   0.44993   0.00000  Uiso   1.00
C18    C     0.18447   0.54630   0.34414   0.00000  Uiso   1.00
C19    C     0.12178   0.59474   0.35629   0.00000  Uiso   1.00
C20    C     0.07830   0.56890   0.39098   0.00000  Uiso   1.00
C21    C     0.27407   0.50022   0.23863   0.00000  Uiso   1.00
C22    C     0.28670   0.50990   0.16207   0.00000  Uiso   1.00
C23    C     0.31864   0.44526   0.10791   0.00000  Uiso   1.00
H24    H     0.28847   0.37525   0.36403   0.00000  Uiso   1.00
H25    H     0.35748   0.40411   0.45775   0.00000  Uiso   1.00
H26    H     0.17409   0.39321   0.41730   0.00000  Uiso   1.00
H27    H     0.33899   0.30838   0.22310   0.00000  Uiso   1.00
H28    H     0.42578   0.46773   0.55211   0.00000  Uiso   1.00
H29    H     0.03909   0.44473   0.46679   0.00000  Uiso   1.00
H30    H     0.38680   0.26586   0.05729   0.00000  Uiso   1.00
H31    H     0.22524   0.61889   0.29026   0.00000  Uiso   1.00
H32    H     0.29079   0.66112   0.37994   0.00000  Uiso   1.00
H33    H     0.10740   0.65021   0.33949   0.00000  Uiso   1.00
H34    H     0.27230   0.56539   0.14529   0.00000  Uiso   1.00
H35    H     0.37165   0.67633   0.48896   0.00000  Uiso   1.00
H36    H     0.98496   0.65333   0.40363   0.00000  Uiso   1.00
H37    H     0.33267   0.47446   0.99414   0.00000  Uiso   1.00
O38    O     0.44296   0.59542   0.58088   0.00000  Uiso   1.00
O39    O     0.93564   0.56524   0.46892   0.00000  Uiso   1.00
O40    O     0.39183   0.33057   0.93168   0.00000  Uiso   1.00
N41    N     0.40405   0.51102   0.52493   0.00000  Uiso   1.00
N42    N     0.04252   0.48953   0.44517   0.00000  Uiso   1.00
N43    N     0.36759   0.32229   0.06232   0.00000  Uiso   1.00
N44    N     0.37493   0.62327   0.49095   0.00000  Uiso   1.00
N45    N     0.01340   0.60177   0.41119   0.00000  Uiso   1.00
N46    N     0.33846   0.43454   0.02834   0.00000  Uiso   1.00
C47    C     0.34179   0.15060   0.44759   0.00000  Uiso   1.00
C48    C     0.33967   0.19749   0.52375   0.00000  Uiso   1.00
C49    C     0.38360   0.22736   0.53941   0.00000  Uiso   1.00
C50    C     0.37324   0.26861   0.61260   0.00000  Uiso   1.00
C51    C     0.37793   0.33972   0.72244   0.00000  Uiso   1.00
C52    C     0.33970   0.07689   0.46857   0.00000  Uiso   1.00
C53    C     0.38366   0.00537   0.43781   0.00000  Uiso   1.00
C54    C     0.37333   0.94509   0.46454   0.00000  Uiso   1.00
C55    C     0.37805   0.82896   0.48865   0.00000  Uiso   1.00
C56    C     0.27987   0.19122   0.42046   0.00000  Uiso   1.00
C57    C     0.27352   0.21581   0.34924   0.00000  Uiso   1.00
C58    C     0.21282   0.25178   0.33546   0.00000  Uiso   1.00
C59    C     0.12465   0.31317   0.28488   0.00000  Uiso   1.00
C60    C     0.24528   0.17073   0.54974   0.00000  Uiso   1.00
C61    C     0.28725   0.20842   0.57924   0.00000  Uiso   1.00
C62    C     0.27682   0.24964   0.65242   0.00000  Uiso   1.00
C63    C     0.32073   0.27957   0.66819   0.00000  Uiso   1.00
C64    C     0.28729   0.08782   0.52405   0.00000  Uiso   1.00
C65    C     0.27689   0.02764   0.55083   0.00000  Uiso   1.00
C66    C     0.32082   0.95605   0.52012   0.00000  Uiso   1.00
C67    C     0.22745   0.20215   0.47594   0.00000  Uiso   1.00
C68    C     0.16675   0.23809   0.46226   0.00000  Uiso   1.00
C69    C     0.16031   0.26273   0.39105   0.00000  Uiso   1.00
H70    H     0.38260   0.14208   0.40440   0.00000  Uiso   1.00
H71    H     0.42416   0.21888   0.49646   0.00000  Uiso   1.00
H72    H     0.42422   0.99692   0.39487   0.00000  Uiso   1.00
H73    H     0.31410   0.20734   0.30632   0.00000  Uiso   1.00
H74    H     0.44713   0.30883   0.62301   0.00000  Uiso   1.00
H75    H     0.44724   0.84081   0.40878   0.00000  Uiso   1.00
H76    H     0.21503   0.28451   0.22206   0.00000  Uiso   1.00
H77    H     0.20447   0.17924   0.59294   0.00000  Uiso   1.00
H78    H     0.23625   0.25809   0.69535   0.00000  Uiso   1.00
H79    H     0.23631   0.03612   0.59376   0.00000  Uiso   1.00
H80    H     0.12619   0.24654   0.50521   0.00000  Uiso   1.00
H81    H     0.29462   0.34064   0.78443   0.00000  Uiso   1.00
H82    H     0.29473   0.87262   0.57021   0.00000  Uiso   1.00
H83    H     0.06252   0.31633   0.38349   0.00000  Uiso   1.00
O84    O     0.39501   0.37591   0.76770   0.00000  Uiso   1.00
O85    O     0.39515   0.76189   0.48663   0.00000  Uiso   1.00
O86    O     0.09050   0.34401   0.24166   0.00000  Uiso   1.00
N87    N     0.40687   0.30551   0.64694   0.00000  Uiso   1.00
N88    N     0.40698   0.86794   0.44666   0.00000  Uiso   1.00
N89    N     0.18988   0.28274   0.27208   0.00000  Uiso   1.00
N90    N     0.32480   0.32263   0.73380   0.00000  Uiso   1.00
N91    N     0.32491   0.88506   0.53352   0.00000  Uiso   1.00
N92    N     0.10782   0.29986   0.35894   0.00000  Uiso   1.00
C93    C     0.51768   0.29832   0.22563   0.00000  Uiso   1.00
C94    C     0.55058   0.34053   0.26949   0.00000  Uiso   1.00
C95    C     0.52120   0.40890   0.31866   0.00000  Uiso   1.00
C96    C     0.55959   0.43829   0.35327   0.00000  Uiso   1.00
C97    C     0.60073   0.50959   0.42348   0.00000  Uiso   1.00
C98    C     0.54606   0.28655   0.14012   0.00000  Uiso   1.00
C99    C     0.51288   0.30952   0.08051   0.00000  Uiso   1.00
C100   C     0.54747   0.29345   0.00621   0.00000  Uiso   1.00
C101   C     0.58159   0.28090   0.87556   0.00000  Uiso   1.00
C102   C     0.53892   0.22032   0.24949   0.00000  Uiso   1.00
C103   C     0.49974   0.18759   0.28182   0.00000  Uiso   1.00
C104   C     0.52832   0.11575   0.29958   0.00000  Uiso   1.00
C105   C     0.55135   0.00036   0.33875   0.00000  Uiso   1.00
C106   C     0.63810   0.22893   0.19966   0.00000  Uiso   1.00
C107   C     0.61599   0.30284   0.25538   0.00000  Uiso   1.00
C108   C     0.65444   0.33213   0.28993   0.00000  Uiso   1.00
C109   C     0.62512   0.40053   0.33914   0.00000  Uiso   1.00
C110   C     0.61147   0.24886   0.12601   0.00000  Uiso   1.00
C111   C     0.64612   0.23275   0.05178   0.00000  Uiso   1.00
C112   C     0.61300   0.25570   0.99208   0.00000  Uiso   1.00
C113   C     0.60433   0.18263   0.23538   0.00000  Uiso   1.00
C114   C     0.63297   0.11082   0.25309   0.00000  Uiso   1.00
C115   C     0.59384   0.07799   0.28545   0.00000  Uiso   1.00
H116   H     0.46676   0.32766   0.23661   0.00000  Uiso   1.00
H117   H     0.47058   0.43806   0.32955   0.00000  Uiso   1.00
H118   H     0.46227   0.33868   0.09144   0.00000  Uiso   1.00
H119   H     0.44912   0.21678   0.29273   0.00000  Uiso   1.00
H120   H     0.50367   0.54384   0.42636   0.00000  Uiso   1.00
H121   H     0.48613   0.33429   0.92428   0.00000  Uiso   1.00
H122   H     0.45842   0.07722   0.34873   0.00000  Uiso   1.00
H123   H     0.68903   0.19958   0.18868   0.00000  Uiso   1.00
H124   H     0.70505   0.30295   0.27900   0.00000  Uiso   1.00
H125   H     0.69673   0.20358   0.04089   0.00000  Uiso   1.00
H126   H     0.68359   0.08167   0.24217   0.00000  Uiso   1.00
H127   H     0.69398   0.43418   0.38532   0.00000  Uiso   1.00
H128   H     0.67643   0.22463   0.88325   0.00000  Uiso   1.00
H129   H     0.64872   0.96756   0.30769   0.00000  Uiso   1.00
O130   O     0.60536   0.55933   0.46610   0.00000  Uiso   1.00
O131   O     0.58234   0.28440   0.80740   0.00000  Uiso   1.00
O132   O     0.54598   0.94713   0.36426   0.00000  Uiso   1.00
N133   N     0.54626   0.50384   0.40432   0.00000  Uiso   1.00
N134   N     0.52986   0.30793   0.93491   0.00000  Uiso   1.00
N135   N     0.50395   0.06758   0.33171   0.00000  Uiso   1.00
N136   N     0.64866   0.44483   0.38224   0.00000  Uiso   1.00
N137   N     0.63226   0.24893   0.91283   0.00000  Uiso   1.00
N138   N     0.60635   0.00858   0.30963   0.00000  Uiso   1.00
C139   C     0.81416   0.72497   0.90314   0.00000  Uiso   1.00
C140   C     0.85103   0.76030   0.94843   0.00000  Uiso   1.00
C141   C     0.89258   0.79024   0.91676   0.00000  Uiso   1.00
C142   C     0.92163   0.81995   0.96797   0.00000  Uiso   1.00
C143   C     0.98070   0.87488   0.02613   0.00000  Uiso   1.00
C144   C     0.74519   0.76844   0.93856   0.00000  Uiso   1.00
C145   C     0.69775   0.80523   0.89858   0.00000  Uiso   1.00
C146   C     0.63771   0.84179   0.94148   0.00000  Uiso   1.00
C147   C     0.53245   0.90931   0.98430   0.00000  Uiso   1.00
C148   C     0.83099   0.64584   0.92335   0.00000  Uiso   1.00
C149   C     0.85567   0.57953   0.87059   0.00000  Uiso   1.00
C150   C     0.86784   0.51287   0.90068   0.00000  Uiso   1.00
C151   C     0.89579   0.39003   0.91990   0.00000  Uiso   1.00
C152   C     0.79188   0.72448   0.05041   0.00000  Uiso   1.00
C153   C     0.83893   0.76003   0.02842   0.00000  Uiso   1.00
C154   C     0.86793   0.78970   0.07969   0.00000  Uiso   1.00
C155   C     0.90951   0.81968   0.04810   0.00000  Uiso   1.00
C156   C     0.73309   0.76818   0.01855   0.00000  Uiso   1.00
C157   C     0.67310   0.80468   0.06151   0.00000  Uiso   1.00
C158   C     0.62559   0.84152   0.02161   0.00000  Uiso   1.00
C159   C     0.81889   0.64557   0.00334   0.00000  Uiso   1.00
C160   C     0.83102   0.57899   0.03352   0.00000  Uiso   1.00
C161   C     0.85572   0.51260   0.98082   0.00000  Uiso   1.00
H162   H     0.82358   0.72518   0.84087   0.00000  Uiso   1.00
H163   H     0.90193   0.79045   0.85485   0.00000  Uiso   1.00
H164   H     0.70713   0.80542   0.83668   0.00000  Uiso   1.00
H165   H     0.86503   0.57976   0.80869   0.00000  Uiso   1.00
H166   H     0.98343   0.86271   0.90564   0.00000  Uiso   1.00
H167   H     0.57270   0.89426   0.86731   0.00000  Uiso   1.00
H168   H     0.90564   0.41842   0.80830   0.00000  Uiso   1.00
H169   H     0.78246   0.72427   0.11269   0.00000  Uiso   1.00
H170   H     0.85855   0.78949   0.14159   0.00000  Uiso   1.00
H171   H     0.66375   0.80446   0.12341   0.00000  Uiso   1.00
H172   H     0.82165   0.57881   0.09543   0.00000  Uiso   1.00
H173   H     0.94822   0.86194   0.13836   0.00000  Uiso   1.00
H174   H     0.53749   0.89349   0.10003   0.00000  Uiso   1.00
H175   H     0.87043   0.41764   0.04102   0.00000  Uiso   1.00
O176   O     0.01661   0.90527   0.03611   0.00000  Uiso   1.00
O177   O     0.47774   0.94664   0.98582   0.00000  Uiso   1.00
O178   O     0.91456   0.32235   0.90840   0.00000  Uiso   1.00
N179   N     0.96471   0.85357   0.95644   0.00000  Uiso   1.00
N180   N     0.58070   0.88307   0.92061   0.00000  Uiso   1.00
N181   N     0.89196   0.43820   0.86543   0.00000  Uiso   1.00
N182   N     0.94577   0.85315   0.08167   0.00000  Uiso   1.00
N183   N     0.56176   0.88266   0.04584   0.00000  Uiso   1.00
N184   N     0.87302   0.43778   0.99066   0.00000  Uiso   1.00
C185   C     0.85844   0.02408   0.60137   0.00000  Uiso   1.00
C186   C     0.88248   0.06562   0.65998   0.00000  Uiso   1.00
C187   C     0.94149   0.03801   0.68096   0.00000  Uiso   1.00
C188   C     0.95446   0.08470   0.73561   0.00000  Uiso   1.00
C189   C     0.99856   0.13830   0.82166   0.00000  Uiso   1.00
C190   C     0.83845   0.07526   0.54069   0.00000  Uiso   1.00
C191   C     0.86043   0.05576   0.46137   0.00000  Uiso   1.00
C192   C     0.83632   0.11057   0.41559   0.00000  Uiso   1.00
C193   C     0.81203   0.17912   0.31644   0.00000  Uiso   1.00
C194   C     0.79827   0.02184   0.64436   0.00000  Uiso   1.00
C195   C     0.78646   0.95743   0.65218   0.00000  Uiso   1.00
C196   C     0.72852   0.96726   0.69367   0.00000  Uiso   1.00
C197   C     0.64185   0.95287   0.75547   0.00000  Uiso   1.00
C198   C     0.77653   0.15609   0.66111   0.00000  Uiso   1.00
C199   C     0.83799   0.13731   0.69243   0.00000  Uiso   1.00
C200   C     0.85087   0.18406   0.74706   0.00000  Uiso   1.00
C201   C     0.90989   0.15653   0.76812   0.00000  Uiso   1.00
C202   C     0.79396   0.14696   0.57314   0.00000  Uiso   1.00
C203   C     0.76981   0.20181   0.52747   0.00000  Uiso   1.00
C204   C     0.79175   0.18240   0.44810   0.00000  Uiso   1.00
C205   C     0.75378   0.09354   0.67681   0.00000  Uiso   1.00
C206   C     0.69584   0.10347   0.71829   0.00000  Uiso   1.00
C207   C     0.68395   0.03909   0.72618   0.00000  Uiso   1.00
H208   H     0.89308   0.96827   0.57610   0.00000  Uiso   1.00
H209   H     0.97591   0.98253   0.65583   0.00000  Uiso   1.00
H210   H     0.89486   0.00027   0.43627   0.00000  Uiso   1.00
H211   H     0.82090   0.90195   0.62706   0.00000  Uiso   1.00
H212   H     0.04813   0.02996   0.75852   0.00000  Uiso   1.00
H213   H     0.87721   0.06738   0.29557   0.00000  Uiso   1.00
H214   H     0.72126   0.86005   0.69788   0.00000  Uiso   1.00
H215   H     0.74189   0.21191   0.68637   0.00000  Uiso   1.00
H216   H     0.81643   0.23954   0.77216   0.00000  Uiso   1.00
H217   H     0.73538   0.25729   0.55260   0.00000  Uiso   1.00
H218   H     0.66142   0.15897   0.74339   0.00000  Uiso   1.00
H219   H     0.91869   0.23857   0.85293   0.00000  Uiso   1.00
H220   H     0.74777   0.27598   0.38998   0.00000  Uiso   1.00
H221   H     0.59182   0.06865   0.79230   0.00000  Uiso   1.00
O222   O     0.03518   0.14806   0.86015   0.00000  Uiso   1.00
O223   O     0.81093   0.19713   0.25278   0.00000  Uiso   1.00
O224   O     0.60633   0.92513   0.78061   0.00000  Uiso   1.00
N225   N     0.00744   0.07526   0.76898   0.00000  Uiso   1.00
N226   N     0.84764   0.11024   0.33615   0.00000  Uiso   1.00
N227   N     0.70184   0.91641   0.71226   0.00000  Uiso   1.00
N228   N     0.93778   0.18751   0.81978   0.00000  Uiso   1.00
N229   N     0.77799   0.22249   0.38695   0.00000  Uiso   1.00
N230   N     0.63219   0.02866   0.76306   0.00000  Uiso   1.00
C231   C     0.06310   0.71492   0.67399   0.00000  Uiso   1.00
C232   C     0.11326   0.73170   0.71156   0.00000  Uiso   1.00
C233   C     0.10351   0.77447   0.78370   0.00000  Uiso   1.00
C234   C     0.15547   0.78320   0.80774   0.00000  Uiso   1.00
C235   C     0.22431   0.81422   0.87317   0.00000  Uiso   1.00
C236   C     0.08636   0.62941   0.65617   0.00000  Uiso   1.00
C237   C     0.05399   0.58617   0.68172   0.00000  Uiso   1.00
C238   C     0.08331   0.50880   0.65912   0.00000  Uiso   1.00
C239   C     0.11035   0.38101   0.63850   0.00000  Uiso   1.00
C240   C     0.06480   0.74218   0.59558   0.00000  Uiso   1.00
C241   C     0.01431   0.79375   0.57018   0.00000  Uiso   1.00
C242   C     0.02547   0.81131   0.49655   0.00000  Uiso   1.00
C243   C     0.01905   0.85861   0.38187   0.00000  Uiso   1.00
C244   C     0.17272   0.65439   0.58839   0.00000  Uiso   1.00
C245   C     0.17280   0.69882   0.66507   0.00000  Uiso   1.00
C246   C     0.22479   0.70750   0.68900   0.00000  Uiso   1.00
C247   C     0.21512   0.75027   0.76116   0.00000  Uiso   1.00
C248   C     0.14590   0.59653   0.60967   0.00000  Uiso   1.00
C249   C     0.17527   0.51920   0.58702   0.00000  Uiso   1.00
C250   C     0.14295   0.47586   0.61254   0.00000  Uiso   1.00
C251   C     0.12434   0.70930   0.54908   0.00000  Uiso   1.00
C252   C     0.13559   0.72678   0.47548   0.00000  Uiso   1.00
C253   C     0.08512   0.77837   0.44998   0.00000  Uiso   1.00
H254   H     0.01675   0.74052   0.71018   0.00000  Uiso   1.00
H255   H     0.05743   0.79990   0.81967   0.00000  Uiso   1.00
H256   H     0.00791   0.61163   0.71770   0.00000  Uiso   1.00
H257   H     0.96824   0.81918   0.60618   0.00000  Uiso   1.00
H258   H     0.12879   0.85121   0.92056   0.00000  Uiso   1.00
H259   H     0.02437   0.45424   0.70553   0.00000  Uiso   1.00
H260   H     0.94071   0.89189   0.47036   0.00000  Uiso   1.00
H261   H     0.21907   0.62879   0.55219   0.00000  Uiso   1.00
H262   H     0.27086   0.68205   0.65301   0.00000  Uiso   1.00
H263   H     0.22134   0.49378   0.55104   0.00000  Uiso   1.00
H264   H     0.18167   0.70133   0.43952   0.00000  Uiso   1.00
H265   H     0.30202   0.75555   0.78530   0.00000  Uiso   1.00
H266   H     0.19760   0.35858   0.57026   0.00000  Uiso   1.00
H267   H     0.11394   0.79624   0.33509   0.00000  Uiso   1.00
O268   O     0.24583   0.84041   0.92211   0.00000  Uiso   1.00
O269   O     0.10883   0.31960   0.63998   0.00000  Uiso   1.00
O270   O     0.99907   0.89380   0.33145   0.00000  Uiso   1.00
N271   N     0.16245   0.82140   0.87489   0.00000  Uiso   1.00
N272   N     0.06483   0.45026   0.67385   0.00000  Uiso   1.00
N273   N     0.98661   0.85941   0.45398   0.00000  Uiso   1.00
N274   N     0.25567   0.76993   0.80210   0.00000  Uiso   1.00
N275   N     0.15805   0.39879   0.60106   0.00000  Uiso   1.00
N276   N     0.07983   0.80794   0.38120   0.00000  Uiso   1.00
C277   C     0.69908   0.53861   0.72570   0.00000  Uiso   1.00
C278   C     0.65967   0.49389   0.70496   0.00000  Uiso   1.00
C279   C     0.60791   0.51856   0.66800   0.00000  Uiso   1.00
C280   C     0.57824   0.46922   0.65418   0.00000  Uiso   1.00
C281   C     0.51381   0.41062   0.61852   0.00000  Uiso   1.00
C282   C     0.76646   0.48987   0.68741   0.00000  Uiso   1.00
C283   C     0.80450   0.51116   0.63571   0.00000  Uiso   1.00
C284   C     0.86473   0.45844   0.60712   0.00000  Uiso   1.00
C285   C     0.96612   0.39362   0.54427   0.00000  Uiso   1.00
C286   C     0.69805   0.54198   0.81295   0.00000  Uiso   1.00
C287   C     0.67858   0.60710   0.86681   0.00000  Uiso   1.00
C288   C     0.68122   0.59825   0.94393   0.00000  Uiso   1.00
C289   C     0.67639   0.61435   0.07600   0.00000  Uiso   1.00
C290   C     0.73840   0.40713   0.76688   0.00000  Uiso   1.00
C291   C     0.68103   0.42247   0.72732   0.00000  Uiso   1.00
C292   C     0.65142   0.37308   0.71355   0.00000  Uiso   1.00
C293   C     0.59963   0.39768   0.67658   0.00000  Uiso   1.00
C294   C     0.78782   0.41845   0.70977   0.00000  Uiso   1.00
C295   C     0.84800   0.36569   0.68126   0.00000  Uiso   1.00
C296   C     0.88612   0.38690   0.62953   0.00000  Uiso   1.00
C297   C     0.71940   0.47056   0.83532   0.00000  Uiso   1.00
C298   C     0.72208   0.46162   0.91236   0.00000  Uiso   1.00
C299   C     0.70262   0.52671   0.96633   0.00000  Uiso   1.00
H300   H     0.68245   0.59421   0.70829   0.00000  Uiso   1.00
H301   H     0.59140   0.57383   0.65069   0.00000  Uiso   1.00
H302   H     0.78796   0.56643   0.61842   0.00000  Uiso   1.00
H303   H     0.66206   0.66235   0.84949   0.00000  Uiso   1.00
H304   H     0.49989   0.51972   0.59668   0.00000  Uiso   1.00
H305   H     0.91435   0.50414   0.52864   0.00000  Uiso   1.00
H306   H     0.64886   0.70640   0.01589   0.00000  Uiso   1.00
H307   H     0.75503   0.35152   0.78429   0.00000  Uiso   1.00
H308   H     0.66796   0.31782   0.73086   0.00000  Uiso   1.00
H309   H     0.86452   0.31043   0.69858   0.00000  Uiso   1.00
H310   H     0.73861   0.40635   0.92965   0.00000  Uiso   1.00
H311   H     0.56203   0.31193   0.66174   0.00000  Uiso   1.00
H312   H     0.97649   0.29636   0.59370   0.00000  Uiso   1.00
H313   H     0.71099   0.49862   0.08095   0.00000  Uiso   1.00
O314   O     0.47239   0.39802   0.59267   0.00000  Uiso   1.00
O315   O     0.01614   0.37759   0.50342   0.00000  Uiso   1.00
O316   O     0.66782   0.64295   0.14268   0.00000  Uiso   1.00
N317   N     0.52646   0.47545   0.61934   0.00000  Uiso   1.00
N318   N     0.91395   0.46088   0.55571   0.00000  Uiso   1.00
N319   N     0.66575   0.64998   0.01125   0.00000  Uiso   1.00
N320   N     0.55989   0.36364   0.65435   0.00000  Uiso   1.00
N321   N     0.94738   0.34907   0.59072   0.00000  Uiso   1.00
N322   N     0.69918   0.53817   0.04626   0.00000  Uiso   1.00
C323   C     0.61299   0.83420   0.57127   0.00000  Uiso   1.00
C324   C     0.60500   0.79555   0.49562   0.00000  Uiso   1.00
C325   C     0.55938   0.76649   0.48714   0.00000  Uiso   1.00
C326   C     0.55994   0.73332   0.41311   0.00000  Uiso   1.00
C327   C     0.54074   0.67393   0.30524   0.00000  Uiso   1.00
C328   C     0.61006   0.91156   0.55615   0.00000  Uiso   1.00
C329   C     0.56870   0.98004   0.59858   0.00000  Uiso   1.00
C330   C     0.57353   0.04452   0.57551   0.00000  Uiso   1.00
C331   C     0.56221   0.16523   0.56166   0.00000  Uiso   1.00
C332   C     0.68018   0.79054   0.58228   0.00000  Uiso   1.00
C333   C     0.69778   0.75729   0.64669   0.00000  Uiso   1.00
C334   C     0.76165   0.71990   0.64563   0.00000  Uiso   1.00
C335   C     0.85920   0.65272   0.67235   0.00000  Uiso   1.00
C336   C     0.69512   0.82695   0.45488   0.00000  Uiso   1.00
C337   C     0.64961   0.79161   0.43240   0.00000  Uiso   1.00
C338   C     0.65025   0.75847   0.35836   0.00000  Uiso   1.00
C339   C     0.60464   0.72937   0.34977   0.00000  Uiso   1.00
C340   C     0.65467   0.90762   0.49293   0.00000  Uiso   1.00
C341   C     0.65957   0.97202   0.46980   0.00000  Uiso   1.00
C342   C     0.61822   0.04057   0.51217   0.00000  Uiso   1.00
C343   C     0.72479   0.78660   0.51906   0.00000  Uiso   1.00
C344   C     0.78865   0.74927   0.51790   0.00000  Uiso   1.00
C345   C     0.80634   0.71596   0.58229   0.00000  Uiso   1.00
H346   H     0.57825   0.83727   0.62050   0.00000  Uiso   1.00
H347   H     0.52486   0.76956   0.53608   0.00000  Uiso   1.00
H348   H     0.53418   0.98306   0.64751   0.00000  Uiso   1.00
H349   H     0.66324   0.76035   0.69561   0.00000  Uiso   1.00
H350   H     0.48532   0.69277   0.41460   0.00000  Uiso   1.00
H351   H     0.50499   0.14296   0.64957   0.00000  Uiso   1.00
H352   H     0.77714   0.67332   0.75100   0.00000  Uiso   1.00
H353   H     0.72986   0.82389   0.40565   0.00000  Uiso   1.00
H354   H     0.68478   0.75543   0.30944   0.00000  Uiso   1.00
H355   H     0.69410   0.96895   0.42087   0.00000  Uiso   1.00
H356   H     0.82316   0.74623   0.46897   0.00000  Uiso   1.00
H357   H     0.61511   0.68131   0.23065   0.00000  Uiso   1.00
H358   H     0.63479   0.13151   0.46562   0.00000  Uiso   1.00
H359   H     0.90693   0.66187   0.56705   0.00000  Uiso   1.00
O360   O     0.51781   0.64227   0.26321   0.00000  Uiso   1.00
O361   O     0.54363   0.23291   0.57149   0.00000  Uiso   1.00
O362   O     0.90068   0.61675   0.70455   0.00000  Uiso   1.00
N363   N     0.52206   0.69945   0.38452   0.00000  Uiso   1.00
N364   N     0.54045   0.12036   0.60419   0.00000  Uiso   1.00
N365   N     0.79488   0.68130   0.69902   0.00000  Uiso   1.00
N366   N     0.59190   0.69328   0.28554   0.00000  Uiso   1.00
N367   N     0.61029   0.11419   0.50521   0.00000  Uiso   1.00
N368   N     0.86472   0.67514   0.60004   0.00000  Uiso   1.00
C369   C     0.44500   0.58819   0.84052   0.00000  Uiso   1.00
C370   C     0.37710   0.59509   0.85838   0.00000  Uiso   1.00
C371   C     0.34985   0.55503   0.81574   0.00000  Uiso   1.00
C372   C     0.28709   0.56943   0.84160   0.00000  Uiso   1.00
C373   C     0.18687   0.57212   0.85930   0.00000  Uiso   1.00
C374   C     0.47279   0.56857   0.91353   0.00000  Uiso   1.00
C375   C     0.52601   0.50622   0.91725   0.00000  Uiso   1.00
C376   C     0.54382   0.49830   0.98953   0.00000  Uiso   1.00
C377   C     0.59220   0.45985   0.09284   0.00000  Uiso   1.00
C378   C     0.44194   0.66725   0.83307   0.00000  Uiso   1.00
C379   C     0.46922   0.68786   0.76916   0.00000  Uiso   1.00
C380   C     0.46106   0.76301   0.77371   0.00000  Uiso   1.00
C381   C     0.46153   0.87777   0.75210   0.00000  Uiso   1.00
C382   C     0.38201   0.68500   0.96226   0.00000  Uiso   1.00
C383   C     0.34288   0.64768   0.92451   0.00000  Uiso   1.00
C384   C     0.28015   0.66214   0.95043   0.00000  Uiso   1.00
C385   C     0.25281   0.62211   0.90784   0.00000  Uiso   1.00
C386   C     0.43858   0.62115   0.97965   0.00000  Uiso   1.00
C387   C     0.45632   0.61333   0.05194   0.00000  Uiso   1.00
C388   C     0.50954   0.55098   0.05578   0.00000  Uiso   1.00
C389   C     0.40772   0.71983   0.89920   0.00000  Uiso   1.00
C390   C     0.39952   0.79497   0.90385   0.00000  Uiso   1.00
C391   C     0.42679   0.81569   0.83995   0.00000  Uiso   1.00
H392   H     0.47164   0.54725   0.78904   0.00000  Uiso   1.00
H393   H     0.37634   0.51434   0.76458   0.00000  Uiso   1.00
H394   H     0.55248   0.46554   0.86607   0.00000  Uiso   1.00
H395   H     0.49570   0.64715   0.71800   0.00000  Uiso   1.00
H396   H     0.25560   0.50101   0.76663   0.00000  Uiso   1.00
H397   H     0.62702   0.39814   0.98063   0.00000  Uiso   1.00
H398   H     0.50728   0.78110   0.66840   0.00000  Uiso   1.00
H399   H     0.35537   0.72594   0.01374   0.00000  Uiso   1.00
H400   H     0.25369   0.70284   0.00161   0.00000  Uiso   1.00
H401   H     0.42983   0.65404   0.10310   0.00000  Uiso   1.00
H402   H     0.37304   0.83565   0.95503   0.00000  Uiso   1.00
H403   H     0.15605   0.65401   0.95902   0.00000  Uiso   1.00
H404   H     0.52747   0.55113   0.17301   0.00000  Uiso   1.00
H405   H     0.40773   0.93409   0.86078   0.00000  Uiso   1.00
O406   O     0.14104   0.55907   0.85080   0.00000  Uiso   1.00
O407   O     0.62833   0.42410   0.13155   0.00000  Uiso   1.00
O408   O     0.47124   0.92654   0.72191   0.00000  Uiso   1.00
N409   N     0.24613   0.54020   0.81357   0.00000  Uiso   1.00
N410   N     0.59337   0.44401   0.01364   0.00000  Uiso   1.00
N411   N     0.48144   0.80204   0.72174   0.00000  Uiso   1.00
N412   N     0.19256   0.62253   0.91708   0.00000  Uiso   1.00
N413   N     0.53980   0.52633   0.11716   0.00000  Uiso   1.00
N414   N     0.42787   0.88437   0.82526   0.00000  Uiso   1.00
C415   C     0.30814   0.13277   0.01653   0.00000  Uiso   1.00
C416   C     0.30570   0.09382   0.93786   0.00000  Uiso   1.00
C417   C     0.28639   0.03437   0.92584   0.00000  Uiso   1.00
C418   C     0.28758   0.00658   0.84945   0.00000  Uiso   1.00
C419   C     0.28080   0.94142   0.73672   0.00000  Uiso   1.00
C420   C     0.37559   0.12709   0.01324   0.00000  Uiso   1.00
C421   C     0.41504   0.09561   0.06461   0.00000  Uiso   1.00
C422   C     0.47507   0.09583   0.05169   0.00000  Uiso   1.00
C423   C     0.57679   0.08237   0.05603   0.00000  Uiso   1.00
C424   C     0.26812   0.21601   0.02019   0.00000  Uiso   1.00
C425   C     0.21721   0.25932   0.07741   0.00000  Uiso   1.00
C426   C     0.18676   0.33442   0.07034   0.00000  Uiso   1.00
C427   C     0.12161   0.45904   0.08547   0.00000  Uiso   1.00
C428   C     0.34460   0.18913   0.90224   0.00000  Uiso   1.00
C429   C     0.32550   0.12443   0.87578   0.00000  Uiso   1.00
C430   C     0.32672   0.09673   0.79939   0.00000  Uiso   1.00
C431   C     0.30741   0.03725   0.78726   0.00000  Uiso   1.00
C432   C     0.39540   0.15770   0.95116   0.00000  Uiso   1.00
C433   C     0.45538   0.15797   0.93816   0.00000  Uiso   1.00
C434   C     0.49491   0.12650   0.98950   0.00000  Uiso   1.00
C435   C     0.28792   0.24663   0.95811   0.00000  Uiso   1.00
C436   C     0.25755   0.32168   0.95096   0.00000  Uiso   1.00
C437   C     0.20660   0.36509   0.00815   0.00000  Uiso   1.00
H438   H     0.29273   0.10893   0.06487   0.00000  Uiso   1.00
H439   H     0.27107   0.01069   0.97390   0.00000  Uiso   1.00
H440   H     0.39970   0.07193   0.11265   0.00000  Uiso   1.00
H441   H     0.20190   0.23561   0.12544   0.00000  Uiso   1.00
H442   H     0.25581   0.91526   0.84566   0.00000  Uiso   1.00
H443   H     0.52704   0.04441   0.13825   0.00000  Uiso   1.00
H444   H     0.10993   0.38956   0.16522   0.00000  Uiso   1.00
H445   H     0.36002   0.21296   0.85391   0.00000  Uiso   1.00
H446   H     0.34205   0.12043   0.75136   0.00000  Uiso   1.00
H447   H     0.47068   0.18167   0.89012   0.00000  Uiso   1.00
H448   H     0.27288   0.34535   0.90291   0.00000  Uiso   1.00
H449   H     0.31342   0.00432   0.66504   0.00000  Uiso   1.00
H450   H     0.58465   0.13348   0.95764   0.00000  Uiso   1.00
H451   H     0.16755   0.47863   0.98460   0.00000  Uiso   1.00
O452   O     0.27161   0.89702   0.69169   0.00000  Uiso   1.00
O453   O     0.62743   0.06648   0.07557   0.00000  Uiso   1.00
O454   O     0.08021   0.51931   0.11096   0.00000  Uiso   1.00
N455   N     0.27183   0.94893   0.81722   0.00000  Uiso   1.00
N456   N     0.52541   0.06967   0.09077   0.00000  Uiso   1.00
N457   N     0.13546   0.39236   0.11600   0.00000  Uiso   1.00
N458   N     0.30283   0.99685   0.72004   0.00000  Uiso   1.00
N459   N     0.55641   0.11759   0.99358   0.00000  Uiso   1.00
N460   N     0.16646   0.44029   0.01881   0.00000  Uiso   1.00
C461   C     0.19594   0.94363   0.30982   0.00000  Uiso   1.00
C462   C     0.18626   0.88248   0.25752   0.00000  Uiso   1.00
C463   C     0.14333   0.89442   0.20695   0.00000  Uiso   1.00
C464   C     0.14170   0.83106   0.16417   0.00000  Uiso   1.00
C465   C     0.12059   0.74716   0.08185   0.00000  Uiso   1.00
C466   C     0.18667   0.92647   0.39220   0.00000  Uiso   1.00
C467   C     0.14409   0.97542   0.45488   0.00000  Uiso   1.00
C468   C     0.14281   0.94909   0.52548   0.00000  Uiso   1.00
C469   C     0.12236   0.93352   0.65227   0.00000  Uiso   1.00
C470   C     0.26521   0.93026   0.28928   0.00000  Uiso   1.00
C471   C     0.28867   0.98240   0.26544   0.00000  Uiso   1.00
C472   C     0.35352   0.95927   0.24941   0.00000  Uiso   1.00
C473   C     0.45502   0.94958   0.21639   0.00000  Uiso   1.00
C474   C     0.26940   0.80986   0.32375   0.00000  Uiso   1.00
C475   C     0.22617   0.80982   0.26509   0.00000  Uiso   1.00
C476   C     0.22460   0.74642   0.22237   0.00000  Uiso   1.00
C477   C     0.18167   0.75827   0.17175   0.00000  Uiso   1.00
C478   C     0.22657   0.85382   0.39978   0.00000  Uiso   1.00
C479   C     0.22536   0.82742   0.47030   0.00000  Uiso   1.00
C480   C     0.18278   0.87631   0.53307   0.00000  Uiso   1.00
C481   C     0.30512   0.85760   0.29685   0.00000  Uiso   1.00
C482   C     0.36994   0.83440   0.28086   0.00000  Uiso   1.00
C483   C     0.39349   0.88648   0.25699   0.00000  Uiso   1.00
H484   H     0.16487   0.00019   0.30393   0.00000  Uiso   1.00
H485   H     0.11245   0.95066   0.20112   0.00000  Uiso   1.00
H486   H     0.11322   0.03164   0.44901   0.00000  Uiso   1.00
H487   H     0.25778   0.03862   0.25959   0.00000  Uiso   1.00
H488   H     0.07192   0.86370   0.09049   0.00000  Uiso   1.00
H489   H     0.07354   0.03447   0.61319   0.00000  Uiso   1.00
H490   H     0.37838   0.04918   0.21377   0.00000  Uiso   1.00
H491   H     0.30046   0.75329   0.32965   0.00000  Uiso   1.00
H492   H     0.25549   0.69020   0.22825   0.00000  Uiso   1.00
H493   H     0.25625   0.77119   0.47614   0.00000  Uiso   1.00
H494   H     0.40081   0.77816   0.28672   0.00000  Uiso   1.00
H495   H     0.18801   0.65230   0.11252   0.00000  Uiso   1.00
H496   H     0.18963   0.82307   0.63522   0.00000  Uiso   1.00
H497   H     0.49446   0.83778   0.23579   0.00000  Uiso   1.00
O498   O     0.09792   0.72095   0.03435   0.00000  Uiso   1.00
O499   O     0.10005   0.94500   0.72011   0.00000  Uiso   1.00
O500   O     0.49998   0.96430   0.19608   0.00000  Uiso   1.00
N501   N     0.10542   0.82260   0.10958   0.00000  Uiso   1.00
N502   N     0.10693   0.98226   0.59827   0.00000  Uiso   1.00
N503   N     0.39193   0.99602   0.22486   0.00000  Uiso   1.00
N504   N     0.16789   0.70885   0.12143   0.00000  Uiso   1.00
N505   N     0.16940   0.86851   0.61012   0.00000  Uiso   1.00
N506   N     0.45439   0.88227   0.23671   0.00000  Uiso   1.00
C507   C     0.94431   0.34033   0.20665   0.00000  Uiso   1.00
C508   C     0.89148   0.33395   0.16654   0.00000  Uiso   1.00
C509   C     0.89875   0.29647   0.09226   0.00000  Uiso   1.00
C510   C     0.84459   0.29713   0.06609   0.00000  Uiso   1.00
C511   C     0.77158   0.28166   0.99673   0.00000  Uiso   1.00
C512   C     0.92781   0.42433   0.22970   0.00000  Uiso   1.00
C513   C     0.96563   0.46283   0.20853   0.00000  Uiso   1.00
C514   C     0.94205   0.53957   0.23554   0.00000  Uiso   1.00
C515   C     0.92547   0.66440   0.26428   0.00000  Uiso   1.00
C516   C     0.93885   0.30920   0.28238   0.00000  Uiso   1.00
C517   C     0.98596   0.25091   0.30551   0.00000  Uiso   1.00
C518   C     0.97168   0.23074   0.37689   0.00000  Uiso   1.00
C519   C     0.97224   0.17682   0.48742   0.00000  Uiso   1.00
C520   C     0.83520   0.40817   0.29229   0.00000  Uiso   1.00
C521   C     0.83222   0.37080   0.21306   0.00000  Uiso   1.00
C522   C     0.77803   0.37153   0.18701   0.00000  Uiso   1.00
C523   C     0.78522   0.33405   0.11269   0.00000  Uiso   1.00
C524   C     0.86855   0.46118   0.27622   0.00000  Uiso   1.00
C525   C     0.84492   0.53788   0.30328   0.00000  Uiso   1.00
C526   C     0.88269   0.57649   0.28214   0.00000  Uiso   1.00
C527   C     0.87959   0.34605   0.32890   0.00000  Uiso   1.00
C528   C     0.86524   0.32597   0.40026   0.00000  Uiso   1.00
C529   C     0.91231   0.26766   0.42349   0.00000  Uiso   1.00
H530   H     0.99045   0.31165   0.17043   0.00000  Uiso   1.00
H531   H     0.94462   0.26796   0.05627   0.00000  Uiso   1.00
H532   H     0.01149   0.43429   0.17254   0.00000  Uiso   1.00
H533   H     0.03181   0.22241   0.26950   0.00000  Uiso   1.00
H534   H     0.86767   0.23581   0.95021   0.00000  Uiso   1.00
H535   H     0.00869   0.58652   0.19537   0.00000  Uiso   1.00
H536   H     0.05155   0.13972   0.39984   0.00000  Uiso   1.00
H537   H     0.78906   0.43686   0.32851   0.00000  Uiso   1.00
H538   H     0.73218   0.40005   0.22302   0.00000  Uiso   1.00
H539   H     0.79906   0.56638   0.33928   0.00000  Uiso   1.00
H540   H     0.81938   0.35450   0.43624   0.00000  Uiso   1.00
H541   H     0.69525   0.34301   0.08554   0.00000  Uiso   1.00
H542   H     0.83627   0.69373   0.33071   0.00000  Uiso   1.00
H543   H     0.87912   0.24693   0.53518   0.00000  Uiso   1.00
O544   O     0.74768   0.26296   0.94562   0.00000  Uiso   1.00
O545   O     0.93269   0.72307   0.26728   0.00000  Uiso   1.00
O546   O     0.98891   0.13689   0.53553   0.00000  Uiso   1.00
N547   N     0.83490   0.26608   0.99654   0.00000  Uiso   1.00
N548   N     0.96674   0.59397   0.22574   0.00000  Uiso   1.00
N549   N     0.00681   0.17627   0.41692   0.00000  Uiso   1.00
N550   N     0.74212   0.32376   0.06936   0.00000  Uiso   1.00
N551   N     0.87396   0.65166   0.29857   0.00000  Uiso   1.00
N552   N     0.91403   0.23396   0.48974   0.00000  Uiso   1.00
