data_job_06671
_audit_creation_date              2018-12-19
_audit_creation_method            'Materials Studio'
_symmetry_space_group_name_H-M    'P1'
_symmetry_Int_Tables_number       1
_symmetry_cell_setting            triclinic
loop_
_symmetry_equiv_pos_as_xyz
  x,y,z
_cell_length_a                    19.7679
_cell_length_b                    21.1483
_cell_length_c                    23.1064
_cell_angle_alpha                 68.6214
_cell_angle_beta                  65.8455
_cell_angle_gamma                 78.7962
loop_
_atom_site_label
_atom_site_type_symbol
_atom_site_fract_x
_atom_site_fract_y
_atom_site_fract_z
_atom_site_U_iso_or_equiv
_atom_site_adp_type
_atom_site_occupancy
C1     C     0.00626   0.31826   0.96766   0.00000  Uiso   1.00
C2     C     0.98364   0.35979   0.01517   0.00000  Uiso   1.00
C3     C     0.02592   0.40754   0.01126   0.00000  Uiso   1.00
C4     C     0.99539   0.44009   0.05949   0.00000  Uiso   1.00
C5     C     0.97098   0.50679   0.12564   0.00000  Uiso   1.00
C6     C     0.00151   0.24388   0.01140   0.00000  Uiso   1.00
C7     C     0.05881   0.19417   0.00431   0.00000  Uiso   1.00
C8     C     0.04332   0.12915   0.04936   0.00000  Uiso   1.00
C9     C     0.04663   0.01588   0.10963   0.00000  Uiso   1.00
C10    C     0.94495   0.33253   0.93988   0.00000  Uiso   1.00
C11    C     0.95470   0.35735   0.87264   0.00000  Uiso   1.00
C12    C     0.89159   0.36695   0.85747   0.00000  Uiso   1.00
C13    C     0.80709   0.39133   0.80668   0.00000  Uiso   1.00
C14    C     0.87685   0.29116   0.06028   0.00000  Uiso   1.00
C15    C     0.91335   0.34507   0.06548   0.00000  Uiso   1.00
C16    C     0.88275   0.37756   0.11373   0.00000  Uiso   1.00
C17    C     0.92498   0.42535   0.10989   0.00000  Uiso   1.00
C18    C     0.93122   0.22916   0.06171   0.00000  Uiso   1.00
C19    C     0.91564   0.16419   0.10679   0.00000  Uiso   1.00
C20    C     0.97290   0.11440   0.09976   0.00000  Uiso   1.00
C21    C     0.87466   0.31782   0.99019   0.00000  Uiso   1.00
C22    C     0.81152   0.32737   0.97512   0.00000  Uiso   1.00
C23    C     0.82117   0.35220   0.90787   0.00000  Uiso   1.00
H24    H     0.06098   0.32972   0.92849   0.00000  Uiso   1.00
H25    H     0.08032   0.41891   0.97232   0.00000  Uiso   1.00
H26    H     0.11320   0.20558   0.96537   0.00000  Uiso   1.00
H27    H     0.00910   0.36873   0.83372   0.00000  Uiso   1.00
H28    H     0.07077   0.51129   0.04311   0.00000  Uiso   1.00
H29    H     0.14009   0.06146   0.02844   0.00000  Uiso   1.00
H30    H     0.92058   0.40550   0.75084   0.00000  Uiso   1.00
H31    H     0.82212   0.27970   0.09945   0.00000  Uiso   1.00
H32    H     0.82835   0.36616   0.15266   0.00000  Uiso   1.00
H33    H     0.86123   0.15282   0.14571   0.00000  Uiso   1.00
H34    H     0.75714   0.31598   0.01406   0.00000  Uiso   1.00
H35    H     0.86627   0.46847   0.18948   0.00000  Uiso   1.00
H36    H     0.93559   0.01864   0.17481   0.00000  Uiso   1.00
H37    H     0.71608   0.36268   0.89721   0.00000  Uiso   1.00
O38    O     0.97694   0.54764   0.14823   0.00000  Uiso   1.00
O39    O     0.06788   0.95748   0.12897   0.00000  Uiso   1.00
O40    O     0.77989   0.40885   0.76477   0.00000  Uiso   1.00
N41    N     0.02178   0.48936   0.07025   0.00000  Uiso   1.00
N42    N     0.08659   0.06879   0.05654   0.00000  Uiso   1.00
N43    N     0.88138   0.39043   0.79700   0.00000  Uiso   1.00
N44    N     0.91174   0.46632   0.14901   0.00000  Uiso   1.00
N45    N     0.97655   0.04575   0.13530   0.00000  Uiso   1.00
N46    N     0.77133   0.36739   0.87577   0.00000  Uiso   1.00
C47    C     0.09564   0.65062   0.31892   0.00000  Uiso   1.00
C48    C     0.09778   0.58289   0.30868   0.00000  Uiso   1.00
C49    C     0.14307   0.52593   0.32536   0.00000  Uiso   1.00
C50    C     0.13673   0.46890   0.31198   0.00000  Uiso   1.00
C51    C     0.14766   0.36373   0.30046   0.00000  Uiso   1.00
C52    C     0.11099   0.70438   0.25028   0.00000  Uiso   1.00
C53    C     0.16739   0.74957   0.21787   0.00000  Uiso   1.00
C54    C     0.17217   0.79483   0.15534   0.00000  Uiso   1.00
C55    C     0.20359   0.87831   0.05318   0.00000  Uiso   1.00
C56    C     0.01523   0.66463   0.36119   0.00000  Uiso   1.00
C57    C     0.99111   0.67641   0.42203   0.00000  Uiso   1.00
C58    C     0.91527   0.68822   0.45287   0.00000  Uiso   1.00
C59    C     0.79801   0.70998   0.52291   0.00000  Uiso   1.00
C60    C     0.00384   0.65064   0.26551   0.00000  Uiso   1.00
C61    C     0.04792   0.58290   0.27967   0.00000  Uiso   1.00
C62    C     0.04150   0.52595   0.26627   0.00000  Uiso   1.00
C63    C     0.08678   0.46891   0.28293   0.00000  Uiso   1.00
C64    C     0.06114   0.70439   0.22127   0.00000  Uiso   1.00
C65    C     0.06583   0.74959   0.15878   0.00000  Uiso   1.00
C66    C     0.12222   0.79484   0.12628   0.00000  Uiso   1.00
C67    C     0.96537   0.66463   0.33219   0.00000  Uiso   1.00
C68    C     0.88955   0.67643   0.36294   0.00000  Uiso   1.00
C69    C     0.86532   0.68823   0.42381   0.00000  Uiso   1.00
H70    H     0.13445   0.65062   0.34150   0.00000  Uiso   1.00
H71    H     0.18165   0.52594   0.34780   0.00000  Uiso   1.00
H72    H     0.20596   0.74956   0.24033   0.00000  Uiso   1.00
H73    H     0.02971   0.67640   0.44446   0.00000  Uiso   1.00
H74    H     0.21201   0.38772   0.34197   0.00000  Uiso   1.00
H75    H     0.26325   0.85925   0.11538   0.00000  Uiso   1.00
H76    H     0.89160   0.70499   0.54581   0.00000  Uiso   1.00
H77    H     0.96502   0.65065   0.24293   0.00000  Uiso   1.00
H78    H     0.00292   0.52597   0.24382   0.00000  Uiso   1.00
H79    H     0.02723   0.74959   0.13635   0.00000  Uiso   1.00
H80    H     0.85098   0.67643   0.34047   0.00000  Uiso   1.00
H81    H     0.06694   0.38775   0.25757   0.00000  Uiso   1.00
H82    H     0.11819   0.85928   0.03098   0.00000  Uiso   1.00
H83    H     0.74653   0.70501   0.46142   0.00000  Uiso   1.00
O84    O     0.16748   0.30572   0.30211   0.00000  Uiso   1.00
O85    O     0.23470   0.92435   0.00484   0.00000  Uiso   1.00
O86    O     0.74710   0.72196   0.56956   0.00000  Uiso   1.00
N87    N     0.17265   0.40483   0.32200   0.00000  Uiso   1.00
N88    N     0.22057   0.84568   0.11014   0.00000  Uiso   1.00
N89    N     0.87311   0.70148   0.51256   0.00000  Uiso   1.00
N90    N     0.09459   0.40485   0.27658   0.00000  Uiso   1.00
N91    N     0.14251   0.84569   0.06473   0.00000  Uiso   1.00
N92    N     0.79505   0.70149   0.46714   0.00000  Uiso   1.00
C93    C     0.41839   0.95613   0.63554   0.00000  Uiso   1.00
C94    C     0.41209   0.00736   0.57118   0.00000  Uiso   1.00
C95    C     0.46626   0.05102   0.52129   0.00000  Uiso   1.00
C96    C     0.44981   0.09405   0.46632   0.00000  Uiso   1.00
C97    C     0.45039   0.17372   0.36713   0.00000  Uiso   1.00
C98    C     0.35243   0.97308   0.69266   0.00000  Uiso   1.00
C99    C     0.35644   0.98790   0.74492   0.00000  Uiso   1.00
C100   C     0.28976   0.00206   0.79222   0.00000  Uiso   1.00
C101   C     0.19772   0.02846   0.88166   0.00000  Uiso   1.00
C102   C     0.40460   0.88712   0.63669   0.00000  Uiso   1.00
C103   C     0.45246   0.82966   0.64189   0.00000  Uiso   1.00
C104   C     0.42970   0.77145   0.64207   0.00000  Uiso   1.00
C105   C     0.41866   0.66439   0.64460   0.00000  Uiso   1.00
C106   C     0.29285   0.95492   0.62664   0.00000  Uiso   1.00
C107   C     0.34390   0.00670   0.56635   0.00000  Uiso   1.00
C108   C     0.32737   0.04968   0.51143   0.00000  Uiso   1.00
C109   C     0.38150   0.09339   0.46147   0.00000  Uiso   1.00
C110   C     0.28425   0.97242   0.68783   0.00000  Uiso   1.00
C111   C     0.21755   0.98656   0.73507   0.00000  Uiso   1.00
C112   C     0.22145   0.00140   0.78737   0.00000  Uiso   1.00
C113   C     0.33641   0.88646   0.63185   0.00000  Uiso   1.00
C114   C     0.31357   0.82833   0.63203   0.00000  Uiso   1.00
C115   C     0.36139   0.77079   0.63723   0.00000  Uiso   1.00
H116   H     0.47147   0.95664   0.63931   0.00000  Uiso   1.00
H117   H     0.51902   0.05151   0.52505   0.00000  Uiso   1.00
H118   H     0.40922   0.98840   0.74865   0.00000  Uiso   1.00
H119   H     0.50522   0.83019   0.64563   0.00000  Uiso   1.00
H120   H     0.54165   0.15643   0.39625   0.00000  Uiso   1.00
H121   H     0.31013   0.02332   0.86773   0.00000  Uiso   1.00
H122   H     0.51258   0.68971   0.65050   0.00000  Uiso   1.00
H123   H     0.23976   0.95441   0.62288   0.00000  Uiso   1.00
H124   H     0.27459   0.04916   0.50771   0.00000  Uiso   1.00
H125   H     0.16479   0.98604   0.73131   0.00000  Uiso   1.00
H126   H     0.26080   0.82784   0.62829   0.00000  Uiso   1.00
H127   H     0.34327   0.15452   0.38217   0.00000  Uiso   1.00
H128   H     0.11174   0.02141   0.85366   0.00000  Uiso   1.00
H129   H     0.31419   0.68780   0.63643   0.00000  Uiso   1.00
O130   O     0.46955   0.21786   0.31376   0.00000  Uiso   1.00
O131   O     0.16580   0.04321   0.93233   0.00000  Uiso   1.00
O132   O     0.43141   0.60553   0.64733   0.00000  Uiso   1.00
N133   N     0.49019   0.14296   0.40874   0.00000  Uiso   1.00
N134   N     0.27373   0.01853   0.84954   0.00000  Uiso   1.00
N135   N     0.46299   0.70662   0.64646   0.00000  Uiso   1.00
N136   N     0.38344   0.14194   0.40116   0.00000  Uiso   1.00
N137   N     0.16698   0.01750   0.84197   0.00000  Uiso   1.00
N138   N     0.35625   0.70560   0.63889   0.00000  Uiso   1.00
C139   C     0.45799   0.32891   0.97505   0.00000  Uiso   1.00
C140   C     0.47213   0.38655   0.90888   0.00000  Uiso   1.00
C141   C     0.51452   0.44180   0.88698   0.00000  Uiso   1.00
C142   C     0.52071   0.48904   0.82495   0.00000  Uiso   1.00
C143   C     0.54802   0.57971   0.72808   0.00000  Uiso   1.00
C144   C     0.48386   0.26342   0.95697   0.00000  Uiso   1.00
C145   C     0.53611   0.21515   0.97552   0.00000  Uiso   1.00
C146   C     0.55218   0.15875   0.95398   0.00000  Uiso   1.00
C147   C     0.59766   0.05824   0.93181   0.00000  Uiso   1.00
C148   C     0.37386   0.32692   0.01047   0.00000  Uiso   1.00
C149   C     0.33362   0.33201   0.07401   0.00000  Uiso   1.00
C150   C     0.25708   0.32905   0.09752   0.00000  Uiso   1.00
C151   C     0.13177   0.32713   0.15842   0.00000  Uiso   1.00
C152   C     0.39361   0.31457   0.90382   0.00000  Uiso   1.00
C153   C     0.43716   0.37875   0.87019   0.00000  Uiso   1.00
C154   C     0.44329   0.42593   0.80818   0.00000  Uiso   1.00
C155   C     0.48568   0.48124   0.78619   0.00000  Uiso   1.00
C156   C     0.44890   0.25563   0.91829   0.00000  Uiso   1.00
C157   C     0.46489   0.19929   0.89672   0.00000  Uiso   1.00
C158   C     0.51715   0.15094   0.91522   0.00000  Uiso   1.00
C159   C     0.33889   0.31913   0.97179   0.00000  Uiso   1.00
C160   C     0.26240   0.31615   0.99520   0.00000  Uiso   1.00
C161   C     0.22205   0.32125   0.05876   0.00000  Uiso   1.00
H162   H     0.48521   0.33496   0.00517   0.00000  Uiso   1.00
H163   H     0.54157   0.44780   0.91693   0.00000  Uiso   1.00
H164   H     0.56315   0.22119   0.00546   0.00000  Uiso   1.00
H165   H     0.36070   0.33804   0.10393   0.00000  Uiso   1.00
H166   H     0.58866   0.56946   0.80204   0.00000  Uiso   1.00
H167   H     0.63415   0.09162   0.98873   0.00000  Uiso   1.00
H168   H     0.20723   0.33801   0.19638   0.00000  Uiso   1.00
H169   H     0.36639   0.30850   0.87370   0.00000  Uiso   1.00
H170   H     0.41623   0.41989   0.77825   0.00000  Uiso   1.00
H171   H     0.43781   0.19327   0.86678   0.00000  Uiso   1.00
H172   H     0.23536   0.31012   0.96525   0.00000  Uiso   1.00
H173   H     0.48693   0.54680   0.68948   0.00000  Uiso   1.00
H174   H     0.53242   0.06896   0.87617   0.00000  Uiso   1.00
H175   H     0.10550   0.31536   0.08382   0.00000  Uiso   1.00
O176   O     0.57275   0.63187   0.68533   0.00000  Uiso   1.00
O177   O     0.63242   0.00496   0.93027   0.00000  Uiso   1.00
O178   O     0.07231   0.32823   0.20270   0.00000  Uiso   1.00
N179   N     0.55787   0.54884   0.78865   0.00000  Uiso   1.00
N180   N     0.60041   0.10210   0.96319   0.00000  Uiso   1.00
N181   N     0.20128   0.33244   0.15733   0.00000  Uiso   1.00
N182   N     0.50313   0.53665   0.72809   0.00000  Uiso   1.00
N183   N     0.54567   0.08991   0.90262   0.00000  Uiso   1.00
N184   N     0.14653   0.32025   0.09676   0.00000  Uiso   1.00
C185   C     0.83074   0.98317   0.62382   0.00000  Uiso   1.00
C186   C     0.89362   0.93443   0.59717   0.00000  Uiso   1.00
C187   C     0.96884   0.94214   0.57694   0.00000  Uiso   1.00
C188   C     0.01758   0.89197   0.55411   0.00000  Uiso   1.00
C189   C     0.11911   0.82476   0.51313   0.00000  Uiso   1.00
C190   C     0.78030   0.94071   0.69231   0.00000  Uiso   1.00
C191   C     0.76023   0.95371   0.75207   0.00000  Uiso   1.00
C192   C     0.71358   0.90883   0.80932   0.00000  Uiso   1.00
C193   C     0.63913   0.85140   0.91604   0.00000  Uiso   1.00
C194   C     0.78596   0.00391   0.57885   0.00000  Uiso   1.00
C195   C     0.77064   0.07006   0.54323   0.00000  Uiso   1.00
C196   C     0.72873   0.07839   0.50497   0.00000  Uiso   1.00
C197   C     0.66309   0.11909   0.43553   0.00000  Uiso   1.00
C198   C     0.78355   0.88035   0.61923   0.00000  Uiso   1.00
C199   C     0.86798   0.87858   0.59468   0.00000  Uiso   1.00
C200   C     0.91663   0.82838   0.57186   0.00000  Uiso   1.00
C201   C     0.99191   0.83602   0.55160   0.00000  Uiso   1.00
C202   C     0.75467   0.88486   0.68982   0.00000  Uiso   1.00
C203   C     0.70802   0.83995   0.74699   0.00000  Uiso   1.00
C204   C     0.68790   0.85288   0.80682   0.00000  Uiso   1.00
C205   C     0.76033   0.94806   0.57635   0.00000  Uiso   1.00
C206   C     0.71844   0.95629   0.53815   0.00000  Uiso   1.00
C207   C     0.70306   0.02244   0.50247   0.00000  Uiso   1.00
H208   H     0.85069   0.02665   0.62577   0.00000  Uiso   1.00
H209   H     0.98865   0.98537   0.57889   0.00000  Uiso   1.00
H210   H     0.78007   0.99694   0.75398   0.00000  Uiso   1.00
H211   H     0.79048   0.11326   0.54517   0.00000  Uiso   1.00
H212   H     0.13030   0.91495   0.52583   0.00000  Uiso   1.00
H213   H     0.69048   0.93937   0.89503   0.00000  Uiso   1.00
H214   H     0.71243   0.18466   0.45471   0.00000  Uiso   1.00
H215   H     0.76359   0.83686   0.61729   0.00000  Uiso   1.00
H216   H     0.89678   0.78516   0.56994   0.00000  Uiso   1.00
H217   H     0.68820   0.79674   0.74504   0.00000  Uiso   1.00
H218   H     0.69861   0.91306   0.53623   0.00000  Uiso   1.00
H219   H     0.05573   0.75246   0.51857   0.00000  Uiso   1.00
H220   H     0.61591   0.77688   0.88778   0.00000  Uiso   1.00
H221   H     0.63786   0.02217   0.44745   0.00000  Uiso   1.00
O222   O     0.18220   0.80311   0.49123   0.00000  Uiso   1.00
O223   O     0.60516   0.83516   0.97560   0.00000  Uiso   1.00
O224   O     0.63397   0.15697   0.39791   0.00000  Uiso   1.00
N225   N     0.09447   0.88381   0.53061   0.00000  Uiso   1.00
N226   N     0.68328   0.90664   0.87579   0.00000  Uiso   1.00
N227   N     0.70378   0.13596   0.46414   0.00000  Uiso   1.00
N228   N     0.05435   0.79638   0.52670   0.00000  Uiso   1.00
N229   N     0.64315   0.81920   0.87189   0.00000  Uiso   1.00
N230   N     0.66366   0.04853   0.46024   0.00000  Uiso   1.00
C231   C     0.47226   0.62014   0.28029   0.00000  Uiso   1.00
C232   C     0.41708   0.63148   0.34533   0.00000  Uiso   1.00
C233   C     0.42236   0.60115   0.40776   0.00000  Uiso   1.00
C234   C     0.36623   0.61817   0.46106   0.00000  Uiso   1.00
C235   C     0.28957   0.62885   0.56340   0.00000  Uiso   1.00
C236   C     0.49754   0.69031   0.23179   0.00000  Uiso   1.00
C237   C     0.57049   0.70944   0.19874   0.00000  Uiso   1.00
C238   C     0.58208   0.77600   0.15645   0.00000  Uiso   1.00
C239   C     0.63036   0.87800   0.08247   0.00000  Uiso   1.00
C240   C     0.42740   0.59632   0.25255   0.00000  Uiso   1.00
C241   C     0.44138   0.53644   0.23694   0.00000  Uiso   1.00
C242   C     0.39393   0.52386   0.21211   0.00000  Uiso   1.00
C243   C     0.33330   0.47993   0.17037   0.00000  Uiso   1.00
C244   C     0.36316   0.70432   0.26394   0.00000  Uiso   1.00
C245   C     0.35782   0.67720   0.33645   0.00000  Uiso   1.00
C246   C     0.30166   0.69428   0.38967   0.00000  Uiso   1.00
C247   C     0.30686   0.66397   0.45217   0.00000  Uiso   1.00
C248   C     0.43829   0.73604   0.22290   0.00000  Uiso   1.00
C249   C     0.44978   0.80258   0.18065   0.00000  Uiso   1.00
C250   C     0.52271   0.82180   0.14756   0.00000  Uiso   1.00
C251   C     0.36814   0.64205   0.24366   0.00000  Uiso   1.00
C252   C     0.32067   0.62957   0.21885   0.00000  Uiso   1.00
C253   C     0.33456   0.56967   0.20321   0.00000  Uiso   1.00
H254   H     0.51840   0.58455   0.28720   0.00000  Uiso   1.00
H255   H     0.46824   0.56577   0.41461   0.00000  Uiso   1.00
H256   H     0.61633   0.67405   0.20562   0.00000  Uiso   1.00
H257   H     0.48724   0.50107   0.24382   0.00000  Uiso   1.00
H258   H     0.38650   0.56513   0.55195   0.00000  Uiso   1.00
H259   H     0.69877   0.79344   0.11126   0.00000  Uiso   1.00
H260   H     0.42656   0.42867   0.19180   0.00000  Uiso   1.00
H261   H     0.31702   0.73992   0.25702   0.00000  Uiso   1.00
H262   H     0.25581   0.72966   0.38278   0.00000  Uiso   1.00
H263   H     0.40391   0.83794   0.17379   0.00000  Uiso   1.00
H264   H     0.27481   0.66496   0.21199   0.00000  Uiso   1.00
H265   H     0.21409   0.69816   0.52611   0.00000  Uiso   1.00
H266   H     0.52636   0.92646   0.08542   0.00000  Uiso   1.00
H267   H     0.25415   0.56169   0.16597   0.00000  Uiso   1.00
O268   O     0.26367   0.62211   0.62230   0.00000  Uiso   1.00
O269   O     0.67336   0.92163   0.04413   0.00000  Uiso   1.00
O270   O     0.31622   0.44307   0.14980   0.00000  Uiso   1.00
N271   N     0.35432   0.59784   0.52861   0.00000  Uiso   1.00
N272   N     0.64627   0.81129   0.11660   0.00000  Uiso   1.00
N273   N     0.39179   0.47027   0.19189   0.00000  Uiso   1.00
N274   N     0.26154   0.66941   0.51471   0.00000  Uiso   1.00
N275   N     0.55350   0.88287   0.10270   0.00000  Uiso   1.00
N276   N     0.29901   0.54185   0.17799   0.00000  Uiso   1.00
C277   C     0.97214   0.74574   0.91518   0.00000  Uiso   1.00
C278   C     0.01448   0.74049   0.84503   0.00000  Uiso   1.00
C279   C     0.99804   0.69890   0.81842   0.00000  Uiso   1.00
C280   C     0.04343   0.70146   0.75328   0.00000  Uiso   1.00
C281   C     0.10007   0.68685   0.64998   0.00000  Uiso   1.00
C282   C     0.94789   0.82063   0.90584   0.00000  Uiso   1.00
C283   C     0.87547   0.84642   0.93038   0.00000  Uiso   1.00
C284   C     0.86481   0.91644   0.91644   0.00000  Uiso   1.00
C285   C     0.81807   0.02625   0.90759   0.00000  Uiso   1.00
C286   C     0.02932   0.72990   0.94783   0.00000  Uiso   1.00
C287   C     0.02536   0.67941   0.00768   0.00000  Uiso   1.00
C288   C     0.08326   0.67305   0.02910   0.00000  Uiso   1.00
C289   C     0.16296   0.64198   0.08545   0.00000  Uiso   1.00
C290   C     0.08198   0.82424   0.84681   0.00000  Uiso   1.00
C291   C     0.07414   0.78313   0.80789   0.00000  Uiso   1.00
C292   C     0.11956   0.78575   0.74278   0.00000  Uiso   1.00
C293   C     0.10320   0.74417   0.71608   0.00000  Uiso   1.00
C294   C     0.00755   0.86327   0.86871   0.00000  Uiso   1.00
C295   C     0.99699   0.93328   0.85473   0.00000  Uiso   1.00
C296   C     0.92457   0.95916   0.87923   0.00000  Uiso   1.00
C297   C     0.08898   0.77254   0.91069   0.00000  Uiso   1.00
C298   C     0.14689   0.76626   0.93203   0.00000  Uiso   1.00
C299   C     0.14302   0.71577   0.99190   0.00000  Uiso   1.00
H300   H     0.92570   0.71255   0.94410   0.00000  Uiso   1.00
H301   H     0.95186   0.66591   0.84718   0.00000  Uiso   1.00
H302   H     0.82932   0.81341   0.95912   0.00000  Uiso   1.00
H303   H     0.97919   0.64642   0.03640   0.00000  Uiso   1.00
H304   H     0.00717   0.63303   0.72333   0.00000  Uiso   1.00
H305   H     0.74877   0.94404   0.95939   0.00000  Uiso   1.00
H306   H     0.06481   0.59191   0.12237   0.00000  Uiso   1.00
H307   H     0.12843   0.85744   0.81790   0.00000  Uiso   1.00
H308   H     0.16572   0.81876   0.71405   0.00000  Uiso   1.00
H309   H     0.04317   0.96626   0.82599   0.00000  Uiso   1.00
H310   H     0.19304   0.79927   0.90328   0.00000  Uiso   1.00
H311   H     0.18074   0.75709   0.61528   0.00000  Uiso   1.00
H312   H     0.92234   0.06810   0.85134   0.00000  Uiso   1.00
H313   H     0.23838   0.71597   0.01432   0.00000  Uiso   1.00
O314   O     0.11482   0.66702   0.60326   0.00000  Uiso   1.00
O315   O     0.77581   0.07504   0.91297   0.00000  Uiso   1.00
O316   O     0.19045   0.61306   0.12679   0.00000  Uiso   1.00
N317   N     0.04291   0.66753   0.71216   0.00000  Uiso   1.00
N318   N     0.80132   0.95830   0.93285   0.00000  Uiso   1.00
N319   N     0.09678   0.62910   0.08523   0.00000  Uiso   1.00
N320   N     0.13631   0.73428   0.65402   0.00000  Uiso   1.00
N321   N     0.89472   0.02505   0.87471   0.00000  Uiso   1.00
N322   N     0.19018   0.69586   0.02709   0.00000  Uiso   1.00
C323   C     0.97832   0.30817   0.64900   0.00000  Uiso   1.00
C324   C     0.99408   0.38113   0.63515   0.00000  Uiso   1.00
C325   C     0.95015   0.43865   0.61698   0.00000  Uiso   1.00
C326   C     0.97414   0.50079   0.60655   0.00000  Uiso   1.00
C327   C     0.98862   0.61340   0.58394   0.00000  Uiso   1.00
C328   C     0.97693   0.26902   0.71945   0.00000  Uiso   1.00
C329   C     0.91858   0.23226   0.77214   0.00000  Uiso   1.00
C330   C     0.92814   0.20001   0.83267   0.00000  Uiso   1.00
C331   C     0.91602   0.13853   0.94090   0.00000  Uiso   1.00
C332   C     0.04667   0.27990   0.60188   0.00000  Uiso   1.00
C333   C     0.04695   0.25228   0.55574   0.00000  Uiso   1.00
C334   C     0.11521   0.22918   0.51730   0.00000  Uiso   1.00
C335   C     0.21137   0.18459   0.44300   0.00000  Uiso   1.00
C336   C     0.09905   0.31624   0.66281   0.00000  Uiso   1.00
C337   C     0.05966   0.38551   0.64266   0.00000  Uiso   1.00
C338   C     0.08372   0.44758   0.63225   0.00000  Uiso   1.00
C339   C     0.03983   0.50518   0.61406   0.00000  Uiso   1.00
C340   C     0.04251   0.27340   0.72695   0.00000  Uiso   1.00
C341   C     0.05215   0.24119   0.78741   0.00000  Uiso   1.00
C342   C     0.99383   0.20440   0.84018   0.00000  Uiso   1.00
C343   C     0.11224   0.28428   0.60938   0.00000  Uiso   1.00
C344   C     0.18052   0.26121   0.57101   0.00000  Uiso   1.00
C345   C     0.18091   0.23357   0.52482   0.00000  Uiso   1.00
H346   H     0.92726   0.30476   0.64317   0.00000  Uiso   1.00
H347   H     0.89940   0.43524   0.61118   0.00000  Uiso   1.00
H348   H     0.86784   0.22888   0.76632   0.00000  Uiso   1.00
H349   H     0.99619   0.24890   0.54995   0.00000  Uiso   1.00
H350   H     0.89741   0.58183   0.57905   0.00000  Uiso   1.00
H351   H     0.83088   0.14669   0.90615   0.00000  Uiso   1.00
H352   H     0.10153   0.18890   0.44990   0.00000  Uiso   1.00
H353   H     0.15010   0.31965   0.66865   0.00000  Uiso   1.00
H354   H     0.13447   0.45095   0.63806   0.00000  Uiso   1.00
H355   H     0.10291   0.24459   0.79320   0.00000  Uiso   1.00
H356   H     0.23126   0.26461   0.57683   0.00000  Uiso   1.00
H357   H     0.08820   0.59458   0.60087   0.00000  Uiso   1.00
H358   H     0.02167   0.15944   0.92797   0.00000  Uiso   1.00
H359   H     0.29232   0.20166   0.47172   0.00000  Uiso   1.00
O360   O     0.97849   0.67431   0.56940   0.00000  Uiso   1.00
O361   O     0.89121   0.10341   0.99854   0.00000  Uiso   1.00
O362   O     0.24629   0.15880   0.39995   0.00000  Uiso   1.00
N363   N     0.94447   0.56681   0.58837   0.00000  Uiso   1.00
N364   N     0.88226   0.15999   0.89419   0.00000  Uiso   1.00
N365   N     0.13529   0.19944   0.46765   0.00000  Uiso   1.00
N366   N     0.04713   0.57367   0.60011   0.00000  Uiso   1.00
N367   N     0.98492   0.16685   0.90593   0.00000  Uiso   1.00
N368   N     0.23795   0.20630   0.47939   0.00000  Uiso   1.00
C369   C     0.67004   0.96621   0.19778   0.00000  Uiso   1.00
C370   C     0.63823   0.91228   0.26570   0.00000  Uiso   1.00
C371   C     0.58038   0.87166   0.28524   0.00000  Uiso   1.00
C372   C     0.55944   0.82536   0.34946   0.00000  Uiso   1.00
C373   C     0.50465   0.74242   0.44836   0.00000  Uiso   1.00
C374   C     0.75281   0.94715   0.16977   0.00000  Uiso   1.00
C375   C     0.79129   0.93587   0.10865   0.00000  Uiso   1.00
C376   C     0.86680   0.91894   0.09212   0.00000  Uiso   1.00
C377   C     0.98989   0.89019   0.04206   0.00000  Uiso   1.00
C378   C     0.66410   0.03234   0.21221   0.00000  Uiso   1.00
C379   C     0.62802   0.09269   0.18676   0.00000  Uiso   1.00
C380   C     0.62887   0.14749   0.20595   0.00000  Uiso   1.00
C381   C     0.61424   0.25101   0.22179   0.00000  Uiso   1.00
C382   C     0.73573   0.95621   0.27709   0.00000  Uiso   1.00
C383   C     0.67392   0.90684   0.30878   0.00000  Uiso   1.00
C384   C     0.65306   0.86059   0.37299   0.00000  Uiso   1.00
C385   C     0.59519   0.81992   0.39262   0.00000  Uiso   1.00
C386   C     0.78849   0.94172   0.21285   0.00000  Uiso   1.00
C387   C     0.86396   0.92480   0.19640   0.00000  Uiso   1.00
C388   C     0.90255   0.91349   0.13527   0.00000  Uiso   1.00
C389   C     0.69978   0.02691   0.25529   0.00000  Uiso   1.00
C390   C     0.70070   0.08162   0.27451   0.00000  Uiso   1.00
C391   C     0.66462   0.14205   0.24910   0.00000  Uiso   1.00
H392   H     0.64227   0.97044   0.16424   0.00000  Uiso   1.00
H393   H     0.55279   0.87588   0.25188   0.00000  Uiso   1.00
H394   H     0.76366   0.94008   0.07532   0.00000  Uiso   1.00
H395   H     0.60042   0.09688   0.15342   0.00000  Uiso   1.00
H396   H     0.46934   0.76862   0.36804   0.00000  Uiso   1.00
H397   H     0.91398   0.90403   0.99574   0.00000  Uiso   1.00
H398   H     0.56975   0.23467   0.16044   0.00000  Uiso   1.00
H399   H     0.76351   0.95198   0.31063   0.00000  Uiso   1.00
H400   H     0.68068   0.85640   0.40631   0.00000  Uiso   1.00
H401   H     0.89156   0.92061   0.22975   0.00000  Uiso   1.00
H402   H     0.72831   0.07740   0.30785   0.00000  Uiso   1.00
H403   H     0.57314   0.75281   0.49338   0.00000  Uiso   1.00
H404   H     0.01779   0.88822   0.12108   0.00000  Uiso   1.00
H405   H     0.67355   0.21886   0.28578   0.00000  Uiso   1.00
O406   O     0.46458   0.69816   0.49100   0.00000  Uiso   1.00
O407   O     0.04793   0.87583   0.00256   0.00000  Uiso   1.00
O408   O     0.59631   0.30961   0.21863   0.00000  Uiso   1.00
N409   N     0.50512   0.77803   0.38441   0.00000  Uiso   1.00
N410   N     0.92083   0.90462   0.03634   0.00000  Uiso   1.00
N411   N     0.59903   0.21374   0.19030   0.00000  Uiso   1.00
N412   N     0.56098   0.76952   0.45186   0.00000  Uiso   1.00
N413   N     0.97669   0.89611   0.10379   0.00000  Uiso   1.00
N414   N     0.65488   0.20523   0.25775   0.00000  Uiso   1.00
C415   C     0.46077   0.73891   0.84456   0.00000  Uiso   1.00
C416   C     0.40550   0.68297   0.88434   0.00000  Uiso   1.00
C417   C     0.34786   0.67526   0.86826   0.00000  Uiso   1.00
C418   C     0.30342   0.62081   0.91104   0.00000  Uiso   1.00
C419   C     0.21563   0.54084   0.96419   0.00000  Uiso   1.00
C420   C     0.45536   0.77413   0.89344   0.00000  Uiso   1.00
C421   C     0.43965   0.84307   0.88500   0.00000  Uiso   1.00
C422   C     0.43718   0.86535   0.93544   0.00000  Uiso   1.00
C423   C     0.42685   0.92691   0.00269   0.00000  Uiso   1.00
C424   C     0.53761   0.70275   0.82757   0.00000  Uiso   1.00
C425   C     0.59106   0.71167   0.76375   0.00000  Uiso   1.00
C426   C     0.65785   0.67387   0.75873   0.00000  Uiso   1.00
C427   C     0.77521   0.62459   0.72371   0.00000  Uiso   1.00
C428   C     0.48435   0.65592   0.94914   0.00000  Uiso   1.00
C429   C     0.41831   0.63790   0.94114   0.00000  Uiso   1.00
C430   C     0.37394   0.58344   0.98396   0.00000  Uiso   1.00
C431   C     0.31625   0.57565   0.96794   0.00000  Uiso   1.00
C432   C     0.46816   0.72906   0.95024   0.00000  Uiso   1.00
C433   C     0.46573   0.75125   0.00070   0.00000  Uiso   1.00
C434   C     0.45001   0.82019   0.99234   0.00000  Uiso   1.00
C435   C     0.55041   0.65767   0.88437   0.00000  Uiso   1.00
C436   C     0.61713   0.61985   0.87945   0.00000  Uiso   1.00
C437   C     0.67067   0.62871   0.81564   0.00000  Uiso   1.00
H438   H     0.45081   0.77400   0.80035   0.00000  Uiso   1.00
H439   H     0.33797   0.71016   0.82431   0.00000  Uiso   1.00
H440   H     0.42975   0.87794   0.84104   0.00000  Uiso   1.00
H441   H     0.58113   0.74656   0.71981   0.00000  Uiso   1.00
H442   H     0.21850   0.61951   0.87593   0.00000  Uiso   1.00
H443   H     0.41204   0.97328   0.91121   0.00000  Uiso   1.00
H444   H     0.73127   0.69625   0.65557   0.00000  Uiso   1.00
H445   H     0.49432   0.62082   0.99336   0.00000  Uiso   1.00
H446   H     0.38386   0.54857   0.02791   0.00000  Uiso   1.00
H447   H     0.47564   0.71635   0.04464   0.00000  Uiso   1.00
H448   H     0.62702   0.58497   0.92341   0.00000  Uiso   1.00
H449   H     0.25574   0.48836   0.04118   0.00000  Uiso   1.00
H450   H     0.44929   0.84214   0.07646   0.00000  Uiso   1.00
H451   H     0.76851   0.56510   0.82082   0.00000  Uiso   1.00
O452   O     0.16366   0.50918   0.97782   0.00000  Uiso   1.00
O453   O     0.41760   0.97332   0.02409   0.00000  Uiso   1.00
O454   O     0.83641   0.60986   0.68870   0.00000  Uiso   1.00
N455   N     0.24243   0.59855   0.91007   0.00000  Uiso   1.00
N456   N     0.42337   0.92931   0.94306   0.00000  Uiso   1.00
N457   N     0.72183   0.67032   0.70406   0.00000  Uiso   1.00
N458   N     0.26247   0.52798   0.99900   0.00000  Uiso   1.00
N459   N     0.44342   0.85874   0.03198   0.00000  Uiso   1.00
N460   N     0.74187   0.59975   0.79298   0.00000  Uiso   1.00
C461   C     0.15645   0.00363   0.27385   0.00000  Uiso   1.00
C462   C     0.10086   0.05943   0.29543   0.00000  Uiso   1.00
C463   C     0.02455   0.05437   0.32747   0.00000  Uiso   1.00
C464   C     0.98329   0.11109   0.34303   0.00000  Uiso   1.00
C465   C     0.89181   0.18868   0.37894   0.00000  Uiso   1.00
C466   C     0.19891   0.03434   0.19894   0.00000  Uiso   1.00
C467   C     0.20504   0.00818   0.14985   0.00000  Uiso   1.00
C468   C     0.24633   0.04378   0.08418   0.00000  Uiso   1.00
C469   C     0.30711   0.08238   0.97029   0.00000  Uiso   1.00
C470   C     0.21237   0.99232   0.30706   0.00000  Uiso   1.00
C471   C     0.22983   0.93083   0.34886   0.00000  Uiso   1.00
C472   C     0.28246   0.93104   0.37421   0.00000  Uiso   1.00
C473   C     0.36414   0.90440   0.42819   0.00000  Uiso   1.00
C474   C     0.21888   0.11335   0.24451   0.00000  Uiso   1.00
C475   C     0.13477   0.11902   0.27949   0.00000  Uiso   1.00
C476   C     0.09362   0.17577   0.29501   0.00000  Uiso   1.00
C477   C     0.01726   0.17080   0.32707   0.00000  Uiso   1.00
C478   C     0.23281   0.09393   0.18300   0.00000  Uiso   1.00
C479   C     0.27410   0.12957   0.11739   0.00000  Uiso   1.00
C480   C     0.28029   0.10348   0.06821   0.00000  Uiso   1.00
C481   C     0.24627   0.05191   0.29112   0.00000  Uiso   1.00
C482   C     0.29889   0.05222   0.31640   0.00000  Uiso   1.00
C483   C     0.31643   0.99074   0.35824   0.00000  Uiso   1.00
H484   H     0.13006   0.95723   0.28625   0.00000  Uiso   1.00
H485   H     0.99834   0.00825   0.33979   0.00000  Uiso   1.00
H486   H     0.17880   0.96206   0.16220   0.00000  Uiso   1.00
H487   H     0.20359   0.88472   0.36118   0.00000  Uiso   1.00
H488   H     0.86725   0.09109   0.39209   0.00000  Uiso   1.00
H489   H     0.24779   0.99369   0.01764   0.00000  Uiso   1.00
H490   H     0.30005   0.83060   0.43723   0.00000  Uiso   1.00
H491   H     0.24527   0.15975   0.23210   0.00000  Uiso   1.00
H492   H     0.11987   0.22188   0.28267   0.00000  Uiso   1.00
H493   H     0.30034   0.17569   0.10508   0.00000  Uiso   1.00
H494   H     0.32512   0.09835   0.30406   0.00000  Uiso   1.00
H495   H     0.96588   0.26449   0.34573   0.00000  Uiso   1.00
H496   H     0.34643   0.16708   0.97128   0.00000  Uiso   1.00
H497   H     0.39869   0.00400   0.39087   0.00000  Uiso   1.00
O498   O     0.83199   0.21501   0.40314   0.00000  Uiso   1.00
O499   O     0.33126   0.08722   0.91187   0.00000  Uiso   1.00
O500   O     0.39982   0.87325   0.46237   0.00000  Uiso   1.00
N501   N     0.90767   0.12337   0.37426   0.00000  Uiso   1.00
N502   N     0.26345   0.03231   0.02416   0.00000  Uiso   1.00
N503   N     0.31232   0.87983   0.41643   0.00000  Uiso   1.00
N504   N     0.96075   0.21667   0.34931   0.00000  Uiso   1.00
N505   N     0.31653   0.12561   0.99921   0.00000  Uiso   1.00
N506   N     0.36540   0.97313   0.39149   0.00000  Uiso   1.00
C507   C     0.42179   0.36260   0.59292   0.00000  Uiso   1.00
C508   C     0.41361   0.35588   0.53262   0.00000  Uiso   1.00
C509   C     0.34898   0.36993   0.51921   0.00000  Uiso   1.00
C510   C     0.35292   0.36057   0.46146   0.00000  Uiso   1.00
C511   C     0.33014   0.35354   0.37435   0.00000  Uiso   1.00
C512   C     0.45087   0.29300   0.62754   0.00000  Uiso   1.00
C513   C     0.41756   0.25420   0.69393   0.00000  Uiso   1.00
C514   C     0.45287   0.19191   0.71608   0.00000  Uiso   1.00
C515   C     0.48796   0.08730   0.77633   0.00000  Uiso   1.00
C516   C     0.48444   0.41038   0.56467   0.00000  Uiso   1.00
C517   C     0.47938   0.47027   0.57823   0.00000  Uiso   1.00
C518   C     0.54296   0.50680   0.54746   0.00000  Uiso   1.00
C519   C     0.63018   0.58443   0.51011   0.00000  Uiso   1.00
C520   C     0.54372   0.32099   0.51420   0.00000  Uiso   1.00
C521   C     0.47984   0.33327   0.48986   0.00000  Uiso   1.00
C522   C     0.48388   0.32389   0.43211   0.00000  Uiso   1.00
C523   C     0.41927   0.33793   0.41862   0.00000  Uiso   1.00
C524   C     0.51709   0.27040   0.58478   0.00000  Uiso   1.00
C525   C     0.55246   0.20816   0.60683   0.00000  Uiso   1.00
C526   C     0.51922   0.16927   0.67324   0.00000  Uiso   1.00
C527   C     0.55067   0.38778   0.52191   0.00000  Uiso   1.00
C528   C     0.61428   0.42423   0.49112   0.00000  Uiso   1.00
C529   C     0.60931   0.48416   0.50462   0.00000  Uiso   1.00
H530   H     0.37023   0.38019   0.62622   0.00000  Uiso   1.00
H531   H     0.29773   0.38741   0.55232   0.00000  Uiso   1.00
H532   H     0.36631   0.27170   0.72701   0.00000  Uiso   1.00
H533   H     0.42812   0.48774   0.61132   0.00000  Uiso   1.00
H534   H     0.24656   0.38543   0.45155   0.00000  Uiso   1.00
H535   H     0.39118   0.14147   0.81990   0.00000  Uiso   1.00
H536   H     0.52150   0.59701   0.57594   0.00000  Uiso   1.00
H537   H     0.59528   0.30339   0.48091   0.00000  Uiso   1.00
H538   H     0.53514   0.30640   0.39903   0.00000  Uiso   1.00
H539   H     0.60372   0.19069   0.57373   0.00000  Uiso   1.00
H540   H     0.66552   0.40672   0.45803   0.00000  Uiso   1.00
H541   H     0.43925   0.31968   0.32713   0.00000  Uiso   1.00
H542   H     0.58387   0.07571   0.69549   0.00000  Uiso   1.00
H543   H     0.71419   0.53126   0.45152   0.00000  Uiso   1.00
O544   O     0.29927   0.35590   0.33812   0.00000  Uiso   1.00
O545   O     0.48901   0.03583   0.82138   0.00000  Uiso   1.00
O546   O     0.65999   0.63350   0.50131   0.00000  Uiso   1.00
N547   N     0.30017   0.36956   0.43350   0.00000  Uiso   1.00
N548   N     0.43537   0.14146   0.77788   0.00000  Uiso   1.00
N549   N     0.55722   0.56735   0.54981   0.00000  Uiso   1.00
N550   N     0.40385   0.33417   0.36655   0.00000  Uiso   1.00
N551   N     0.53905   0.10607   0.71094   0.00000  Uiso   1.00
N552   N     0.66090   0.53197   0.48287   0.00000  Uiso   1.00
