data_job_02349
_audit_creation_date              2018-12-19
_audit_creation_method            'Materials Studio'
_symmetry_space_group_name_H-M    'P1'
_symmetry_Int_Tables_number       1
_symmetry_cell_setting            triclinic
loop_
_symmetry_equiv_pos_as_xyz
  x,y,z
_cell_length_a                    9.8016
_cell_length_b                    26.3660
_cell_length_c                    23.6690
_cell_angle_alpha                 90.0000
_cell_angle_beta                  90.0000
_cell_angle_gamma                 90.0000
loop_
_atom_site_label
_atom_site_type_symbol
_atom_site_fract_x
_atom_site_fract_y
_atom_site_fract_z
_atom_site_U_iso_or_equiv
_atom_site_adp_type
_atom_site_occupancy
C1     C     0.51430   0.33669   0.90763   0.00000  Uiso   1.00
C2     C     0.61108   0.34253   0.95765   0.00000  Uiso   1.00
C3     C     0.61910   0.31017   0.00377   0.00000  Uiso   1.00
C4     C     0.71431   0.32207   0.04513   0.00000  Uiso   1.00
C5     C     0.85175   0.32465   0.12353   0.00000  Uiso   1.00
C6     C     0.43372   0.38608   0.90429   0.00000  Uiso   1.00
C7     C     0.29262   0.39033   0.90555   0.00000  Uiso   1.00
C8     C     0.23853   0.43890   0.90198   0.00000  Uiso   1.00
C9     C     0.10060   0.50908   0.89750   0.00000  Uiso   1.00
C10    C     0.60419   0.33540   0.85506   0.00000  Uiso   1.00
C11    C     0.60640   0.29705   0.81491   0.00000  Uiso   1.00
C12    C     0.69581   0.30295   0.76989   0.00000  Uiso   1.00
C13    C     0.82256   0.29444   0.68897   0.00000  Uiso   1.00
C14    C     0.66912   0.41538   0.89906   0.00000  Uiso   1.00
C15    C     0.69517   0.38527   0.95299   0.00000  Uiso   1.00
C16    C     0.79040   0.39722   0.99429   0.00000  Uiso   1.00
C17    C     0.79856   0.36488   0.04047   0.00000  Uiso   1.00
C18    C     0.51780   0.42882   0.89964   0.00000  Uiso   1.00
C19    C     0.46391   0.47739   0.89607   0.00000  Uiso   1.00
C20    C     0.32277   0.48171   0.89732   0.00000  Uiso   1.00
C21    C     0.68828   0.37814   0.85041   0.00000  Uiso   1.00
C22    C     0.77770   0.38410   0.80543   0.00000  Uiso   1.00
C23    C     0.78005   0.34577   0.76523   0.00000  Uiso   1.00
H24    H     0.44882   0.30342   0.91125   0.00000  Uiso   1.00
H25    H     0.55400   0.27710   0.00736   0.00000  Uiso   1.00
H26    H     0.22757   0.35725   0.90915   0.00000  Uiso   1.00
H27    H     0.54131   0.26398   0.81853   0.00000  Uiso   1.00
H28    H     0.70765   0.26678   0.11188   0.00000  Uiso   1.00
H29    H     0.01936   0.43578   0.90477   0.00000  Uiso   1.00
H30    H     0.68093   0.23910   0.71368   0.00000  Uiso   1.00
H31    H     0.73459   0.44865   0.89543   0.00000  Uiso   1.00
H32    H     0.85546   0.43030   0.99068   0.00000  Uiso   1.00
H33    H     0.52902   0.51045   0.89246   0.00000  Uiso   1.00
H34    H     0.84276   0.41718   0.80185   0.00000  Uiso   1.00
H35    H     0.95232   0.39112   0.09834   0.00000  Uiso   1.00
H36    H     0.26402   0.56012   0.89122   0.00000  Uiso   1.00
H37    H     0.92560   0.36344   0.70014   0.00000  Uiso   1.00
O38    O     0.90431   0.31426   0.16806   0.00000  Uiso   1.00
O39    O     0.00129   0.53598   0.89632   0.00000  Uiso   1.00
O40    O     0.86926   0.27794   0.64563   0.00000  Uiso   1.00
N41    N     0.74867   0.29855   0.09562   0.00000  Uiso   1.00
N42    N     0.10515   0.45656   0.90199   0.00000  Uiso   1.00
N43    N     0.72364   0.27269   0.72333   0.00000  Uiso   1.00
N44    N     0.88033   0.36546   0.08833   0.00000  Uiso   1.00
N45    N     0.23681   0.52347   0.89470   0.00000  Uiso   1.00
N46    N     0.85530   0.33959   0.71604   0.00000  Uiso   1.00
C47    C     0.98570   0.16331   0.40763   0.00000  Uiso   1.00
C48    C     0.88892   0.15747   0.45765   0.00000  Uiso   1.00
C49    C     0.88090   0.18983   0.50377   0.00000  Uiso   1.00
C50    C     0.78569   0.17793   0.54513   0.00000  Uiso   1.00
C51    C     0.64825   0.17535   0.62353   0.00000  Uiso   1.00
C52    C     0.06628   0.11392   0.40429   0.00000  Uiso   1.00
C53    C     0.20738   0.10967   0.40555   0.00000  Uiso   1.00
C54    C     0.26147   0.06110   0.40198   0.00000  Uiso   1.00
C55    C     0.39940   0.99092   0.39750   0.00000  Uiso   1.00
C56    C     0.89581   0.16460   0.35506   0.00000  Uiso   1.00
C57    C     0.89360   0.20295   0.31491   0.00000  Uiso   1.00
C58    C     0.80419   0.19705   0.26989   0.00000  Uiso   1.00
C59    C     0.67744   0.20556   0.18897   0.00000  Uiso   1.00
C60    C     0.83088   0.08462   0.39906   0.00000  Uiso   1.00
C61    C     0.80483   0.11473   0.45299   0.00000  Uiso   1.00
C62    C     0.70960   0.10278   0.49429   0.00000  Uiso   1.00
C63    C     0.70144   0.13512   0.54047   0.00000  Uiso   1.00
C64    C     0.98220   0.07118   0.39964   0.00000  Uiso   1.00
C65    C     0.03609   0.02261   0.39607   0.00000  Uiso   1.00
C66    C     0.17723   0.01829   0.39732   0.00000  Uiso   1.00
C67    C     0.81172   0.12186   0.35041   0.00000  Uiso   1.00
C68    C     0.72230   0.11590   0.30543   0.00000  Uiso   1.00
C69    C     0.71995   0.15423   0.26523   0.00000  Uiso   1.00
H70    H     0.05118   0.19658   0.41125   0.00000  Uiso   1.00
H71    H     0.94600   0.22290   0.50736   0.00000  Uiso   1.00
H72    H     0.27243   0.14275   0.40915   0.00000  Uiso   1.00
H73    H     0.95869   0.23602   0.31853   0.00000  Uiso   1.00
H74    H     0.79235   0.23322   0.61188   0.00000  Uiso   1.00
H75    H     0.48064   0.06422   0.40477   0.00000  Uiso   1.00
H76    H     0.81907   0.26090   0.21368   0.00000  Uiso   1.00
H77    H     0.76541   0.05135   0.39543   0.00000  Uiso   1.00
H78    H     0.64454   0.06970   0.49068   0.00000  Uiso   1.00
H79    H     0.97098   0.98955   0.39246   0.00000  Uiso   1.00
H80    H     0.65724   0.08282   0.30185   0.00000  Uiso   1.00
H81    H     0.54768   0.10888   0.59834   0.00000  Uiso   1.00
H82    H     0.23598   0.93988   0.39122   0.00000  Uiso   1.00
H83    H     0.57440   0.13656   0.20014   0.00000  Uiso   1.00
O84    O     0.59569   0.18574   0.66806   0.00000  Uiso   1.00
O85    O     0.49871   0.96402   0.39632   0.00000  Uiso   1.00
O86    O     0.63074   0.22206   0.14563   0.00000  Uiso   1.00
N87    N     0.75133   0.20145   0.59562   0.00000  Uiso   1.00
N88    N     0.39485   0.04344   0.40199   0.00000  Uiso   1.00
N89    N     0.77636   0.22731   0.22333   0.00000  Uiso   1.00
N90    N     0.61967   0.13454   0.58833   0.00000  Uiso   1.00
N91    N     0.26319   0.97653   0.39470   0.00000  Uiso   1.00
N92    N     0.64470   0.16041   0.21604   0.00000  Uiso   1.00
C93    C     0.48570   0.33669   0.59237   0.00000  Uiso   1.00
C94    C     0.38892   0.34253   0.54235   0.00000  Uiso   1.00
C95    C     0.38090   0.31017   0.49623   0.00000  Uiso   1.00
C96    C     0.28569   0.32207   0.45487   0.00000  Uiso   1.00
C97    C     0.14825   0.32465   0.37647   0.00000  Uiso   1.00
C98    C     0.56628   0.38608   0.59571   0.00000  Uiso   1.00
C99    C     0.70738   0.39033   0.59445   0.00000  Uiso   1.00
C100   C     0.76147   0.43890   0.59802   0.00000  Uiso   1.00
C101   C     0.89940   0.50908   0.60250   0.00000  Uiso   1.00
C102   C     0.39581   0.33540   0.64494   0.00000  Uiso   1.00
C103   C     0.39360   0.29705   0.68509   0.00000  Uiso   1.00
C104   C     0.30419   0.30295   0.73011   0.00000  Uiso   1.00
C105   C     0.17744   0.29444   0.81103   0.00000  Uiso   1.00
C106   C     0.33088   0.41538   0.60094   0.00000  Uiso   1.00
C107   C     0.30483   0.38527   0.54701   0.00000  Uiso   1.00
C108   C     0.20960   0.39722   0.50571   0.00000  Uiso   1.00
C109   C     0.20144   0.36488   0.45953   0.00000  Uiso   1.00
C110   C     0.48220   0.42882   0.60036   0.00000  Uiso   1.00
C111   C     0.53609   0.47739   0.60393   0.00000  Uiso   1.00
C112   C     0.67723   0.48171   0.60268   0.00000  Uiso   1.00
C113   C     0.31172   0.37814   0.64959   0.00000  Uiso   1.00
C114   C     0.22230   0.38410   0.69457   0.00000  Uiso   1.00
C115   C     0.21995   0.34577   0.73477   0.00000  Uiso   1.00
H116   H     0.55118   0.30342   0.58875   0.00000  Uiso   1.00
H117   H     0.44600   0.27710   0.49264   0.00000  Uiso   1.00
H118   H     0.77243   0.35725   0.59085   0.00000  Uiso   1.00
H119   H     0.45869   0.26398   0.68147   0.00000  Uiso   1.00
H120   H     0.29235   0.26678   0.38812   0.00000  Uiso   1.00
H121   H     0.98064   0.43578   0.59523   0.00000  Uiso   1.00
H122   H     0.31907   0.23910   0.78632   0.00000  Uiso   1.00
H123   H     0.26541   0.44865   0.60457   0.00000  Uiso   1.00
H124   H     0.14454   0.43030   0.50932   0.00000  Uiso   1.00
H125   H     0.47098   0.51045   0.60754   0.00000  Uiso   1.00
H126   H     0.15724   0.41718   0.69815   0.00000  Uiso   1.00
H127   H     0.04768   0.39112   0.40166   0.00000  Uiso   1.00
H128   H     0.73598   0.56012   0.60878   0.00000  Uiso   1.00
H129   H     0.07440   0.36344   0.79986   0.00000  Uiso   1.00
O130   O     0.09569   0.31426   0.33194   0.00000  Uiso   1.00
O131   O     0.99871   0.53598   0.60368   0.00000  Uiso   1.00
O132   O     0.13074   0.27794   0.85437   0.00000  Uiso   1.00
N133   N     0.25133   0.29855   0.40438   0.00000  Uiso   1.00
N134   N     0.89485   0.45656   0.59801   0.00000  Uiso   1.00
N135   N     0.27636   0.27269   0.77667   0.00000  Uiso   1.00
N136   N     0.11967   0.36546   0.41167   0.00000  Uiso   1.00
N137   N     0.76319   0.52347   0.60530   0.00000  Uiso   1.00
N138   N     0.14470   0.33959   0.78396   0.00000  Uiso   1.00
C139   C     0.01430   0.16331   0.09237   0.00000  Uiso   1.00
C140   C     0.11108   0.15747   0.04235   0.00000  Uiso   1.00
C141   C     0.11910   0.18983   0.99623   0.00000  Uiso   1.00
C142   C     0.21431   0.17793   0.95487   0.00000  Uiso   1.00
C143   C     0.35175   0.17535   0.87647   0.00000  Uiso   1.00
C144   C     0.93372   0.11392   0.09571   0.00000  Uiso   1.00
C145   C     0.79262   0.10967   0.09445   0.00000  Uiso   1.00
C146   C     0.73853   0.06110   0.09802   0.00000  Uiso   1.00
C147   C     0.60060   0.99092   0.10250   0.00000  Uiso   1.00
C148   C     0.10419   0.16460   0.14494   0.00000  Uiso   1.00
C149   C     0.10640   0.20295   0.18509   0.00000  Uiso   1.00
C150   C     0.19581   0.19705   0.23011   0.00000  Uiso   1.00
C151   C     0.32256   0.20556   0.31103   0.00000  Uiso   1.00
C152   C     0.16912   0.08462   0.10094   0.00000  Uiso   1.00
C153   C     0.19517   0.11473   0.04701   0.00000  Uiso   1.00
C154   C     0.29040   0.10278   0.00571   0.00000  Uiso   1.00
C155   C     0.29856   0.13512   0.95953   0.00000  Uiso   1.00
C156   C     0.01780   0.07118   0.10036   0.00000  Uiso   1.00
C157   C     0.96391   0.02261   0.10393   0.00000  Uiso   1.00
C158   C     0.82277   0.01829   0.10268   0.00000  Uiso   1.00
C159   C     0.18828   0.12186   0.14959   0.00000  Uiso   1.00
C160   C     0.27770   0.11590   0.19457   0.00000  Uiso   1.00
C161   C     0.28005   0.15423   0.23477   0.00000  Uiso   1.00
H162   H     0.94882   0.19658   0.08875   0.00000  Uiso   1.00
H163   H     0.05400   0.22290   0.99264   0.00000  Uiso   1.00
H164   H     0.72757   0.14275   0.09085   0.00000  Uiso   1.00
H165   H     0.04131   0.23602   0.18147   0.00000  Uiso   1.00
H166   H     0.20765   0.23322   0.88812   0.00000  Uiso   1.00
H167   H     0.51936   0.06422   0.09523   0.00000  Uiso   1.00
H168   H     0.18093   0.26090   0.28632   0.00000  Uiso   1.00
H169   H     0.23459   0.05135   0.10457   0.00000  Uiso   1.00
H170   H     0.35546   0.06970   0.00932   0.00000  Uiso   1.00
H171   H     0.02902   0.98955   0.10754   0.00000  Uiso   1.00
H172   H     0.34276   0.08282   0.19815   0.00000  Uiso   1.00
H173   H     0.45232   0.10888   0.90166   0.00000  Uiso   1.00
H174   H     0.76402   0.93988   0.10878   0.00000  Uiso   1.00
H175   H     0.42560   0.13656   0.29986   0.00000  Uiso   1.00
O176   O     0.40431   0.18574   0.83194   0.00000  Uiso   1.00
O177   O     0.50129   0.96402   0.10368   0.00000  Uiso   1.00
O178   O     0.36926   0.22206   0.35437   0.00000  Uiso   1.00
N179   N     0.24867   0.20145   0.90438   0.00000  Uiso   1.00
N180   N     0.60515   0.04344   0.09801   0.00000  Uiso   1.00
N181   N     0.22364   0.22731   0.27667   0.00000  Uiso   1.00
N182   N     0.38033   0.13454   0.91167   0.00000  Uiso   1.00
N183   N     0.73681   0.97653   0.10530   0.00000  Uiso   1.00
N184   N     0.35530   0.16041   0.28396   0.00000  Uiso   1.00
C185   C     0.48570   0.66331   0.09237   0.00000  Uiso   1.00
C186   C     0.38892   0.65747   0.04235   0.00000  Uiso   1.00
C187   C     0.38090   0.68983   0.99623   0.00000  Uiso   1.00
C188   C     0.28569   0.67793   0.95487   0.00000  Uiso   1.00
C189   C     0.14825   0.67535   0.87647   0.00000  Uiso   1.00
C190   C     0.56628   0.61392   0.09571   0.00000  Uiso   1.00
C191   C     0.70738   0.60967   0.09445   0.00000  Uiso   1.00
C192   C     0.76147   0.56110   0.09802   0.00000  Uiso   1.00
C193   C     0.89940   0.49092   0.10250   0.00000  Uiso   1.00
C194   C     0.39581   0.66460   0.14494   0.00000  Uiso   1.00
C195   C     0.39360   0.70295   0.18509   0.00000  Uiso   1.00
C196   C     0.30419   0.69705   0.23011   0.00000  Uiso   1.00
C197   C     0.17744   0.70556   0.31103   0.00000  Uiso   1.00
C198   C     0.33088   0.58462   0.10094   0.00000  Uiso   1.00
C199   C     0.30483   0.61473   0.04701   0.00000  Uiso   1.00
C200   C     0.20960   0.60278   0.00571   0.00000  Uiso   1.00
C201   C     0.20144   0.63512   0.95953   0.00000  Uiso   1.00
C202   C     0.48220   0.57118   0.10036   0.00000  Uiso   1.00
C203   C     0.53609   0.52261   0.10393   0.00000  Uiso   1.00
C204   C     0.67723   0.51829   0.10268   0.00000  Uiso   1.00
C205   C     0.31172   0.62186   0.14959   0.00000  Uiso   1.00
C206   C     0.22230   0.61590   0.19457   0.00000  Uiso   1.00
C207   C     0.21995   0.65423   0.23477   0.00000  Uiso   1.00
H208   H     0.55118   0.69658   0.08875   0.00000  Uiso   1.00
H209   H     0.44600   0.72290   0.99264   0.00000  Uiso   1.00
H210   H     0.77243   0.64275   0.09085   0.00000  Uiso   1.00
H211   H     0.45869   0.73602   0.18147   0.00000  Uiso   1.00
H212   H     0.29235   0.73322   0.88812   0.00000  Uiso   1.00
H213   H     0.98064   0.56422   0.09523   0.00000  Uiso   1.00
H214   H     0.31907   0.76090   0.28632   0.00000  Uiso   1.00
H215   H     0.26541   0.55135   0.10457   0.00000  Uiso   1.00
H216   H     0.14454   0.56970   0.00932   0.00000  Uiso   1.00
H217   H     0.47098   0.48955   0.10754   0.00000  Uiso   1.00
H218   H     0.15724   0.58282   0.19815   0.00000  Uiso   1.00
H219   H     0.04768   0.60888   0.90166   0.00000  Uiso   1.00
H220   H     0.73598   0.43988   0.10878   0.00000  Uiso   1.00
H221   H     0.07440   0.63656   0.29986   0.00000  Uiso   1.00
O222   O     0.09569   0.68574   0.83194   0.00000  Uiso   1.00
O223   O     0.99871   0.46402   0.10368   0.00000  Uiso   1.00
O224   O     0.13074   0.72206   0.35437   0.00000  Uiso   1.00
N225   N     0.25133   0.70145   0.90438   0.00000  Uiso   1.00
N226   N     0.89485   0.54344   0.09801   0.00000  Uiso   1.00
N227   N     0.27636   0.72731   0.27667   0.00000  Uiso   1.00
N228   N     0.11967   0.63454   0.91167   0.00000  Uiso   1.00
N229   N     0.76319   0.47653   0.10530   0.00000  Uiso   1.00
N230   N     0.14470   0.66041   0.28396   0.00000  Uiso   1.00
C231   C     0.01430   0.83669   0.59237   0.00000  Uiso   1.00
C232   C     0.11108   0.84253   0.54235   0.00000  Uiso   1.00
C233   C     0.11910   0.81017   0.49623   0.00000  Uiso   1.00
C234   C     0.21431   0.82207   0.45487   0.00000  Uiso   1.00
C235   C     0.35175   0.82465   0.37647   0.00000  Uiso   1.00
C236   C     0.93372   0.88608   0.59571   0.00000  Uiso   1.00
C237   C     0.79262   0.89033   0.59445   0.00000  Uiso   1.00
C238   C     0.73853   0.93890   0.59802   0.00000  Uiso   1.00
C239   C     0.60060   0.00908   0.60250   0.00000  Uiso   1.00
C240   C     0.10419   0.83540   0.64494   0.00000  Uiso   1.00
C241   C     0.10640   0.79705   0.68509   0.00000  Uiso   1.00
C242   C     0.19581   0.80295   0.73011   0.00000  Uiso   1.00
C243   C     0.32256   0.79444   0.81103   0.00000  Uiso   1.00
C244   C     0.16912   0.91538   0.60094   0.00000  Uiso   1.00
C245   C     0.19517   0.88527   0.54701   0.00000  Uiso   1.00
C246   C     0.29040   0.89722   0.50571   0.00000  Uiso   1.00
C247   C     0.29856   0.86488   0.45953   0.00000  Uiso   1.00
C248   C     0.01780   0.92882   0.60036   0.00000  Uiso   1.00
C249   C     0.96391   0.97739   0.60393   0.00000  Uiso   1.00
C250   C     0.82277   0.98171   0.60268   0.00000  Uiso   1.00
C251   C     0.18828   0.87814   0.64959   0.00000  Uiso   1.00
C252   C     0.27770   0.88410   0.69457   0.00000  Uiso   1.00
C253   C     0.28005   0.84577   0.73477   0.00000  Uiso   1.00
H254   H     0.94882   0.80342   0.58875   0.00000  Uiso   1.00
H255   H     0.05400   0.77710   0.49264   0.00000  Uiso   1.00
H256   H     0.72757   0.85725   0.59085   0.00000  Uiso   1.00
H257   H     0.04131   0.76398   0.68147   0.00000  Uiso   1.00
H258   H     0.20765   0.76678   0.38812   0.00000  Uiso   1.00
H259   H     0.51936   0.93578   0.59523   0.00000  Uiso   1.00
H260   H     0.18093   0.73910   0.78632   0.00000  Uiso   1.00
H261   H     0.23459   0.94865   0.60457   0.00000  Uiso   1.00
H262   H     0.35546   0.93030   0.50932   0.00000  Uiso   1.00
H263   H     0.02902   0.01045   0.60754   0.00000  Uiso   1.00
H264   H     0.34276   0.91718   0.69815   0.00000  Uiso   1.00
H265   H     0.45232   0.89112   0.40166   0.00000  Uiso   1.00
H266   H     0.76402   0.06012   0.60878   0.00000  Uiso   1.00
H267   H     0.42560   0.86344   0.79986   0.00000  Uiso   1.00
O268   O     0.40431   0.81426   0.33194   0.00000  Uiso   1.00
O269   O     0.50129   0.03598   0.60368   0.00000  Uiso   1.00
O270   O     0.36926   0.77794   0.85437   0.00000  Uiso   1.00
N271   N     0.24867   0.79855   0.40438   0.00000  Uiso   1.00
N272   N     0.60515   0.95656   0.59801   0.00000  Uiso   1.00
N273   N     0.22364   0.77269   0.77667   0.00000  Uiso   1.00
N274   N     0.38033   0.86546   0.41167   0.00000  Uiso   1.00
N275   N     0.73681   0.02347   0.60530   0.00000  Uiso   1.00
N276   N     0.35530   0.83959   0.78396   0.00000  Uiso   1.00
C277   C     0.51430   0.66331   0.40763   0.00000  Uiso   1.00
C278   C     0.61108   0.65747   0.45765   0.00000  Uiso   1.00
C279   C     0.61910   0.68983   0.50377   0.00000  Uiso   1.00
C280   C     0.71431   0.67793   0.54513   0.00000  Uiso   1.00
C281   C     0.85175   0.67535   0.62353   0.00000  Uiso   1.00
C282   C     0.43372   0.61392   0.40429   0.00000  Uiso   1.00
C283   C     0.29262   0.60967   0.40555   0.00000  Uiso   1.00
C284   C     0.23853   0.56110   0.40198   0.00000  Uiso   1.00
C285   C     0.10060   0.49092   0.39750   0.00000  Uiso   1.00
C286   C     0.60419   0.66460   0.35506   0.00000  Uiso   1.00
C287   C     0.60640   0.70295   0.31491   0.00000  Uiso   1.00
C288   C     0.69581   0.69705   0.26989   0.00000  Uiso   1.00
C289   C     0.82256   0.70556   0.18897   0.00000  Uiso   1.00
C290   C     0.66912   0.58462   0.39906   0.00000  Uiso   1.00
C291   C     0.69517   0.61473   0.45299   0.00000  Uiso   1.00
C292   C     0.79040   0.60278   0.49429   0.00000  Uiso   1.00
C293   C     0.79856   0.63512   0.54047   0.00000  Uiso   1.00
C294   C     0.51780   0.57118   0.39964   0.00000  Uiso   1.00
C295   C     0.46391   0.52261   0.39607   0.00000  Uiso   1.00
C296   C     0.32277   0.51829   0.39732   0.00000  Uiso   1.00
C297   C     0.68828   0.62186   0.35041   0.00000  Uiso   1.00
C298   C     0.77770   0.61590   0.30543   0.00000  Uiso   1.00
C299   C     0.78005   0.65423   0.26523   0.00000  Uiso   1.00
H300   H     0.44882   0.69658   0.41125   0.00000  Uiso   1.00
H301   H     0.55400   0.72290   0.50736   0.00000  Uiso   1.00
H302   H     0.22757   0.64275   0.40915   0.00000  Uiso   1.00
H303   H     0.54131   0.73602   0.31853   0.00000  Uiso   1.00
H304   H     0.70765   0.73322   0.61188   0.00000  Uiso   1.00
H305   H     0.01936   0.56422   0.40477   0.00000  Uiso   1.00
H306   H     0.68093   0.76090   0.21368   0.00000  Uiso   1.00
H307   H     0.73459   0.55135   0.39543   0.00000  Uiso   1.00
H308   H     0.85546   0.56970   0.49068   0.00000  Uiso   1.00
H309   H     0.52902   0.48955   0.39246   0.00000  Uiso   1.00
H310   H     0.84276   0.58282   0.30185   0.00000  Uiso   1.00
H311   H     0.95232   0.60888   0.59834   0.00000  Uiso   1.00
H312   H     0.26402   0.43988   0.39122   0.00000  Uiso   1.00
H313   H     0.92560   0.63656   0.20014   0.00000  Uiso   1.00
O314   O     0.90431   0.68574   0.66806   0.00000  Uiso   1.00
O315   O     0.00129   0.46402   0.39632   0.00000  Uiso   1.00
O316   O     0.86926   0.72206   0.14563   0.00000  Uiso   1.00
N317   N     0.74867   0.70145   0.59562   0.00000  Uiso   1.00
N318   N     0.10515   0.54344   0.40199   0.00000  Uiso   1.00
N319   N     0.72364   0.72731   0.22333   0.00000  Uiso   1.00
N320   N     0.88033   0.63454   0.58833   0.00000  Uiso   1.00
N321   N     0.23681   0.47653   0.39470   0.00000  Uiso   1.00
N322   N     0.85530   0.66041   0.21604   0.00000  Uiso   1.00
C323   C     0.98570   0.83669   0.90763   0.00000  Uiso   1.00
C324   C     0.88892   0.84253   0.95765   0.00000  Uiso   1.00
C325   C     0.88090   0.81017   0.00377   0.00000  Uiso   1.00
C326   C     0.78569   0.82207   0.04513   0.00000  Uiso   1.00
C327   C     0.64825   0.82465   0.12353   0.00000  Uiso   1.00
C328   C     0.06628   0.88608   0.90429   0.00000  Uiso   1.00
C329   C     0.20738   0.89033   0.90555   0.00000  Uiso   1.00
C330   C     0.26147   0.93890   0.90198   0.00000  Uiso   1.00
C331   C     0.39940   0.00908   0.89750   0.00000  Uiso   1.00
C332   C     0.89581   0.83540   0.85506   0.00000  Uiso   1.00
C333   C     0.89360   0.79705   0.81491   0.00000  Uiso   1.00
C334   C     0.80419   0.80295   0.76989   0.00000  Uiso   1.00
C335   C     0.67744   0.79444   0.68897   0.00000  Uiso   1.00
C336   C     0.83088   0.91538   0.89906   0.00000  Uiso   1.00
C337   C     0.80483   0.88527   0.95299   0.00000  Uiso   1.00
C338   C     0.70960   0.89722   0.99429   0.00000  Uiso   1.00
C339   C     0.70144   0.86488   0.04047   0.00000  Uiso   1.00
C340   C     0.98220   0.92882   0.89964   0.00000  Uiso   1.00
C341   C     0.03609   0.97739   0.89607   0.00000  Uiso   1.00
C342   C     0.17723   0.98171   0.89732   0.00000  Uiso   1.00
C343   C     0.81172   0.87814   0.85041   0.00000  Uiso   1.00
C344   C     0.72230   0.88410   0.80543   0.00000  Uiso   1.00
C345   C     0.71995   0.84577   0.76523   0.00000  Uiso   1.00
H346   H     0.05118   0.80342   0.91125   0.00000  Uiso   1.00
H347   H     0.94600   0.77710   0.00736   0.00000  Uiso   1.00
H348   H     0.27243   0.85725   0.90915   0.00000  Uiso   1.00
H349   H     0.95869   0.76398   0.81853   0.00000  Uiso   1.00
H350   H     0.79235   0.76678   0.11188   0.00000  Uiso   1.00
H351   H     0.48064   0.93578   0.90477   0.00000  Uiso   1.00
H352   H     0.81907   0.73910   0.71368   0.00000  Uiso   1.00
H353   H     0.76541   0.94865   0.89543   0.00000  Uiso   1.00
H354   H     0.64454   0.93030   0.99068   0.00000  Uiso   1.00
H355   H     0.97098   0.01045   0.89246   0.00000  Uiso   1.00
H356   H     0.65724   0.91718   0.80185   0.00000  Uiso   1.00
H357   H     0.54768   0.89112   0.09834   0.00000  Uiso   1.00
H358   H     0.23598   0.06012   0.89122   0.00000  Uiso   1.00
H359   H     0.57440   0.86344   0.70014   0.00000  Uiso   1.00
O360   O     0.59569   0.81426   0.16806   0.00000  Uiso   1.00
O361   O     0.49871   0.03598   0.89632   0.00000  Uiso   1.00
O362   O     0.63074   0.77794   0.64563   0.00000  Uiso   1.00
N363   N     0.75133   0.79855   0.09562   0.00000  Uiso   1.00
N364   N     0.39485   0.95656   0.90199   0.00000  Uiso   1.00
N365   N     0.77636   0.77269   0.72333   0.00000  Uiso   1.00
N366   N     0.61967   0.86546   0.08833   0.00000  Uiso   1.00
N367   N     0.26319   0.02347   0.89470   0.00000  Uiso   1.00
N368   N     0.64470   0.83959   0.71604   0.00000  Uiso   1.00
