data_job_06657
_audit_creation_date              2018-12-19
_audit_creation_method            'Materials Studio'
_symmetry_space_group_name_H-M    'P1'
_symmetry_Int_Tables_number       1
_symmetry_cell_setting            triclinic
loop_
_symmetry_equiv_pos_as_xyz
  x,y,z
_cell_length_a                    20.6208
_cell_length_b                    21.9110
_cell_length_c                    20.4493
_cell_angle_alpha                 72.8602
_cell_angle_beta                  86.7239
_cell_angle_gamma                 94.6598
loop_
_atom_site_label
_atom_site_type_symbol
_atom_site_fract_x
_atom_site_fract_y
_atom_site_fract_z
_atom_site_U_iso_or_equiv
_atom_site_adp_type
_atom_site_occupancy
C1     C     0.04693   0.77136   0.79187   0.00000  Uiso   1.00
C2     C     0.00703   0.76998   0.73170   0.00000  Uiso   1.00
C3     C     0.94373   0.74116   0.73675   0.00000  Uiso   1.00
C4     C     0.91572   0.74516   0.67566   0.00000  Uiso   1.00
C5     C     0.84859   0.73816   0.59194   0.00000  Uiso   1.00
C6     C     0.10962   0.74208   0.78048   0.00000  Uiso   1.00
C7     C     0.13257   0.68980   0.82654   0.00000  Uiso   1.00
C8     C     0.19092   0.67033   0.80652   0.00000  Uiso   1.00
C9     C     0.28308   0.62004   0.79854   0.00000  Uiso   1.00
C10    C     0.06721   0.84203   0.78295   0.00000  Uiso   1.00
C11    C     0.05452   0.87380   0.83109   0.00000  Uiso   1.00
C12    C     0.07718   0.93848   0.81315   0.00000  Uiso   1.00
C13    C     0.10349   0.04338   0.80900   0.00000  Uiso   1.00
C14    C     0.10977   0.82973   0.67442   0.00000  Uiso   1.00
C15    C     0.04117   0.80168   0.66791   0.00000  Uiso   1.00
C16    C     0.01325   0.80574   0.60680   0.00000  Uiso   1.00
C17    C     0.94991   0.77693   0.61175   0.00000  Uiso   1.00
C18    C     0.14375   0.77378   0.71669   0.00000  Uiso   1.00
C19    C     0.20209   0.75438   0.69660   0.00000  Uiso   1.00
C20    C     0.22511   0.70209   0.74261   0.00000  Uiso   1.00
C21    C     0.10134   0.87374   0.71915   0.00000  Uiso   1.00
C22    C     0.12403   0.93838   0.70114   0.00000  Uiso   1.00
C23    C     0.11137   0.97024   0.74924   0.00000  Uiso   1.00
H24    H     0.02036   0.74668   0.84154   0.00000  Uiso   1.00
H25    H     0.91733   0.71662   0.78613   0.00000  Uiso   1.00
H26    H     0.10615   0.66528   0.87591   0.00000  Uiso   1.00
H27    H     0.02810   0.84925   0.88045   0.00000  Uiso   1.00
H28    H     0.81816   0.69725   0.69655   0.00000  Uiso   1.00
H29    H     0.21630   0.58901   0.88587   0.00000  Uiso   1.00
H30    H     0.05173   0.97695   0.89545   0.00000  Uiso   1.00
H31    H     0.13634   0.85442   0.62476   0.00000  Uiso   1.00
H32    H     0.03967   0.83028   0.55744   0.00000  Uiso   1.00
H33    H     0.22849   0.77893   0.64723   0.00000  Uiso   1.00
H34    H     0.15044   0.96290   0.65177   0.00000  Uiso   1.00
H35    H     0.91746   0.78950   0.51095   0.00000  Uiso   1.00
H36    H     0.31559   0.68126   0.70027   0.00000  Uiso   1.00
H37    H     0.15103   0.06919   0.70985   0.00000  Uiso   1.00
O38    O     0.80213   0.72553   0.56338   0.00000  Uiso   1.00
O39    O     0.32447   0.58353   0.81177   0.00000  Uiso   1.00
O40    O     0.10857   0.09249   0.82433   0.00000  Uiso   1.00
N41    N     0.85479   0.72229   0.66211   0.00000  Uiso   1.00
N42    N     0.22702   0.62108   0.83911   0.00000  Uiso   1.00
N43    N     0.07318   0.98376   0.84807   0.00000  Uiso   1.00
N44    N     0.90822   0.77193   0.56224   0.00000  Uiso   1.00
N45    N     0.28045   0.67072   0.73923   0.00000  Uiso   1.00
N46    N     0.12661   0.03340   0.74820   0.00000  Uiso   1.00
C47    C     0.77214   0.21676   0.64458   0.00000  Uiso   1.00
C48    C     0.70937   0.21284   0.60940   0.00000  Uiso   1.00
C49    C     0.68175   0.15921   0.59429   0.00000  Uiso   1.00
C50    C     0.62419   0.16535   0.56195   0.00000  Uiso   1.00
C51    C     0.53113   0.15049   0.50981   0.00000  Uiso   1.00
C52    C     0.81671   0.27256   0.59593   0.00000  Uiso   1.00
C53    C     0.87936   0.26915   0.56951   0.00000  Uiso   1.00
C54    C     0.91217   0.32556   0.52584   0.00000  Uiso   1.00
C55    C     0.98577   0.40344   0.45284   0.00000  Uiso   1.00
C56    C     0.75394   0.23770   0.70746   0.00000  Uiso   1.00
C57    C     0.76383   0.20499   0.77481   0.00000  Uiso   1.00
C58    C     0.74380   0.23207   0.82503   0.00000  Uiso   1.00
C59    C     0.71995   0.25582   0.92519   0.00000  Uiso   1.00
C60    C     0.71902   0.32303   0.61402   0.00000  Uiso   1.00
C61    C     0.68051   0.27056   0.59280   0.00000  Uiso   1.00
C62    C     0.62298   0.27679   0.56047   0.00000  Uiso   1.00
C63    C     0.59528   0.22317   0.54532   0.00000  Uiso   1.00
C64    C     0.78786   0.33028   0.57933   0.00000  Uiso   1.00
C65    C     0.82058   0.38672   0.53569   0.00000  Uiso   1.00
C66    C     0.88326   0.38339   0.50920   0.00000  Uiso   1.00
C67    C     0.72509   0.29543   0.69086   0.00000  Uiso   1.00
C68    C     0.70505   0.32256   0.74098   0.00000  Uiso   1.00
C69    C     0.71489   0.28989   0.80839   0.00000  Uiso   1.00
H70    H     0.79461   0.17182   0.65751   0.00000  Uiso   1.00
H71    H     0.70410   0.11455   0.60714   0.00000  Uiso   1.00
H72    H     0.90168   0.22447   0.58237   0.00000  Uiso   1.00
H73    H     0.78616   0.16032   0.78763   0.00000  Uiso   1.00
H74    H     0.59105   0.07651   0.54396   0.00000  Uiso   1.00
H75    H     0.00765   0.30829   0.49175   0.00000  Uiso   1.00
H76    H     0.76406   0.17302   0.92459   0.00000  Uiso   1.00
H77    H     0.69655   0.36797   0.60109   0.00000  Uiso   1.00
H78    H     0.60066   0.32146   0.54763   0.00000  Uiso   1.00
H79    H     0.79824   0.43138   0.52286   0.00000  Uiso   1.00
H80    H     0.68272   0.36723   0.72812   0.00000  Uiso   1.00
H81    H     0.50709   0.24445   0.49565   0.00000  Uiso   1.00
H82    H     0.92370   0.47623   0.44345   0.00000  Uiso   1.00
H83    H     0.68011   0.34096   0.87628   0.00000  Uiso   1.00
O84    O     0.48777   0.12636   0.48563   0.00000  Uiso   1.00
O85    O     0.03435   0.43044   0.41715   0.00000  Uiso   1.00
O86    O     0.71476   0.25297   0.98502   0.00000  Uiso   1.00
N87    N     0.58444   0.12242   0.53994   0.00000  Uiso   1.00
N88    N     0.97394   0.33912   0.49112   0.00000  Uiso   1.00
N89    N     0.74622   0.21266   0.89578   0.00000  Uiso   1.00
N90    N     0.53926   0.21278   0.51395   0.00000  Uiso   1.00
N91    N     0.92876   0.42948   0.46513   0.00000  Uiso   1.00
N92    N     0.70104   0.30302   0.86979   0.00000  Uiso   1.00
C93    C     0.71648   0.00254   0.96575   0.00000  Uiso   1.00
C94    C     0.68724   0.98472   0.90619   0.00000  Uiso   1.00
C95    C     0.67326   0.02770   0.84501   0.00000  Uiso   1.00
C96    C     0.64664   0.00183   0.79696   0.00000  Uiso   1.00
C97    C     0.60305   0.98426   0.70256   0.00000  Uiso   1.00
C98    C     0.66874   0.97084   0.02868   0.00000  Uiso   1.00
C99    C     0.63922   0.00215   0.07050   0.00000  Uiso   1.00
C100   C     0.59703   0.96459   0.12557   0.00000  Uiso   1.00
C101   C     0.52476   0.92547   0.22137   0.00000  Uiso   1.00
C102   C     0.77809   0.96821   0.97845   0.00000  Uiso   1.00
C103   C     0.84053   0.99731   0.97804   0.00000  Uiso   1.00
C104   C     0.89041   0.95753   0.99083   0.00000  Uiso   1.00
C105   C     0.98793   0.91434   0.00862   0.00000  Uiso   1.00
C106   C     0.69405   0.88018   0.98921   0.00000  Uiso   1.00
C107   C     0.67505   0.91826   0.91894   0.00000  Uiso   1.00
C108   C     0.64844   0.89231   0.87096   0.00000  Uiso   1.00
C109   C     0.63443   0.93524   0.80972   0.00000  Uiso   1.00
C110   C     0.65655   0.90438   0.04143   0.00000  Uiso   1.00
C111   C     0.61440   0.86677   0.09645   0.00000  Uiso   1.00
C112   C     0.58482   0.89801   0.13833   0.00000  Uiso   1.00
C113   C     0.76591   0.90175   0.99119   0.00000  Uiso   1.00
C114   C     0.81570   0.86192   0.00399   0.00000  Uiso   1.00
C115   C     0.87820   0.89095   0.00359   0.00000  Uiso   1.00
H116   H     0.72597   0.05429   0.95583   0.00000  Uiso   1.00
H117   H     0.68270   0.07913   0.83517   0.00000  Uiso   1.00
H118   H     0.64866   0.05358   0.06063   0.00000  Uiso   1.00
H119   H     0.84994   0.04874   0.96817   0.00000  Uiso   1.00
H120   H     0.62932   0.07736   0.70703   0.00000  Uiso   1.00
H121   H     0.55758   0.02349   0.18242   0.00000  Uiso   1.00
H122   H     0.98201   0.01328   0.98748   0.00000  Uiso   1.00
H123   H     0.68456   0.82843   0.99913   0.00000  Uiso   1.00
H124   H     0.63902   0.84088   0.88084   0.00000  Uiso   1.00
H125   H     0.60498   0.81533   0.10630   0.00000  Uiso   1.00
H126   H     0.80626   0.81049   0.01385   0.00000  Uiso   1.00
H127   H     0.59387   0.88399   0.74410   0.00000  Uiso   1.00
H128   H     0.52213   0.83012   0.21950   0.00000  Uiso   1.00
H129   H     0.94655   0.81991   0.02454   0.00000  Uiso   1.00
O130   O     0.58236   0.99294   0.64698   0.00000  Uiso   1.00
O131   O     0.48825   0.92226   0.27069   0.00000  Uiso   1.00
O132   O     0.04509   0.90887   0.01491   0.00000  Uiso   1.00
N133   N     0.62724   0.03014   0.73198   0.00000  Uiso   1.00
N134   N     0.56016   0.97978   0.17644   0.00000  Uiso   1.00
N135   N     0.95696   0.97023   0.99420   0.00000  Uiso   1.00
N136   N     0.60817   0.92609   0.75192   0.00000  Uiso   1.00
N137   N     0.54108   0.87572   0.19639   0.00000  Uiso   1.00
N138   N     0.93788   0.86618   0.01414   0.00000  Uiso   1.00
C139   C     0.57948   0.44267   0.23386   0.00000  Uiso   1.00
C140   C     0.53486   0.38616   0.28128   0.00000  Uiso   1.00
C141   C     0.47086   0.38819   0.30489   0.00000  Uiso   1.00
C142   C     0.43825   0.33132   0.34785   0.00000  Uiso   1.00
C143   C     0.36434   0.25221   0.41862   0.00000  Uiso   1.00
C144   C     0.60167   0.42164   0.17214   0.00000  Uiso   1.00
C145   C     0.59386   0.45352   0.10399   0.00000  Uiso   1.00
C146   C     0.61750   0.42652   0.05508   0.00000  Uiso   1.00
C147   C     0.64736   0.40253   0.95641   0.00000  Uiso   1.00
C148   C     0.64021   0.44852   0.27166   0.00000  Uiso   1.00
C149   C     0.66481   0.50300   0.28717   0.00000  Uiso   1.00
C150   C     0.72092   0.49864   0.32203   0.00000  Uiso   1.00
C151   C     0.81061   0.51638   0.37788   0.00000  Uiso   1.00
C152   C     0.63537   0.33807   0.26817   0.00000  Uiso   1.00
C153   C     0.56522   0.32934   0.29991   0.00000  Uiso   1.00
C154   C     0.53270   0.27246   0.34285   0.00000  Uiso   1.00
C155   C     0.46867   0.27440   0.36653   0.00000  Uiso   1.00
C156   C     0.63203   0.36483   0.19078   0.00000  Uiso   1.00
C157   C     0.65570   0.33778   0.14195   0.00000  Uiso   1.00
C158   C     0.64792   0.36961   0.07375   0.00000  Uiso   1.00
C159   C     0.67057   0.39170   0.29030   0.00000  Uiso   1.00
C160   C     0.72665   0.38726   0.32514   0.00000  Uiso   1.00
C161   C     0.75133   0.44172   0.34070   0.00000  Uiso   1.00
H162   H     0.55584   0.48690   0.21934   0.00000  Uiso   1.00
H163   H     0.44738   0.43217   0.29045   0.00000  Uiso   1.00
H164   H     0.57037   0.49749   0.08959   0.00000  Uiso   1.00
H165   H     0.64131   0.54696   0.27274   0.00000  Uiso   1.00
H166   H     0.34051   0.34642   0.37749   0.00000  Uiso   1.00
H167   H     0.59985   0.48416   0.95395   0.00000  Uiso   1.00
H168   H     0.74945   0.58849   0.34016   0.00000  Uiso   1.00
H169   H     0.65901   0.29383   0.28268   0.00000  Uiso   1.00
H170   H     0.55620   0.22850   0.35727   0.00000  Uiso   1.00
H171   H     0.67919   0.29382   0.15639   0.00000  Uiso   1.00
H172   H     0.75013   0.34329   0.33955   0.00000  Uiso   1.00
H173   H     0.42884   0.18111   0.43171   0.00000  Uiso   1.00
H174   H     0.68818   0.31886   0.00817   0.00000  Uiso   1.00
H175   H     0.83777   0.42318   0.39438   0.00000  Uiso   1.00
O176   O     0.31518   0.22427   0.45250   0.00000  Uiso   1.00
O177   O     0.65544   0.40499   0.89683   0.00000  Uiso   1.00
O178   O     0.85169   0.54186   0.40354   0.00000  Uiso   1.00
N179   N     0.37541   0.31648   0.38002   0.00000  Uiso   1.00
N180   N     0.61787   0.44526   0.98404   0.00000  Uiso   1.00
N181   N     0.75774   0.54280   0.34510   0.00000  Uiso   1.00
N182   N     0.42294   0.22753   0.40920   0.00000  Uiso   1.00
N183   N     0.66540   0.35631   0.01322   0.00000  Uiso   1.00
N184   N     0.80526   0.45385   0.37428   0.00000  Uiso   1.00
C185   C     0.28799   0.46103   0.49757   0.00000  Uiso   1.00
C186   C     0.23055   0.49809   0.47114   0.00000  Uiso   1.00
C187   C     0.22264   0.52929   0.40284   0.00000  Uiso   1.00
C188   C     0.16670   0.56048   0.38923   0.00000  Uiso   1.00
C189   C     0.08454   0.61801   0.34016   0.00000  Uiso   1.00
C190   C     0.25860   0.39358   0.53891   0.00000  Uiso   1.00
C191   C     0.27430   0.33692   0.52759   0.00000  Uiso   1.00
C192   C     0.24198   0.28012   0.57104   0.00000  Uiso   1.00
C193   C     0.20342   0.17540   0.62721   0.00000  Uiso   1.00
C194   C     0.31637   0.49134   0.54932   0.00000  Uiso   1.00
C195   C     0.38064   0.51685   0.54676   0.00000  Uiso   1.00
C196   C     0.39696   0.54235   0.59898   0.00000  Uiso   1.00
C197   C     0.44807   0.58941   0.67131   0.00000  Uiso   1.00
C198   C     0.20270   0.46094   0.59485   0.00000  Uiso   1.00
C199   C     0.18422   0.49804   0.52398   0.00000  Uiso   1.00
C200   C     0.12828   0.52919   0.51047   0.00000  Uiso   1.00
C201   C     0.12030   0.56043   0.44216   0.00000  Uiso   1.00
C202   C     0.21228   0.39353   0.59175   0.00000  Uiso   1.00
C203   C     0.17994   0.33681   0.63522   0.00000  Uiso   1.00
C204   C     0.19558   0.28007   0.62397   0.00000  Uiso   1.00
C205   C     0.27004   0.49129   0.60215   0.00000  Uiso   1.00
C206   C     0.28627   0.51675   0.65439   0.00000  Uiso   1.00
C207   C     0.35055   0.54230   0.65192   0.00000  Uiso   1.00
H208   H     0.32406   0.46107   0.45643   0.00000  Uiso   1.00
H209   H     0.25850   0.52932   0.36196   0.00000  Uiso   1.00
H210   H     0.31016   0.33697   0.48670   0.00000  Uiso   1.00
H211   H     0.41647   0.51688   0.50587   0.00000  Uiso   1.00
H212   H     0.16538   0.60494   0.28053   0.00000  Uiso   1.00
H213   H     0.27431   0.19937   0.54356   0.00000  Uiso   1.00
H214   H     0.49850   0.57875   0.58397   0.00000  Uiso   1.00
H215   H     0.16663   0.46089   0.63599   0.00000  Uiso   1.00
H216   H     0.09244   0.52914   0.55137   0.00000  Uiso   1.00
H217   H     0.14409   0.33679   0.67611   0.00000  Uiso   1.00
H218   H     0.25041   0.51670   0.69527   0.00000  Uiso   1.00
H219   H     0.03060   0.60480   0.43426   0.00000  Uiso   1.00
H220   H     0.13953   0.19922   0.69730   0.00000  Uiso   1.00
H221   H     0.36372   0.57860   0.73770   0.00000  Uiso   1.00
O222   O     0.05201   0.64975   0.29849   0.00000  Uiso   1.00
O223   O     0.19494   0.11765   0.64359   0.00000  Uiso   1.00
O224   O     0.48906   0.61539   0.69660   0.00000  Uiso   1.00
N225   N     0.14385   0.59555   0.32833   0.00000  Uiso   1.00
N226   N     0.24569   0.21637   0.57424   0.00000  Uiso   1.00
N227   N     0.45529   0.57104   0.61203   0.00000  Uiso   1.00
N228   N     0.07132   0.59548   0.41105   0.00000  Uiso   1.00
N229   N     0.17316   0.21629   0.65696   0.00000  Uiso   1.00
N230   N     0.38276   0.57096   0.69475   0.00000  Uiso   1.00
C231   C     0.29970   0.65480   0.16454   0.00000  Uiso   1.00
C232   C     0.34964   0.66574   0.10323   0.00000  Uiso   1.00
C233   C     0.37727   0.61809   0.08243   0.00000  Uiso   1.00
C234   C     0.42200   0.63795   0.02504   0.00000  Uiso   1.00
C235   C     0.49703   0.64502   0.93518   0.00000  Uiso   1.00
C236   C     0.24100   0.68869   0.13616   0.00000  Uiso   1.00
C237   C     0.17729   0.66035   0.14307   0.00000  Uiso   1.00
C238   C     0.13057   0.69955   0.11341   0.00000  Uiso   1.00
C239   C     0.03693   0.74226   0.07472   0.00000  Uiso   1.00
C240   C     0.32921   0.69220   0.20973   0.00000  Uiso   1.00
C241   C     0.33964   0.66682   0.27849   0.00000  Uiso   1.00
C242   C     0.36717   0.70897   0.31077   0.00000  Uiso   1.00
C243   C     0.41047   0.75714   0.38630   0.00000  Uiso   1.00
C244   C     0.33001   0.77480   0.09960   0.00000  Uiso   1.00
C245   C     0.36610   0.73092   0.06795   0.00000  Uiso   1.00
C246   C     0.41081   0.75086   0.01058   0.00000  Uiso   1.00
C247   C     0.43850   0.70325   0.98970   0.00000  Uiso   1.00
C248   C     0.25746   0.75387   0.10089   0.00000  Uiso   1.00
C249   C     0.21083   0.79312   0.07121   0.00000  Uiso   1.00
C250   C     0.14706   0.76484   0.07807   0.00000  Uiso   1.00
C251   C     0.34567   0.75738   0.17445   0.00000  Uiso   1.00
C252   C     0.37318   0.79958   0.20663   0.00000  Uiso   1.00
C253   C     0.38366   0.77427   0.27543   0.00000  Uiso   1.00
H254   H     0.28688   0.60406   0.19201   0.00000  Uiso   1.00
H255   H     0.36451   0.56765   0.10974   0.00000  Uiso   1.00
H256   H     0.16457   0.60991   0.17038   0.00000  Uiso   1.00
H257   H     0.32690   0.61638   0.30577   0.00000  Uiso   1.00
H258   H     0.45783   0.55604   0.00297   0.00000  Uiso   1.00
H259   H     0.03623   0.64515   0.13083   0.00000  Uiso   1.00
H260   H     0.37853   0.65878   0.41634   0.00000  Uiso   1.00
H261   H     0.34282   0.82555   0.07213   0.00000  Uiso   1.00
H262   H     0.42353   0.80130   0.98329   0.00000  Uiso   1.00
H263   H     0.22358   0.84356   0.04392   0.00000  Uiso   1.00
H264   H     0.38591   0.85002   0.17932   0.00000  Uiso   1.00
H265   H     0.50573   0.74567   0.90033   0.00000  Uiso   1.00
H266   H     0.08413   0.83478   0.02820   0.00000  Uiso   1.00
H267   H     0.42643   0.84841   0.31371   0.00000  Uiso   1.00
O268   O     0.53385   0.63091   0.89536   0.00000  Uiso   1.00
O269   O     0.98073   0.74782   0.06312   0.00000  Uiso   1.00
O270   O     0.42982   0.76570   0.43770   0.00000  Uiso   1.00
N271   N     0.45804   0.60400   0.99101   0.00000  Uiso   1.00
N272   N     0.06387   0.68731   0.11055   0.00000  Uiso   1.00
N273   N     0.38388   0.70005   0.37748   0.00000  Uiso   1.00
N274   N     0.48382   0.70604   0.93579   0.00000  Uiso   1.00
N275   N     0.08964   0.78935   0.05532   0.00000  Uiso   1.00
N276   N     0.40965   0.80209   0.32226   0.00000  Uiso   1.00
C277   C     0.92395   0.46599   0.03734   0.00000  Uiso   1.00
C278   C     0.96775   0.46430   0.09533   0.00000  Uiso   1.00
C279   C     0.03297   0.48858   0.08731   0.00000  Uiso   1.00
C280   C     0.06452   0.48235   0.14678   0.00000  Uiso   1.00
C281   C     0.13747   0.48424   0.22692   0.00000  Uiso   1.00
C282   C     0.86548   0.50001   0.05145   0.00000  Uiso   1.00
C283   C     0.84471   0.55430   0.00652   0.00000  Uiso   1.00
C284   C     0.79016   0.57812   0.02905   0.00000  Uiso   1.00
C285   C     0.70430   0.63540   0.04104   0.00000  Uiso   1.00
C286   C     0.89754   0.39651   0.04738   0.00000  Uiso   1.00
C287   C     0.90371   0.36378   0.99904   0.00000  Uiso   1.00
C288   C     0.87613   0.30046   0.01813   0.00000  Uiso   1.00
C289   C     0.84005   0.19705   0.02382   0.00000  Uiso   1.00
C290   C     0.86400   0.41175   0.15721   0.00000  Uiso   1.00
C291   C     0.93518   0.43484   0.16044   0.00000  Uiso   1.00
C292   C     0.96664   0.42857   0.21993   0.00000  Uiso   1.00
C293   C     0.03190   0.45283   0.21201   0.00000  Uiso   1.00
C294   C     0.83291   0.47054   0.11655   0.00000  Uiso   1.00
C295   C     0.77838   0.49428   0.13915   0.00000  Uiso   1.00
C296   C     0.75753   0.54860   0.09427   0.00000  Uiso   1.00
C297   C     0.86497   0.36704   0.11249   0.00000  Uiso   1.00
C298   C     0.83737   0.30376   0.13166   0.00000  Uiso   1.00
C299   C     0.84350   0.27094   0.08336   0.00000  Uiso   1.00
H300   H     0.94930   0.48894   0.98665   0.00000  Uiso   1.00
H301   H     0.05816   0.51139   0.03692   0.00000  Uiso   1.00
H302   H     0.86992   0.57709   0.95614   0.00000  Uiso   1.00
H303   H     0.92891   0.38660   0.94866   0.00000  Uiso   1.00
H304   H     0.16447   0.52331   0.12136   0.00000  Uiso   1.00
H305   H     0.76755   0.66182   0.95103   0.00000  Uiso   1.00
H306   H     0.89194   0.26014   0.93525   0.00000  Uiso   1.00
H307   H     0.83864   0.38881   0.20790   0.00000  Uiso   1.00
H308   H     0.94142   0.40576   0.27031   0.00000  Uiso   1.00
H309   H     0.75319   0.47147   0.18953   0.00000  Uiso   1.00
H310   H     0.81218   0.28097   0.18205   0.00000  Uiso   1.00
H311   H     0.06973   0.43758   0.31080   0.00000  Uiso   1.00
H312   H     0.67280   0.57610   0.14046   0.00000  Uiso   1.00
H313   H     0.79719   0.17441   0.12468   0.00000  Uiso   1.00
O314   O     0.18671   0.49343   0.25314   0.00000  Uiso   1.00
O315   O     0.66595   0.67515   0.02967   0.00000  Uiso   1.00
O316   O     0.82915   0.14814   0.00897   0.00000  Uiso   1.00
N317   N     0.12807   0.50079   0.15738   0.00000  Uiso   1.00
N318   N     0.75698   0.63031   0.99813   0.00000  Uiso   1.00
N319   N     0.87326   0.25477   0.98337   0.00000  Uiso   1.00
N320   N     0.07709   0.45467   0.25931   0.00000  Uiso   1.00
N321   N     0.70600   0.58418   0.10007   0.00000  Uiso   1.00
N322   N     0.82228   0.20864   0.08531   0.00000  Uiso   1.00
C323   C     0.19614   0.04623   0.18096   0.00000  Uiso   1.00
C324   C     0.25988   0.05040   0.21444   0.00000  Uiso   1.00
C325   C     0.28754   0.10378   0.22999   0.00000  Uiso   1.00
C326   C     0.34607   0.09794   0.26055   0.00000  Uiso   1.00
C327   C     0.44051   0.11310   0.31038   0.00000  Uiso   1.00
C328   C     0.15303   0.98939   0.22985   0.00000  Uiso   1.00
C329   C     0.09083   0.99148   0.25835   0.00000  Uiso   1.00
C330   C     0.05941   0.93427   0.30187   0.00000  Uiso   1.00
C331   C     0.98793   0.85471   0.37557   0.00000  Uiso   1.00
C332   C     0.21302   0.02674   0.11683   0.00000  Uiso   1.00
C333   C     0.20125   0.06021   0.05031   0.00000  Uiso   1.00
C334   C     0.22032   0.03444   0.99868   0.00000  Uiso   1.00
C335   C     0.24199   0.01286   0.89691   0.00000  Uiso   1.00
C336   C     0.25090   0.94093   0.20758   0.00000  Uiso   1.00
C337   C     0.28963   0.99321   0.22890   0.00000  Uiso   1.00
C338   C     0.34813   0.98728   0.25944   0.00000  Uiso   1.00
C339   C     0.37587   0.04065   0.27504   0.00000  Uiso   1.00
C340   C     0.18277   0.93220   0.24431   0.00000  Uiso   1.00
C341   C     0.15142   0.87498   0.28780   0.00000  Uiso   1.00
C342   C     0.08920   0.87698   0.31636   0.00000  Uiso   1.00
C343   C     0.24276   0.96954   0.13129   0.00000  Uiso   1.00
C344   C     0.26185   0.94371   0.07976   0.00000  Uiso   1.00
C345   C     0.25012   0.97714   0.01317   0.00000  Uiso   1.00
H346   H     0.17298   0.09075   0.16970   0.00000  Uiso   1.00
H347   H     0.26450   0.14803   0.21880   0.00000  Uiso   1.00
H348   H     0.06783   0.03574   0.24714   0.00000  Uiso   1.00
H349   H     0.17824   0.10447   0.03914   0.00000  Uiso   1.00
H350   H     0.37908   0.18630   0.27963   0.00000  Uiso   1.00
H351   H     0.96437   0.94953   0.33937   0.00000  Uiso   1.00
H352   H     0.19719   0.09445   0.90076   0.00000  Uiso   1.00
H353   H     0.27405   0.89640   0.21883   0.00000  Uiso   1.00
H354   H     0.37113   0.94302   0.27063   0.00000  Uiso   1.00
H355   H     0.17445   0.83073   0.29897   0.00000  Uiso   1.00
H356   H     0.28486   0.89945   0.09097   0.00000  Uiso   1.00
H357   H     0.46563   0.01991   0.32170   0.00000  Uiso   1.00
H358   H     0.05091   0.78313   0.38144   0.00000  Uiso   1.00
H359   H     0.28373   0.92805   0.94282   0.00000  Uiso   1.00
O360   O     0.48438   0.13727   0.33387   0.00000  Uiso   1.00
O361   O     0.94029   0.82663   0.41224   0.00000  Uiso   1.00
O362   O     0.24574   0.01676   0.83678   0.00000  Uiso   1.00
N363   N     0.38614   0.14075   0.28241   0.00000  Uiso   1.00
N364   N     0.99841   0.91938   0.33828   0.00000  Uiso   1.00
N365   N     0.21605   0.05486   0.92821   0.00000  Uiso   1.00
N366   N     0.43270   0.05121   0.30505   0.00000  Uiso   1.00
N367   N     0.04498   0.82985   0.36091   0.00000  Uiso   1.00
N368   N     0.26262   0.96533   0.95084   0.00000  Uiso   1.00
C369   C     0.27164   0.25745   0.88868   0.00000  Uiso   1.00
C370   C     0.31179   0.31396   0.90110   0.00000  Uiso   1.00
C371   C     0.34064   0.31319   0.96097   0.00000  Uiso   1.00
C372   C     0.37538   0.36980   0.96215   0.00000  Uiso   1.00
C373   C     0.43689   0.44911   0.99004   0.00000  Uiso   1.00
C374   C     0.30455   0.24754   0.82441   0.00000  Uiso   1.00
C375   C     0.32732   0.19093   0.81981   0.00000  Uiso   1.00
C376   C     0.35595   0.19164   0.75643   0.00000  Uiso   1.00
C377   C     0.40619   0.16782   0.66525   0.00000  Uiso   1.00
C378   C     0.20568   0.28070   0.86901   0.00000  Uiso   1.00
C379   C     0.14531   0.25196   0.90189   0.00000  Uiso   1.00
C380   C     0.09069   0.28057   0.87606   0.00000  Uiso   1.00
C381   C     0.98742   0.30823   0.85413   0.00000  Uiso   1.00
C382   C     0.28201   0.35936   0.78432   0.00000  Uiso   1.00
C383   C     0.31742   0.36931   0.84441   0.00000  Uiso   1.00
C384   C     0.35212   0.42594   0.84550   0.00000  Uiso   1.00
C385   C     0.38102   0.42526   0.90536   0.00000  Uiso   1.00
C386   C     0.31019   0.30289   0.76773   0.00000  Uiso   1.00
C387   C     0.33879   0.30368   0.70434   0.00000  Uiso   1.00
C388   C     0.36160   0.24709   0.69964   0.00000  Uiso   1.00
C389   C     0.21131   0.33605   0.81233   0.00000  Uiso   1.00
C390   C     0.15679   0.36471   0.78643   0.00000  Uiso   1.00
C391   C     0.09634   0.33602   0.81927   0.00000  Uiso   1.00
H392   H     0.26725   0.21436   0.93281   0.00000  Uiso   1.00
H393   H     0.33628   0.27034   0.00482   0.00000  Uiso   1.00
H394   H     0.32294   0.14810   0.86368   0.00000  Uiso   1.00
H395   H     0.14097   0.20912   0.94576   0.00000  Uiso   1.00
H396   H     0.41531   0.35681   0.05965   0.00000  Uiso   1.00
H397   H     0.38718   0.09906   0.76204   0.00000  Uiso   1.00
H398   H     0.00344   0.22773   0.93512   0.00000  Uiso   1.00
H399   H     0.28640   0.40246   0.74018   0.00000  Uiso   1.00
H400   H     0.35647   0.46877   0.80163   0.00000  Uiso   1.00
H401   H     0.34314   0.34652   0.66049   0.00000  Uiso   1.00
H402   H     0.16116   0.40754   0.74256   0.00000  Uiso   1.00
H403   H     0.43170   0.51786   0.89473   0.00000  Uiso   1.00
H404   H     0.40357   0.26010   0.59712   0.00000  Uiso   1.00
H405   H     0.01983   0.38878   0.77020   0.00000  Uiso   1.00
O406   O     0.46928   0.47756   0.02108   0.00000  Uiso   1.00
O407   O     0.43236   0.13939   0.63062   0.00000  Uiso   1.00
O408   O     0.92890   0.30820   0.85770   0.00000  Uiso   1.00
N409   N     0.40954   0.38562   0.01241   0.00000  Uiso   1.00
N410   N     0.38325   0.14464   0.73417   0.00000  Uiso   1.00
N411   N     0.02448   0.26492   0.89596   0.00000  Uiso   1.00
N412   N     0.41836   0.47228   0.92367   0.00000  Uiso   1.00
N413   N     0.39207   0.23130   0.64542   0.00000  Uiso   1.00
N414   N     0.03330   0.35158   0.80722   0.00000  Uiso   1.00
C415   C     0.38637   0.82276   0.59288   0.00000  Uiso   1.00
C416   C     0.43145   0.87825   0.54443   0.00000  Uiso   1.00
C417   C     0.49513   0.87498   0.52079   0.00000  Uiso   1.00
C418   C     0.52826   0.93105   0.47680   0.00000  Uiso   1.00
C419   C     0.60278   0.00851   0.40457   0.00000  Uiso   1.00
C420   C     0.36513   0.84530   0.65384   0.00000  Uiso   1.00
C421   C     0.37304   0.81433   0.72220   0.00000  Uiso   1.00
C422   C     0.35033   0.84267   0.77031   0.00000  Uiso   1.00
C423   C     0.32184   0.86895   0.86796   0.00000  Uiso   1.00
C424   C     0.32524   0.81696   0.55565   0.00000  Uiso   1.00
C425   C     0.29959   0.76215   0.54146   0.00000  Uiso   1.00
C426   C     0.24329   0.76663   0.50691   0.00000  Uiso   1.00
C427   C     0.15286   0.74891   0.45210   0.00000  Uiso   1.00
C428   C     0.33198   0.92817   0.55679   0.00000  Uiso   1.00
C429   C     0.40191   0.93550   0.52482   0.00000  Uiso   1.00
C430   C     0.43496   0.99160   0.48086   0.00000  Uiso   1.00
C431   C     0.49867   0.98841   0.45716   0.00000  Uiso   1.00
C432   C     0.33559   0.90256   0.63424   0.00000  Uiso   1.00
C433   C     0.31287   0.93095   0.68227   0.00000  Uiso   1.00
C434   C     0.32074   0.90003   0.75068   0.00000  Uiso   1.00
C435   C     0.29570   0.87422   0.53604   0.00000  Uiso   1.00
C436   C     0.23942   0.87878   0.50152   0.00000  Uiso   1.00
C437   C     0.21370   0.82399   0.48727   0.00000  Uiso   1.00
H438   H     0.40936   0.77819   0.60815   0.00000  Uiso   1.00
H439   H     0.51797   0.83066   0.53598   0.00000  Uiso   1.00
H440   H     0.39590   0.77002   0.73735   0.00000  Uiso   1.00
H441   H     0.32247   0.71786   0.55663   0.00000  Uiso   1.00
H442   H     0.62537   0.91409   0.44734   0.00000  Uiso   1.00
H443   H     0.36794   0.78621   0.87195   0.00000  Uiso   1.00
H444   H     0.21310   0.67622   0.49088   0.00000  Uiso   1.00
H445   H     0.30898   0.97275   0.54153   0.00000  Uiso   1.00
H446   H     0.41208   0.03590   0.46570   0.00000  Uiso   1.00
H447   H     0.29001   0.97525   0.66708   0.00000  Uiso   1.00
H448   H     0.21658   0.92309   0.48636   0.00000  Uiso   1.00
H449   H     0.53943   0.08068   0.39030   0.00000  Uiso   1.00
H450   H     0.28200   0.95279   0.81492   0.00000  Uiso   1.00
H451   H     0.12715   0.84280   0.43383   0.00000  Uiso   1.00
O452   O     0.65204   0.03542   0.37016   0.00000  Uiso   1.00
O453   O     0.31430   0.86764   0.92724   0.00000  Uiso   1.00
O454   O     0.11115   0.72333   0.42727   0.00000  Uiso   1.00
N455   N     0.59099   0.94463   0.44431   0.00000  Uiso   1.00
N456   N     0.35032   0.82507   0.84130   0.00000  Uiso   1.00
N457   N     0.20554   0.72223   0.48504   0.00000  Uiso   1.00
N458   N     0.54474   0.03426   0.41362   0.00000  Uiso   1.00
N459   N     0.30407   0.91471   0.81061   0.00000  Uiso   1.00
N460   N     0.15930   0.81186   0.45434   0.00000  Uiso   1.00
C461   C     0.69763   0.78107   0.32804   0.00000  Uiso   1.00
C462   C     0.76190   0.75194   0.34291   0.00000  Uiso   1.00
C463   C     0.78166   0.72313   0.40760   0.00000  Uiso   1.00
C464   C     0.84220   0.69943   0.41033   0.00000  Uiso   1.00
C465   C     0.93603   0.65347   0.44252   0.00000  Uiso   1.00
C466   C     0.71599   0.85045   0.28403   0.00000  Uiso   1.00
C467   C     0.69714   0.90447   0.29922   0.00000  Uiso   1.00
C468   C     0.71903   0.96369   0.25238   0.00000  Uiso   1.00
C469   C     0.74154   0.07067   0.19313   0.00000  Uiso   1.00
C470   C     0.66460   0.74709   0.28167   0.00000  Uiso   1.00
C471   C     0.60253   0.71421   0.29487   0.00000  Uiso   1.00
C472   C     0.58115   0.68641   0.24604   0.00000  Uiso   1.00
C473   C     0.52387   0.63290   0.18313   0.00000  Uiso   1.00
C474   C     0.77001   0.79020   0.21784   0.00000  Uiso   1.00
C475   C     0.80121   0.75690   0.28305   0.00000  Uiso   1.00
C476   C     0.86174   0.73323   0.28568   0.00000  Uiso   1.00
C477   C     0.88158   0.70439   0.35037   0.00000  Uiso   1.00
C478   C     0.75530   0.85541   0.22417   0.00000  Uiso   1.00
C479   C     0.77722   0.91456   0.17730   0.00000  Uiso   1.00
C480   C     0.75841   0.96866   0.19241   0.00000  Uiso   1.00
C481   C     0.70391   0.75204   0.22182   0.00000  Uiso   1.00
C482   C     0.68262   0.72429   0.17295   0.00000  Uiso   1.00
C483   C     0.62053   0.69138   0.18607   0.00000  Uiso   1.00
H484   H     0.66702   0.77722   0.37464   0.00000  Uiso   1.00
H485   H     0.75122   0.71932   0.45391   0.00000  Uiso   1.00
H486   H     0.66671   0.90062   0.34554   0.00000  Uiso   1.00
H487   H     0.57213   0.71038   0.34120   0.00000  Uiso   1.00
H488   H     0.86192   0.65732   0.51540   0.00000  Uiso   1.00
H489   H     0.68371   0.03961   0.28689   0.00000  Uiso   1.00
H490   H     0.48425   0.63846   0.27772   0.00000  Uiso   1.00
H491   H     0.80061   0.79405   0.17124   0.00000  Uiso   1.00
H492   H     0.89215   0.73707   0.23935   0.00000  Uiso   1.00
H493   H     0.80764   0.91838   0.13098   0.00000  Uiso   1.00
H494   H     0.71305   0.72814   0.12663   0.00000  Uiso   1.00
H495   H     0.97630   0.67173   0.34125   0.00000  Uiso   1.00
H496   H     0.79809   0.05403   0.11274   0.00000  Uiso   1.00
H497   H     0.59863   0.65287   0.10357   0.00000  Uiso   1.00
O498   O     0.97692   0.62676   0.47680   0.00000  Uiso   1.00
O499   O     0.74310   0.12831   0.17699   0.00000  Uiso   1.00
O500   O     0.48142   0.60200   0.16497   0.00000  Uiso   1.00
N501   N     0.87627   0.66852   0.46507   0.00000  Uiso   1.00
N502   N     0.70966   0.02594   0.25143   0.00000  Uiso   1.00
N503   N     0.52318   0.65091   0.24285   0.00000  Uiso   1.00
N504   N     0.93782   0.67628   0.37136   0.00000  Uiso   1.00
N505   N     0.77121   0.03370   0.15772   0.00000  Uiso   1.00
N506   N     0.58473   0.65867   0.14914   0.00000  Uiso   1.00
C507   C     0.69290   0.56420   0.59702   0.00000  Uiso   1.00
C508   C     0.66645   0.60208   0.64258   0.00000  Uiso   1.00
C509   C     0.66083   0.66756   0.62220   0.00000  Uiso   1.00
C510   C     0.63547   0.69314   0.67157   0.00000  Uiso   1.00
C511   C     0.59733   0.75783   0.73209   0.00000  Uiso   1.00
C512   C     0.74897   0.53096   0.63294   0.00000  Uiso   1.00
C513   C     0.81272   0.53665   0.60445   0.00000  Uiso   1.00
C514   C     0.85681   0.50236   0.64570   0.00000  Uiso   1.00
C515   C     0.94677   0.45660   0.69123   0.00000  Uiso   1.00
C516   C     0.63926   0.51090   0.60045   0.00000  Uiso   1.00
C517   C     0.61077   0.49970   0.54464   0.00000  Uiso   1.00
C518   C     0.56251   0.44851   0.55853   0.00000  Uiso   1.00
C519   C     0.48213   0.37160   0.55361   0.00000  Uiso   1.00
C520   C     0.65785   0.49319   0.72093   0.00000  Uiso   1.00
C521   C     0.64742   0.56351   0.70989   0.00000  Uiso   1.00
C522   C     0.62205   0.58900   0.75929   0.00000  Uiso   1.00
C523   C     0.61639   0.65451   0.73899   0.00000  Uiso   1.00
C524   C     0.72993   0.49239   0.70024   0.00000  Uiso   1.00
C525   C     0.77394   0.45809   0.74154   0.00000  Uiso   1.00
C526   C     0.83774   0.46372   0.71312   0.00000  Uiso   1.00
C527   C     0.62022   0.47233   0.66775   0.00000  Uiso   1.00
C528   C     0.57200   0.42114   0.68173   0.00000  Uiso   1.00
C529   C     0.54344   0.40987   0.62595   0.00000  Uiso   1.00
H530   H     0.70772   0.59423   0.54463   0.00000  Uiso   1.00
H531   H     0.67557   0.69739   0.57012   0.00000  Uiso   1.00
H532   H     0.82743   0.56650   0.55237   0.00000  Uiso   1.00
H533   H     0.62552   0.52956   0.49257   0.00000  Uiso   1.00
H534   H     0.63156   0.79477   0.62807   0.00000  Uiso   1.00
H535   H     0.95176   0.51875   0.59063   0.00000  Uiso   1.00
H536   H     0.52598   0.44085   0.46453   0.00000  Uiso   1.00
H537   H     0.64303   0.46316   0.77333   0.00000  Uiso   1.00
H538   H     0.60733   0.55914   0.81137   0.00000  Uiso   1.00
H539   H     0.75919   0.42824   0.79362   0.00000  Uiso   1.00
H540   H     0.55728   0.39130   0.73382   0.00000  Uiso   1.00
H541   H     0.57617   0.68255   0.82388   0.00000  Uiso   1.00
H542   H     0.89637   0.40653   0.78644   0.00000  Uiso   1.00
H543   H     0.47060   0.32864   0.66034   0.00000  Uiso   1.00
O544   O     0.58157   0.80417   0.74688   0.00000  Uiso   1.00
O545   O     0.00165   0.44203   0.69775   0.00000  Uiso   1.00
O546   O     0.44304   0.33984   0.53231   0.00000  Uiso   1.00
N547   N     0.62341   0.75518   0.66893   0.00000  Uiso   1.00
N548   N     0.92278   0.49713   0.63393   0.00000  Uiso   1.00
N549   N     0.52473   0.42429   0.51603   0.00000  Uiso   1.00
N550   N     0.59361   0.69480   0.77429   0.00000  Uiso   1.00
N551   N     0.89298   0.43675   0.73929   0.00000  Uiso   1.00
N552   N     0.49492   0.36391   0.62140   0.00000  Uiso   1.00
