data_job_05499
_audit_creation_date              2018-12-19
_audit_creation_method            'Materials Studio'
_symmetry_space_group_name_H-M    'P1'
_symmetry_Int_Tables_number       1
_symmetry_cell_setting            triclinic
loop_
_symmetry_equiv_pos_as_xyz
  x,y,z
_cell_length_a                    15.2446
_cell_length_b                    7.4285
_cell_length_c                    26.5689
_cell_angle_alpha                 90.0000
_cell_angle_beta                  127.0161
_cell_angle_gamma                 90.0000
loop_
_atom_site_label
_atom_site_type_symbol
_atom_site_fract_x
_atom_site_fract_y
_atom_site_fract_z
_atom_site_U_iso_or_equiv
_atom_site_adp_type
_atom_site_occupancy
C1     C     0.19332   0.47045   0.67348   0.00000  Uiso   1.00
C2     C     0.18186   0.62310   0.63151   0.00000  Uiso   1.00
C3     C     0.19158   0.60664   0.58302   0.00000  Uiso   1.00
C4     C     0.17833   0.76231   0.55017   0.00000  Uiso   1.00
C5     C     0.16397   0.97410   0.48272   0.00000  Uiso   1.00
C6     C     0.28325   0.52859   0.74104   0.00000  Uiso   1.00
C7     C     0.37819   0.43266   0.78466   0.00000  Uiso   1.00
C8     C     0.45028   0.50876   0.84402   0.00000  Uiso   1.00
C9     C     0.59329   0.57376   0.94664   0.00000  Uiso   1.00
C10    C     0.08689   0.46916   0.66698   0.00000  Uiso   1.00
C11    C     0.01674   0.32324   0.64834   0.00000  Uiso   1.00
C12    C     0.92352   0.34930   0.64537   0.00000  Uiso   1.00
C13    C     0.76165   0.32203   0.63300   0.00000  Uiso   1.00
C14    C     0.15252   0.77617   0.70135   0.00000  Uiso   1.00
C15    C     0.15971   0.78916   0.64665   0.00000  Uiso   1.00
C16    C     0.14644   0.94489   0.61386   0.00000  Uiso   1.00
C17    C     0.15612   0.92867   0.56534   0.00000  Uiso   1.00
C18    C     0.26109   0.69464   0.75618   0.00000  Uiso   1.00
C19    C     0.33305   0.77090   0.81549   0.00000  Uiso   1.00
C20    C     0.42809   0.67512   0.85919   0.00000  Uiso   1.00
C21    C     0.06472   0.63522   0.68212   0.00000  Uiso   1.00
C22    C     0.97160   0.66150   0.67918   0.00000  Uiso   1.00
C23    C     0.90132   0.51566   0.66053   0.00000  Uiso   1.00
H24    H     0.21058   0.34117   0.66169   0.00000  Uiso   1.00
H25    H     0.20874   0.47811   0.57133   0.00000  Uiso   1.00
H26    H     0.39532   0.30415   0.77293   0.00000  Uiso   1.00
H27    H     0.03392   0.19477   0.63663   0.00000  Uiso   1.00
H28    H     0.19697   0.70319   0.47783   0.00000  Uiso   1.00
H29    H     0.59036   0.33634   0.90293   0.00000  Uiso   1.00
H30    H     0.82829   0.10568   0.61552   0.00000  Uiso   1.00
H31    H     0.13526   0.90546   0.71314   0.00000  Uiso   1.00
H32    H     0.12929   0.07338   0.62559   0.00000  Uiso   1.00
H33    H     0.31587   0.89940   0.82719   0.00000  Uiso   1.00
H34    H     0.95448   0.79002   0.69090   0.00000  Uiso   1.00
H35    H     0.13249   0.18633   0.52187   0.00000  Uiso   1.00
H36    H     0.52588   0.81947   0.94697   0.00000  Uiso   1.00
H37    H     0.76381   0.58881   0.65956   0.00000  Uiso   1.00
O38    O     0.16219   0.04505   0.44134   0.00000  Uiso   1.00
O39    O     0.67830   0.56374   0.99906   0.00000  Uiso   1.00
O40    O     0.67848   0.26112   0.62199   0.00000  Uiso   1.00
N41    N     0.18259   0.79385   0.50020   0.00000  Uiso   1.00
N42    N     0.55040   0.45088   0.89764   0.00000  Uiso   1.00
N43    N     0.83794   0.23521   0.62896   0.00000  Uiso   1.00
N44    N     0.14789   0.05382   0.52390   0.00000  Uiso   1.00
N45    N     0.51570   0.71085   0.92134   0.00000  Uiso   1.00
N46    N     0.80324   0.49518   0.65265   0.00000  Uiso   1.00
C47    C     0.80668   0.47045   0.82652   0.00000  Uiso   1.00
C48    C     0.81814   0.62310   0.86849   0.00000  Uiso   1.00
C49    C     0.80842   0.60664   0.91698   0.00000  Uiso   1.00
C50    C     0.82167   0.76231   0.94983   0.00000  Uiso   1.00
C51    C     0.83603   0.97410   0.01728   0.00000  Uiso   1.00
C52    C     0.71675   0.52859   0.75896   0.00000  Uiso   1.00
C53    C     0.62181   0.43266   0.71534   0.00000  Uiso   1.00
C54    C     0.54972   0.50876   0.65598   0.00000  Uiso   1.00
C55    C     0.40671   0.57376   0.55336   0.00000  Uiso   1.00
C56    C     0.91311   0.46916   0.83302   0.00000  Uiso   1.00
C57    C     0.98326   0.32324   0.85166   0.00000  Uiso   1.00
C58    C     0.07648   0.34930   0.85463   0.00000  Uiso   1.00
C59    C     0.23835   0.32203   0.86700   0.00000  Uiso   1.00
C60    C     0.84748   0.77617   0.79865   0.00000  Uiso   1.00
C61    C     0.84029   0.78916   0.85335   0.00000  Uiso   1.00
C62    C     0.85356   0.94489   0.88614   0.00000  Uiso   1.00
C63    C     0.84388   0.92867   0.93466   0.00000  Uiso   1.00
C64    C     0.73891   0.69464   0.74382   0.00000  Uiso   1.00
C65    C     0.66695   0.77090   0.68451   0.00000  Uiso   1.00
C66    C     0.57191   0.67512   0.64081   0.00000  Uiso   1.00
C67    C     0.93528   0.63522   0.81788   0.00000  Uiso   1.00
C68    C     0.02840   0.66150   0.82082   0.00000  Uiso   1.00
C69    C     0.09868   0.51566   0.83947   0.00000  Uiso   1.00
H70    H     0.78942   0.34117   0.83831   0.00000  Uiso   1.00
H71    H     0.79126   0.47811   0.92867   0.00000  Uiso   1.00
H72    H     0.60468   0.30415   0.72707   0.00000  Uiso   1.00
H73    H     0.96608   0.19477   0.86337   0.00000  Uiso   1.00
H74    H     0.80303   0.70319   0.02217   0.00000  Uiso   1.00
H75    H     0.40964   0.33634   0.59707   0.00000  Uiso   1.00
H76    H     0.17171   0.10568   0.88448   0.00000  Uiso   1.00
H77    H     0.86474   0.90546   0.78686   0.00000  Uiso   1.00
H78    H     0.87071   0.07338   0.87441   0.00000  Uiso   1.00
H79    H     0.68413   0.89940   0.67281   0.00000  Uiso   1.00
H80    H     0.04552   0.79002   0.80910   0.00000  Uiso   1.00
H81    H     0.86751   0.18633   0.97813   0.00000  Uiso   1.00
H82    H     0.47412   0.81947   0.55303   0.00000  Uiso   1.00
H83    H     0.23619   0.58881   0.84044   0.00000  Uiso   1.00
O84    O     0.83781   0.04505   0.05866   0.00000  Uiso   1.00
O85    O     0.32170   0.56374   0.50094   0.00000  Uiso   1.00
O86    O     0.32152   0.26112   0.87801   0.00000  Uiso   1.00
N87    N     0.81741   0.79385   0.99980   0.00000  Uiso   1.00
N88    N     0.44960   0.45088   0.60236   0.00000  Uiso   1.00
N89    N     0.16206   0.23521   0.87104   0.00000  Uiso   1.00
N90    N     0.85211   0.05382   0.97610   0.00000  Uiso   1.00
N91    N     0.48430   0.71085   0.57866   0.00000  Uiso   1.00
N92    N     0.19676   0.49518   0.84735   0.00000  Uiso   1.00
C93    C     0.80668   0.52955   0.32652   0.00000  Uiso   1.00
C94    C     0.81814   0.37690   0.36849   0.00000  Uiso   1.00
C95    C     0.80842   0.39336   0.41698   0.00000  Uiso   1.00
C96    C     0.82167   0.23769   0.44983   0.00000  Uiso   1.00
C97    C     0.83603   0.02590   0.51728   0.00000  Uiso   1.00
C98    C     0.71675   0.47141   0.25896   0.00000  Uiso   1.00
C99    C     0.62181   0.56734   0.21534   0.00000  Uiso   1.00
C100   C     0.54972   0.49124   0.15598   0.00000  Uiso   1.00
C101   C     0.40671   0.42624   0.05336   0.00000  Uiso   1.00
C102   C     0.91311   0.53084   0.33302   0.00000  Uiso   1.00
C103   C     0.98326   0.67676   0.35166   0.00000  Uiso   1.00
C104   C     0.07648   0.65070   0.35463   0.00000  Uiso   1.00
C105   C     0.23835   0.67797   0.36700   0.00000  Uiso   1.00
C106   C     0.84748   0.22383   0.29865   0.00000  Uiso   1.00
C107   C     0.84029   0.21084   0.35335   0.00000  Uiso   1.00
C108   C     0.85356   0.05511   0.38614   0.00000  Uiso   1.00
C109   C     0.84388   0.07133   0.43466   0.00000  Uiso   1.00
C110   C     0.73891   0.30536   0.24382   0.00000  Uiso   1.00
C111   C     0.66695   0.22910   0.18451   0.00000  Uiso   1.00
C112   C     0.57191   0.32488   0.14081   0.00000  Uiso   1.00
C113   C     0.93528   0.36478   0.31788   0.00000  Uiso   1.00
C114   C     0.02840   0.33850   0.32082   0.00000  Uiso   1.00
C115   C     0.09868   0.48434   0.33947   0.00000  Uiso   1.00
H116   H     0.78942   0.65883   0.33831   0.00000  Uiso   1.00
H117   H     0.79126   0.52189   0.42867   0.00000  Uiso   1.00
H118   H     0.60468   0.69585   0.22707   0.00000  Uiso   1.00
H119   H     0.96608   0.80523   0.36337   0.00000  Uiso   1.00
H120   H     0.80303   0.29681   0.52217   0.00000  Uiso   1.00
H121   H     0.40964   0.66366   0.09707   0.00000  Uiso   1.00
H122   H     0.17171   0.89432   0.38448   0.00000  Uiso   1.00
H123   H     0.86474   0.09454   0.28686   0.00000  Uiso   1.00
H124   H     0.87071   0.92662   0.37441   0.00000  Uiso   1.00
H125   H     0.68413   0.10060   0.17281   0.00000  Uiso   1.00
H126   H     0.04552   0.20998   0.30910   0.00000  Uiso   1.00
H127   H     0.86751   0.81367   0.47813   0.00000  Uiso   1.00
H128   H     0.47412   0.18053   0.05303   0.00000  Uiso   1.00
H129   H     0.23619   0.41119   0.34044   0.00000  Uiso   1.00
O130   O     0.83781   0.95495   0.55866   0.00000  Uiso   1.00
O131   O     0.32170   0.43626   0.00094   0.00000  Uiso   1.00
O132   O     0.32152   0.73888   0.37801   0.00000  Uiso   1.00
N133   N     0.81741   0.20615   0.49980   0.00000  Uiso   1.00
N134   N     0.44960   0.54912   0.10236   0.00000  Uiso   1.00
N135   N     0.16206   0.76479   0.37104   0.00000  Uiso   1.00
N136   N     0.85211   0.94618   0.47610   0.00000  Uiso   1.00
N137   N     0.48430   0.28915   0.07866   0.00000  Uiso   1.00
N138   N     0.19676   0.50482   0.34735   0.00000  Uiso   1.00
C139   C     0.19332   0.52955   0.17348   0.00000  Uiso   1.00
C140   C     0.18186   0.37690   0.13151   0.00000  Uiso   1.00
C141   C     0.19158   0.39336   0.08302   0.00000  Uiso   1.00
C142   C     0.17833   0.23769   0.05017   0.00000  Uiso   1.00
C143   C     0.16397   0.02590   0.98272   0.00000  Uiso   1.00
C144   C     0.28325   0.47141   0.24104   0.00000  Uiso   1.00
C145   C     0.37819   0.56734   0.28466   0.00000  Uiso   1.00
C146   C     0.45028   0.49124   0.34402   0.00000  Uiso   1.00
C147   C     0.59329   0.42624   0.44664   0.00000  Uiso   1.00
C148   C     0.08689   0.53084   0.16698   0.00000  Uiso   1.00
C149   C     0.01674   0.67676   0.14834   0.00000  Uiso   1.00
C150   C     0.92352   0.65070   0.14537   0.00000  Uiso   1.00
C151   C     0.76165   0.67797   0.13300   0.00000  Uiso   1.00
C152   C     0.15252   0.22383   0.20135   0.00000  Uiso   1.00
C153   C     0.15971   0.21084   0.14665   0.00000  Uiso   1.00
C154   C     0.14644   0.05511   0.11386   0.00000  Uiso   1.00
C155   C     0.15612   0.07133   0.06534   0.00000  Uiso   1.00
C156   C     0.26109   0.30536   0.25618   0.00000  Uiso   1.00
C157   C     0.33305   0.22910   0.31549   0.00000  Uiso   1.00
C158   C     0.42809   0.32488   0.35919   0.00000  Uiso   1.00
C159   C     0.06472   0.36478   0.18212   0.00000  Uiso   1.00
C160   C     0.97160   0.33850   0.17918   0.00000  Uiso   1.00
C161   C     0.90132   0.48434   0.16053   0.00000  Uiso   1.00
H162   H     0.21058   0.65883   0.16169   0.00000  Uiso   1.00
H163   H     0.20874   0.52189   0.07133   0.00000  Uiso   1.00
H164   H     0.39532   0.69585   0.27293   0.00000  Uiso   1.00
H165   H     0.03392   0.80523   0.13663   0.00000  Uiso   1.00
H166   H     0.19697   0.29681   0.97783   0.00000  Uiso   1.00
H167   H     0.59036   0.66366   0.40293   0.00000  Uiso   1.00
H168   H     0.82829   0.89432   0.11552   0.00000  Uiso   1.00
H169   H     0.13526   0.09454   0.21314   0.00000  Uiso   1.00
H170   H     0.12929   0.92662   0.12559   0.00000  Uiso   1.00
H171   H     0.31587   0.10060   0.32719   0.00000  Uiso   1.00
H172   H     0.95448   0.20998   0.19090   0.00000  Uiso   1.00
H173   H     0.13249   0.81367   0.02187   0.00000  Uiso   1.00
H174   H     0.52588   0.18053   0.44697   0.00000  Uiso   1.00
H175   H     0.76381   0.41119   0.15956   0.00000  Uiso   1.00
O176   O     0.16219   0.95495   0.94134   0.00000  Uiso   1.00
O177   O     0.67830   0.43626   0.49906   0.00000  Uiso   1.00
O178   O     0.67848   0.73888   0.12199   0.00000  Uiso   1.00
N179   N     0.18259   0.20615   0.00020   0.00000  Uiso   1.00
N180   N     0.55040   0.54912   0.39764   0.00000  Uiso   1.00
N181   N     0.83794   0.76479   0.12896   0.00000  Uiso   1.00
N182   N     0.14789   0.94618   0.02390   0.00000  Uiso   1.00
N183   N     0.51570   0.28915   0.42134   0.00000  Uiso   1.00
N184   N     0.80324   0.50482   0.15265   0.00000  Uiso   1.00
