data_job_01941
_audit_creation_date              2018-12-19
_audit_creation_method            'Materials Studio'
_symmetry_space_group_name_H-M    'P1'
_symmetry_Int_Tables_number       1
_symmetry_cell_setting            triclinic
loop_
_symmetry_equiv_pos_as_xyz
  x,y,z
_cell_length_a                    10.9041
_cell_length_b                    25.1203
_cell_length_c                    19.6850
_cell_angle_alpha                 90.0000
_cell_angle_beta                  144.7290
_cell_angle_gamma                 90.0000
loop_
_atom_site_label
_atom_site_type_symbol
_atom_site_fract_x
_atom_site_fract_y
_atom_site_fract_z
_atom_site_U_iso_or_equiv
_atom_site_adp_type
_atom_site_occupancy
C1     C     0.48884   0.35511   0.77690   0.00000  Uiso   1.00
C2     C     0.28425   0.38262   0.66233   0.00000  Uiso   1.00
C3     C     0.24724   0.40549   0.58252   0.00000  Uiso   1.00
C4     C     0.04971   0.42871   0.48298   0.00000  Uiso   1.00
C5     C     0.75561   0.47140   0.30798   0.00000  Uiso   1.00
C6     C     0.56203   0.38385   0.87409   0.00000  Uiso   1.00
C7     C     0.75861   0.40775   0.97234   0.00000  Uiso   1.00
C8     C     0.79491   0.43200   0.05107   0.00000  Uiso   1.00
C9     C     0.93215   0.47657   0.20489   0.00000  Uiso   1.00
C10    C     0.42492   0.29925   0.77040   0.00000  Uiso   1.00
C11    C     0.50625   0.25202   0.78149   0.00000  Uiso   1.00
C12    C     0.42715   0.20504   0.77293   0.00000  Uiso   1.00
C13    C     0.35150   0.11825   0.76575   0.00000  Uiso   1.00
C14    C     0.20381   0.35568   0.74204   0.00000  Uiso   1.00
C15    C     0.12944   0.38293   0.64340   0.00000  Uiso   1.00
C16    C     0.93189   0.40612   0.54394   0.00000  Uiso   1.00
C17    C     0.89461   0.42901   0.46400   0.00000  Uiso   1.00
C18    C     0.40723   0.38416   0.85516   0.00000  Uiso   1.00
C19    C     0.44326   0.40838   0.93377   0.00000  Uiso   1.00
C20    C     0.63982   0.43231   0.03210   0.00000  Uiso   1.00
C21    C     0.27010   0.29956   0.75146   0.00000  Uiso   1.00
C22    C     0.19088   0.25265   0.74290   0.00000  Uiso   1.00
C23    C     0.27206   0.20535   0.75397   0.00000  Uiso   1.00
H24    H     0.60938   0.35487   0.79165   0.00000  Uiso   1.00
H25    H     0.36710   0.40525   0.59721   0.00000  Uiso   1.00
H26    H     0.87838   0.40750   0.98698   0.00000  Uiso   1.00
H27    H     0.62605   0.25179   0.79614   0.00000  Uiso   1.00
H28    H     0.03025   0.46125   0.37331   0.00000  Uiso   1.00
H29    H     0.10834   0.46598   0.19517   0.00000  Uiso   1.00
H30    H     0.57626   0.13764   0.79276   0.00000  Uiso   1.00
H31    H     0.08328   0.35592   0.72729   0.00000  Uiso   1.00
H32    H     0.81212   0.40635   0.52931   0.00000  Uiso   1.00
H33    H     0.32342   0.40861   0.91909   0.00000  Uiso   1.00
H34    H     0.07108   0.25290   0.72825   0.00000  Uiso   1.00
H35    H     0.57981   0.46215   0.31820   0.00000  Uiso   1.00
H36    H     0.65792   0.46688   0.14007   0.00000  Uiso   1.00
H37    H     0.12582   0.13854   0.73765   0.00000  Uiso   1.00
O38    O     0.63618   0.49487   0.21670   0.00000  Uiso   1.00
O39    O     0.05061   0.50107   0.29497   0.00000  Uiso   1.00
O40    O     0.35252   0.07030   0.76700   0.00000  Uiso   1.00
N41    N     0.96144   0.45453   0.38750   0.00000  Uiso   1.00
N42    N     0.96938   0.45897   0.15588   0.00000  Uiso   1.00
N43    N     0.47197   0.15199   0.77969   0.00000  Uiso   1.00
N44    N     0.71906   0.45501   0.35784   0.00000  Uiso   1.00
N45    N     0.72700   0.45945   0.12623   0.00000  Uiso   1.00
N46    N     0.22959   0.15248   0.75004   0.00000  Uiso   1.00
C47    C     0.51116   0.85511   0.72310   0.00000  Uiso   1.00
C48    C     0.71575   0.88262   0.83767   0.00000  Uiso   1.00
C49    C     0.75276   0.90549   0.91748   0.00000  Uiso   1.00
C50    C     0.95029   0.92871   0.01702   0.00000  Uiso   1.00
C51    C     0.24439   0.97140   0.19202   0.00000  Uiso   1.00
C52    C     0.43797   0.88385   0.62591   0.00000  Uiso   1.00
C53    C     0.24139   0.90775   0.52766   0.00000  Uiso   1.00
C54    C     0.20509   0.93200   0.44893   0.00000  Uiso   1.00
C55    C     0.06785   0.97657   0.29511   0.00000  Uiso   1.00
C56    C     0.57508   0.79925   0.72960   0.00000  Uiso   1.00
C57    C     0.49375   0.75202   0.71851   0.00000  Uiso   1.00
C58    C     0.57285   0.70504   0.72707   0.00000  Uiso   1.00
C59    C     0.64850   0.61825   0.73425   0.00000  Uiso   1.00
C60    C     0.79619   0.85568   0.75796   0.00000  Uiso   1.00
C61    C     0.87056   0.88293   0.85660   0.00000  Uiso   1.00
C62    C     0.06811   0.90612   0.95606   0.00000  Uiso   1.00
C63    C     0.10539   0.92901   0.03600   0.00000  Uiso   1.00
C64    C     0.59277   0.88416   0.64484   0.00000  Uiso   1.00
C65    C     0.55674   0.90838   0.56623   0.00000  Uiso   1.00
C66    C     0.36018   0.93231   0.46790   0.00000  Uiso   1.00
C67    C     0.72990   0.79956   0.74854   0.00000  Uiso   1.00
C68    C     0.80912   0.75265   0.75710   0.00000  Uiso   1.00
C69    C     0.72794   0.70535   0.74603   0.00000  Uiso   1.00
H70    H     0.39062   0.85487   0.70835   0.00000  Uiso   1.00
H71    H     0.63290   0.90525   0.90279   0.00000  Uiso   1.00
H72    H     0.12162   0.90750   0.51302   0.00000  Uiso   1.00
H73    H     0.37395   0.75179   0.70386   0.00000  Uiso   1.00
H74    H     0.96975   0.96125   0.12669   0.00000  Uiso   1.00
H75    H     0.89166   0.96598   0.30483   0.00000  Uiso   1.00
H76    H     0.42374   0.63764   0.70724   0.00000  Uiso   1.00
H77    H     0.91672   0.85592   0.77271   0.00000  Uiso   1.00
H78    H     0.18788   0.90635   0.97069   0.00000  Uiso   1.00
H79    H     0.67658   0.90861   0.58091   0.00000  Uiso   1.00
H80    H     0.92892   0.75290   0.77175   0.00000  Uiso   1.00
H81    H     0.42019   0.96215   0.18180   0.00000  Uiso   1.00
H82    H     0.34208   0.96688   0.35993   0.00000  Uiso   1.00
H83    H     0.87418   0.63854   0.76235   0.00000  Uiso   1.00
O84    O     0.36382   0.99487   0.28330   0.00000  Uiso   1.00
O85    O     0.94939   0.00107   0.20503   0.00000  Uiso   1.00
O86    O     0.64748   0.57030   0.73300   0.00000  Uiso   1.00
N87    N     0.03856   0.95453   0.11250   0.00000  Uiso   1.00
N88    N     0.03062   0.95897   0.34412   0.00000  Uiso   1.00
N89    N     0.52803   0.65199   0.72031   0.00000  Uiso   1.00
N90    N     0.28094   0.95501   0.14216   0.00000  Uiso   1.00
N91    N     0.27300   0.95945   0.37377   0.00000  Uiso   1.00
N92    N     0.77041   0.65248   0.74996   0.00000  Uiso   1.00
C93    C     0.51116   0.64489   0.22310   0.00000  Uiso   1.00
C94    C     0.71575   0.61738   0.33767   0.00000  Uiso   1.00
C95    C     0.75276   0.59451   0.41748   0.00000  Uiso   1.00
C96    C     0.95029   0.57129   0.51702   0.00000  Uiso   1.00
C97    C     0.24439   0.52860   0.69202   0.00000  Uiso   1.00
C98    C     0.43797   0.61615   0.12591   0.00000  Uiso   1.00
C99    C     0.24139   0.59225   0.02766   0.00000  Uiso   1.00
C100   C     0.20509   0.56800   0.94893   0.00000  Uiso   1.00
C101   C     0.06785   0.52343   0.79511   0.00000  Uiso   1.00
C102   C     0.57508   0.70075   0.22960   0.00000  Uiso   1.00
C103   C     0.49375   0.74798   0.21851   0.00000  Uiso   1.00
C104   C     0.57285   0.79496   0.22707   0.00000  Uiso   1.00
C105   C     0.64850   0.88175   0.23425   0.00000  Uiso   1.00
C106   C     0.79619   0.64432   0.25796   0.00000  Uiso   1.00
C107   C     0.87056   0.61707   0.35660   0.00000  Uiso   1.00
C108   C     0.06811   0.59388   0.45606   0.00000  Uiso   1.00
C109   C     0.10539   0.57099   0.53600   0.00000  Uiso   1.00
C110   C     0.59277   0.61584   0.14484   0.00000  Uiso   1.00
C111   C     0.55674   0.59162   0.06623   0.00000  Uiso   1.00
C112   C     0.36018   0.56769   0.96790   0.00000  Uiso   1.00
C113   C     0.72990   0.70044   0.24854   0.00000  Uiso   1.00
C114   C     0.80912   0.74735   0.25710   0.00000  Uiso   1.00
C115   C     0.72794   0.79465   0.24603   0.00000  Uiso   1.00
H116   H     0.39062   0.64513   0.20835   0.00000  Uiso   1.00
H117   H     0.63290   0.59475   0.40279   0.00000  Uiso   1.00
H118   H     0.12162   0.59250   0.01302   0.00000  Uiso   1.00
H119   H     0.37395   0.74821   0.20386   0.00000  Uiso   1.00
H120   H     0.96975   0.53875   0.62669   0.00000  Uiso   1.00
H121   H     0.89166   0.53402   0.80483   0.00000  Uiso   1.00
H122   H     0.42374   0.86236   0.20724   0.00000  Uiso   1.00
H123   H     0.91672   0.64408   0.27271   0.00000  Uiso   1.00
H124   H     0.18788   0.59365   0.47069   0.00000  Uiso   1.00
H125   H     0.67658   0.59139   0.08091   0.00000  Uiso   1.00
H126   H     0.92892   0.74710   0.27175   0.00000  Uiso   1.00
H127   H     0.42019   0.53785   0.68180   0.00000  Uiso   1.00
H128   H     0.34208   0.53312   0.85993   0.00000  Uiso   1.00
H129   H     0.87418   0.86146   0.26235   0.00000  Uiso   1.00
O130   O     0.36382   0.50513   0.78330   0.00000  Uiso   1.00
O131   O     0.94939   0.49893   0.70503   0.00000  Uiso   1.00
O132   O     0.64748   0.92970   0.23300   0.00000  Uiso   1.00
N133   N     0.03856   0.54547   0.61250   0.00000  Uiso   1.00
N134   N     0.03062   0.54103   0.84412   0.00000  Uiso   1.00
N135   N     0.52803   0.84801   0.22031   0.00000  Uiso   1.00
N136   N     0.28094   0.54499   0.64216   0.00000  Uiso   1.00
N137   N     0.27300   0.54055   0.87377   0.00000  Uiso   1.00
N138   N     0.77041   0.84752   0.24996   0.00000  Uiso   1.00
C139   C     0.48884   0.14489   0.27690   0.00000  Uiso   1.00
C140   C     0.28425   0.11738   0.16233   0.00000  Uiso   1.00
C141   C     0.24724   0.09451   0.08252   0.00000  Uiso   1.00
C142   C     0.04971   0.07129   0.98298   0.00000  Uiso   1.00
C143   C     0.75561   0.02860   0.80798   0.00000  Uiso   1.00
C144   C     0.56203   0.11615   0.37409   0.00000  Uiso   1.00
C145   C     0.75861   0.09225   0.47234   0.00000  Uiso   1.00
C146   C     0.79491   0.06800   0.55107   0.00000  Uiso   1.00
C147   C     0.93215   0.02343   0.70489   0.00000  Uiso   1.00
C148   C     0.42492   0.20075   0.27040   0.00000  Uiso   1.00
C149   C     0.50625   0.24798   0.28149   0.00000  Uiso   1.00
C150   C     0.42715   0.29496   0.27293   0.00000  Uiso   1.00
C151   C     0.35150   0.38175   0.26575   0.00000  Uiso   1.00
C152   C     0.20381   0.14432   0.24204   0.00000  Uiso   1.00
C153   C     0.12944   0.11707   0.14340   0.00000  Uiso   1.00
C154   C     0.93189   0.09388   0.04394   0.00000  Uiso   1.00
C155   C     0.89461   0.07099   0.96400   0.00000  Uiso   1.00
C156   C     0.40723   0.11584   0.35516   0.00000  Uiso   1.00
C157   C     0.44326   0.09162   0.43377   0.00000  Uiso   1.00
C158   C     0.63982   0.06769   0.53210   0.00000  Uiso   1.00
C159   C     0.27010   0.20044   0.25146   0.00000  Uiso   1.00
C160   C     0.19088   0.24735   0.24290   0.00000  Uiso   1.00
C161   C     0.27206   0.29465   0.25397   0.00000  Uiso   1.00
H162   H     0.60938   0.14513   0.29165   0.00000  Uiso   1.00
H163   H     0.36710   0.09475   0.09721   0.00000  Uiso   1.00
H164   H     0.87838   0.09250   0.48698   0.00000  Uiso   1.00
H165   H     0.62605   0.24821   0.29614   0.00000  Uiso   1.00
H166   H     0.03025   0.03875   0.87331   0.00000  Uiso   1.00
H167   H     0.10834   0.03402   0.69517   0.00000  Uiso   1.00
H168   H     0.57626   0.36236   0.29276   0.00000  Uiso   1.00
H169   H     0.08328   0.14408   0.22729   0.00000  Uiso   1.00
H170   H     0.81212   0.09365   0.02931   0.00000  Uiso   1.00
H171   H     0.32342   0.09139   0.41909   0.00000  Uiso   1.00
H172   H     0.07108   0.24710   0.22825   0.00000  Uiso   1.00
H173   H     0.57981   0.03785   0.81820   0.00000  Uiso   1.00
H174   H     0.65792   0.03312   0.64007   0.00000  Uiso   1.00
H175   H     0.12582   0.36146   0.23765   0.00000  Uiso   1.00
O176   O     0.63618   0.00513   0.71670   0.00000  Uiso   1.00
O177   O     0.05061   0.99893   0.79497   0.00000  Uiso   1.00
O178   O     0.35252   0.42970   0.26700   0.00000  Uiso   1.00
N179   N     0.96144   0.04547   0.88750   0.00000  Uiso   1.00
N180   N     0.96938   0.04103   0.65588   0.00000  Uiso   1.00
N181   N     0.47197   0.34801   0.27969   0.00000  Uiso   1.00
N182   N     0.71906   0.04499   0.85784   0.00000  Uiso   1.00
N183   N     0.72700   0.04055   0.62623   0.00000  Uiso   1.00
N184   N     0.22959   0.34752   0.25004   0.00000  Uiso   1.00
