data_job_01358
_audit_creation_date              2018-12-19
_audit_creation_method            'Materials Studio'
_symmetry_space_group_name_H-M    'P1'
_symmetry_Int_Tables_number       1
_symmetry_cell_setting            triclinic
loop_
_symmetry_equiv_pos_as_xyz
  x,y,z
_cell_length_a                    17.6374
_cell_length_b                    9.7517
_cell_length_c                    14.5012
_cell_angle_alpha                 90.0000
_cell_angle_beta                  90.0000
_cell_angle_gamma                 90.0000
loop_
_atom_site_label
_atom_site_type_symbol
_atom_site_fract_x
_atom_site_fract_y
_atom_site_fract_z
_atom_site_U_iso_or_equiv
_atom_site_adp_type
_atom_site_occupancy
C1     C     0.91471   0.09657   0.66272   0.00000  Uiso   1.00
C2     C     0.99256   0.13765   0.62625   0.00000  Uiso   1.00
C3     C     0.00614   0.22172   0.55082   0.00000  Uiso   1.00
C4     C     0.08141   0.24699   0.52849   0.00000  Uiso   1.00
C5     C     0.19324   0.31935   0.46402   0.00000  Uiso   1.00
C6     C     0.91348   0.94021   0.66297   0.00000  Uiso   1.00
C7     C     0.86058   0.85828   0.61843   0.00000  Uiso   1.00
C8     C     0.86928   0.71735   0.62702   0.00000  Uiso   1.00
C9     C     0.85831   0.48320   0.61962   0.00000  Uiso   1.00
C10    C     0.91312   0.14016   0.76369   0.00000  Uiso   1.00
C11    C     0.85990   0.22632   0.80384   0.00000  Uiso   1.00
C12    C     0.86828   0.25371   0.89725   0.00000  Uiso   1.00
C13    C     0.85676   0.33000   0.04623   0.00000  Uiso   1.00
C14    C     0.02421   0.99197   0.75721   0.00000  Uiso   1.00
C15    C     0.05203   0.08082   0.67757   0.00000  Uiso   1.00
C16    C     0.12729   0.10598   0.65535   0.00000  Uiso   1.00
C17    C     0.14099   0.19007   0.57991   0.00000  Uiso   1.00
C18    C     0.97296   0.88339   0.71429   0.00000  Uiso   1.00
C19    C     0.98173   0.74255   0.72296   0.00000  Uiso   1.00
C20    C     0.92886   0.66043   0.67844   0.00000  Uiso   1.00
C21    C     0.97260   0.08335   0.81501   0.00000  Uiso   1.00
C22    C     0.98106   0.11059   0.90838   0.00000  Uiso   1.00
C23    C     0.92787   0.19678   0.94866   0.00000  Uiso   1.00
H24    H     0.86840   0.14080   0.62277   0.00000  Uiso   1.00
H25    H     0.96010   0.26566   0.51112   0.00000  Uiso   1.00
H26    H     0.81456   0.90228   0.57872   0.00000  Uiso   1.00
H27    H     0.81389   0.27027   0.76411   0.00000  Uiso   1.00
H28    H     0.08800   0.37899   0.40994   0.00000  Uiso   1.00
H29    H     0.78109   0.61280   0.55252   0.00000  Uiso   1.00
H30    H     0.77967   0.38876   0.94344   0.00000  Uiso   1.00
H31    H     0.07051   0.94773   0.79716   0.00000  Uiso   1.00
H32    H     0.17331   0.06200   0.69508   0.00000  Uiso   1.00
H33    H     0.02776   0.69862   0.76268   0.00000  Uiso   1.00
H34    H     0.02709   0.06661   0.94807   0.00000  Uiso   1.00
H35    H     0.26104   0.21368   0.55925   0.00000  Uiso   1.00
H36    H     0.95413   0.44749   0.70183   0.00000  Uiso   1.00
H37    H     0.95272   0.22346   0.09275   0.00000  Uiso   1.00
O38    O     0.23849   0.37495   0.41428   0.00000  Uiso   1.00
O39    O     0.83584   0.36974   0.60135   0.00000  Uiso   1.00
O40    O     0.83398   0.38780   0.11423   0.00000  Uiso   1.00
N41    N     0.11462   0.32442   0.45910   0.00000  Uiso   1.00
N42    N     0.82769   0.60808   0.59239   0.00000  Uiso   1.00
N43    N     0.82635   0.33352   0.95788   0.00000  Uiso   1.00
N44    N     0.20773   0.23548   0.53945   0.00000  Uiso   1.00
N45    N     0.92080   0.51913   0.67273   0.00000  Uiso   1.00
N46    N     0.91946   0.24457   0.03822   0.00000  Uiso   1.00
C47    C     0.08529   0.90343   0.16272   0.00000  Uiso   1.00
C48    C     0.00744   0.86235   0.12625   0.00000  Uiso   1.00
C49    C     0.99386   0.77828   0.05082   0.00000  Uiso   1.00
C50    C     0.91859   0.75301   0.02849   0.00000  Uiso   1.00
C51    C     0.80676   0.68065   0.96402   0.00000  Uiso   1.00
C52    C     0.08652   0.05979   0.16297   0.00000  Uiso   1.00
C53    C     0.13942   0.14172   0.11843   0.00000  Uiso   1.00
C54    C     0.13072   0.28265   0.12702   0.00000  Uiso   1.00
C55    C     0.14169   0.51680   0.11962   0.00000  Uiso   1.00
C56    C     0.08688   0.85984   0.26369   0.00000  Uiso   1.00
C57    C     0.14010   0.77368   0.30384   0.00000  Uiso   1.00
C58    C     0.13172   0.74629   0.39725   0.00000  Uiso   1.00
C59    C     0.14324   0.67000   0.54623   0.00000  Uiso   1.00
C60    C     0.97579   0.00803   0.25721   0.00000  Uiso   1.00
C61    C     0.94797   0.91918   0.17757   0.00000  Uiso   1.00
C62    C     0.87271   0.89402   0.15535   0.00000  Uiso   1.00
C63    C     0.85901   0.80993   0.07991   0.00000  Uiso   1.00
C64    C     0.02704   0.11661   0.21429   0.00000  Uiso   1.00
C65    C     0.01827   0.25745   0.22296   0.00000  Uiso   1.00
C66    C     0.07114   0.33957   0.17844   0.00000  Uiso   1.00
C67    C     0.02740   0.91665   0.31501   0.00000  Uiso   1.00
C68    C     0.01894   0.88941   0.40838   0.00000  Uiso   1.00
C69    C     0.07213   0.80322   0.44866   0.00000  Uiso   1.00
H70    H     0.13160   0.85920   0.12277   0.00000  Uiso   1.00
H71    H     0.03990   0.73434   0.01112   0.00000  Uiso   1.00
H72    H     0.18544   0.09772   0.07872   0.00000  Uiso   1.00
H73    H     0.18611   0.72973   0.26411   0.00000  Uiso   1.00
H74    H     0.91200   0.62101   0.90994   0.00000  Uiso   1.00
H75    H     0.21891   0.38720   0.05252   0.00000  Uiso   1.00
H76    H     0.22033   0.61124   0.44344   0.00000  Uiso   1.00
H77    H     0.92949   0.05227   0.29716   0.00000  Uiso   1.00
H78    H     0.82669   0.93800   0.19508   0.00000  Uiso   1.00
H79    H     0.97224   0.30138   0.26268   0.00000  Uiso   1.00
H80    H     0.97291   0.93339   0.44807   0.00000  Uiso   1.00
H81    H     0.73896   0.78632   0.05925   0.00000  Uiso   1.00
H82    H     0.04587   0.55251   0.20183   0.00000  Uiso   1.00
H83    H     0.04728   0.77654   0.59275   0.00000  Uiso   1.00
O84    O     0.76151   0.62505   0.91428   0.00000  Uiso   1.00
O85    O     0.16416   0.63026   0.10135   0.00000  Uiso   1.00
O86    O     0.16602   0.61220   0.61423   0.00000  Uiso   1.00
N87    N     0.88538   0.67558   0.95910   0.00000  Uiso   1.00
N88    N     0.17231   0.39192   0.09239   0.00000  Uiso   1.00
N89    N     0.17365   0.66648   0.45788   0.00000  Uiso   1.00
N90    N     0.79227   0.76452   0.03945   0.00000  Uiso   1.00
N91    N     0.07920   0.48087   0.17273   0.00000  Uiso   1.00
N92    N     0.08054   0.75543   0.53822   0.00000  Uiso   1.00
C93    C     0.41471   0.40343   0.66272   0.00000  Uiso   1.00
C94    C     0.49256   0.36235   0.62625   0.00000  Uiso   1.00
C95    C     0.50614   0.27828   0.55082   0.00000  Uiso   1.00
C96    C     0.58141   0.25301   0.52849   0.00000  Uiso   1.00
C97    C     0.69324   0.18065   0.46402   0.00000  Uiso   1.00
C98    C     0.41348   0.55979   0.66297   0.00000  Uiso   1.00
C99    C     0.36058   0.64172   0.61843   0.00000  Uiso   1.00
C100   C     0.36928   0.78265   0.62702   0.00000  Uiso   1.00
C101   C     0.35831   0.01680   0.61962   0.00000  Uiso   1.00
C102   C     0.41312   0.35984   0.76369   0.00000  Uiso   1.00
C103   C     0.35990   0.27368   0.80384   0.00000  Uiso   1.00
C104   C     0.36828   0.24629   0.89725   0.00000  Uiso   1.00
C105   C     0.35676   0.17000   0.04623   0.00000  Uiso   1.00
C106   C     0.52421   0.50803   0.75721   0.00000  Uiso   1.00
C107   C     0.55203   0.41918   0.67757   0.00000  Uiso   1.00
C108   C     0.62729   0.39402   0.65535   0.00000  Uiso   1.00
C109   C     0.64099   0.30993   0.57991   0.00000  Uiso   1.00
C110   C     0.47296   0.61661   0.71429   0.00000  Uiso   1.00
C111   C     0.48173   0.75745   0.72296   0.00000  Uiso   1.00
C112   C     0.42886   0.83957   0.67844   0.00000  Uiso   1.00
C113   C     0.47260   0.41665   0.81501   0.00000  Uiso   1.00
C114   C     0.48106   0.38941   0.90838   0.00000  Uiso   1.00
C115   C     0.42787   0.30322   0.94866   0.00000  Uiso   1.00
H116   H     0.36840   0.35920   0.62277   0.00000  Uiso   1.00
H117   H     0.46010   0.23434   0.51112   0.00000  Uiso   1.00
H118   H     0.31456   0.59772   0.57872   0.00000  Uiso   1.00
H119   H     0.31389   0.22973   0.76411   0.00000  Uiso   1.00
H120   H     0.58800   0.12101   0.40994   0.00000  Uiso   1.00
H121   H     0.28109   0.88720   0.55252   0.00000  Uiso   1.00
H122   H     0.27967   0.11124   0.94344   0.00000  Uiso   1.00
H123   H     0.57051   0.55227   0.79716   0.00000  Uiso   1.00
H124   H     0.67331   0.43800   0.69508   0.00000  Uiso   1.00
H125   H     0.52776   0.80138   0.76268   0.00000  Uiso   1.00
H126   H     0.52709   0.43339   0.94807   0.00000  Uiso   1.00
H127   H     0.76104   0.28632   0.55925   0.00000  Uiso   1.00
H128   H     0.45413   0.05251   0.70183   0.00000  Uiso   1.00
H129   H     0.45272   0.27654   0.09275   0.00000  Uiso   1.00
O130   O     0.73849   0.12505   0.41428   0.00000  Uiso   1.00
O131   O     0.33584   0.13026   0.60135   0.00000  Uiso   1.00
O132   O     0.33398   0.11220   0.11423   0.00000  Uiso   1.00
N133   N     0.61462   0.17558   0.45910   0.00000  Uiso   1.00
N134   N     0.32769   0.89192   0.59239   0.00000  Uiso   1.00
N135   N     0.32635   0.16648   0.95788   0.00000  Uiso   1.00
N136   N     0.70773   0.26452   0.53945   0.00000  Uiso   1.00
N137   N     0.42080   0.98087   0.67273   0.00000  Uiso   1.00
N138   N     0.41946   0.25543   0.03822   0.00000  Uiso   1.00
C139   C     0.58529   0.59657   0.16272   0.00000  Uiso   1.00
C140   C     0.50744   0.63765   0.12625   0.00000  Uiso   1.00
C141   C     0.49386   0.72172   0.05082   0.00000  Uiso   1.00
C142   C     0.41859   0.74699   0.02849   0.00000  Uiso   1.00
C143   C     0.30676   0.81935   0.96402   0.00000  Uiso   1.00
C144   C     0.58652   0.44021   0.16297   0.00000  Uiso   1.00
C145   C     0.63942   0.35828   0.11843   0.00000  Uiso   1.00
C146   C     0.63072   0.21735   0.12702   0.00000  Uiso   1.00
C147   C     0.64169   0.98320   0.11962   0.00000  Uiso   1.00
C148   C     0.58688   0.64016   0.26369   0.00000  Uiso   1.00
C149   C     0.64010   0.72632   0.30384   0.00000  Uiso   1.00
C150   C     0.63172   0.75371   0.39725   0.00000  Uiso   1.00
C151   C     0.64324   0.83000   0.54623   0.00000  Uiso   1.00
C152   C     0.47579   0.49197   0.25721   0.00000  Uiso   1.00
C153   C     0.44797   0.58082   0.17757   0.00000  Uiso   1.00
C154   C     0.37271   0.60598   0.15535   0.00000  Uiso   1.00
C155   C     0.35901   0.69007   0.07991   0.00000  Uiso   1.00
C156   C     0.52704   0.38339   0.21429   0.00000  Uiso   1.00
C157   C     0.51827   0.24255   0.22296   0.00000  Uiso   1.00
C158   C     0.57114   0.16043   0.17844   0.00000  Uiso   1.00
C159   C     0.52740   0.58335   0.31501   0.00000  Uiso   1.00
C160   C     0.51894   0.61059   0.40838   0.00000  Uiso   1.00
C161   C     0.57213   0.69678   0.44866   0.00000  Uiso   1.00
H162   H     0.63160   0.64080   0.12277   0.00000  Uiso   1.00
H163   H     0.53990   0.76566   0.01112   0.00000  Uiso   1.00
H164   H     0.68544   0.40228   0.07872   0.00000  Uiso   1.00
H165   H     0.68611   0.77027   0.26411   0.00000  Uiso   1.00
H166   H     0.41200   0.87899   0.90994   0.00000  Uiso   1.00
H167   H     0.71891   0.11280   0.05252   0.00000  Uiso   1.00
H168   H     0.72033   0.88876   0.44344   0.00000  Uiso   1.00
H169   H     0.42949   0.44773   0.29716   0.00000  Uiso   1.00
H170   H     0.32669   0.56200   0.19508   0.00000  Uiso   1.00
H171   H     0.47224   0.19862   0.26268   0.00000  Uiso   1.00
H172   H     0.47291   0.56661   0.44807   0.00000  Uiso   1.00
H173   H     0.23896   0.71368   0.05925   0.00000  Uiso   1.00
H174   H     0.54587   0.94749   0.20183   0.00000  Uiso   1.00
H175   H     0.54728   0.72346   0.59275   0.00000  Uiso   1.00
O176   O     0.26151   0.87495   0.91428   0.00000  Uiso   1.00
O177   O     0.66416   0.86974   0.10135   0.00000  Uiso   1.00
O178   O     0.66602   0.88780   0.61423   0.00000  Uiso   1.00
N179   N     0.38538   0.82442   0.95910   0.00000  Uiso   1.00
N180   N     0.67231   0.10808   0.09239   0.00000  Uiso   1.00
N181   N     0.67365   0.83352   0.45788   0.00000  Uiso   1.00
N182   N     0.29227   0.73548   0.03945   0.00000  Uiso   1.00
N183   N     0.57920   0.01913   0.17273   0.00000  Uiso   1.00
N184   N     0.58054   0.74457   0.53822   0.00000  Uiso   1.00
