data_job_01553
_audit_creation_date              2018-12-19
_audit_creation_method            'Materials Studio'
_symmetry_space_group_name_H-M    'P1'
_symmetry_Int_Tables_number       1
_symmetry_cell_setting            triclinic
loop_
_symmetry_equiv_pos_as_xyz
  x,y,z
_cell_length_a                    40.5657
_cell_length_b                    12.5366
_cell_length_c                    12.3074
_cell_angle_alpha                 90.0000
_cell_angle_beta                  105.6456
_cell_angle_gamma                 90.0000
loop_
_atom_site_label
_atom_site_type_symbol
_atom_site_fract_x
_atom_site_fract_y
_atom_site_fract_z
_atom_site_U_iso_or_equiv
_atom_site_adp_type
_atom_site_occupancy
C1     C     0.33993   0.65057   0.33117   0.00000  Uiso   1.00
C2     C     0.37886   0.64260   0.37011   0.00000  Uiso   1.00
C3     C     0.40103   0.66194   0.30391   0.00000  Uiso   1.00
C4     C     0.43578   0.65036   0.35524   0.00000  Uiso   1.00
C5     C     0.49439   0.64258   0.39846   0.00000  Uiso   1.00
C6     C     0.32980   0.72928   0.41099   0.00000  Uiso   1.00
C7     C     0.31071   0.82149   0.37915   0.00000  Uiso   1.00
C8     C     0.30416   0.88287   0.46490   0.00000  Uiso   1.00
C9     C     0.28657   0.00962   0.57158   0.00000  Uiso   1.00
C10    C     0.32643   0.54218   0.35556   0.00000  Uiso   1.00
C11    C     0.30449   0.47710   0.27713   0.00000  Uiso   1.00
C12    C     0.29510   0.38097   0.31622   0.00000  Uiso   1.00
C13    C     0.27227   0.21722   0.33683   0.00000  Uiso   1.00
C14    C     0.36225   0.59561   0.54004   0.00000  Uiso   1.00
C15    C     0.39098   0.61275   0.48356   0.00000  Uiso   1.00
C16    C     0.42571   0.60113   0.53501   0.00000  Uiso   1.00
C17    C     0.44793   0.62045   0.46890   0.00000  Uiso   1.00
C18    C     0.34192   0.69943   0.52444   0.00000  Uiso   1.00
C19    C     0.33539   0.76068   0.61025   0.00000  Uiso   1.00
C20    C     0.31630   0.85297   0.57856   0.00000  Uiso   1.00
C21    C     0.33855   0.51233   0.46901   0.00000  Uiso   1.00
C22    C     0.32918   0.41629   0.50823   0.00000  Uiso   1.00
C23    C     0.30724   0.35107   0.42988   0.00000  Uiso   1.00
H24    H     0.33050   0.67381   0.24284   0.00000  Uiso   1.00
H25    H     0.39164   0.68505   0.21611   0.00000  Uiso   1.00
H26    H     0.30133   0.84456   0.29135   0.00000  Uiso   1.00
H27    H     0.29512   0.50022   0.18934   0.00000  Uiso   1.00
H28    H     0.46477   0.68438   0.23653   0.00000  Uiso   1.00
H29    H     0.27434   0.02071   0.39516   0.00000  Uiso   1.00
H30    H     0.26124   0.29460   0.18005   0.00000  Uiso   1.00
H31    H     0.37168   0.57237   0.62838   0.00000  Uiso   1.00
H32    H     0.43509   0.57803   0.62281   0.00000  Uiso   1.00
H33    H     0.34478   0.73756   0.69804   0.00000  Uiso   1.00
H34    H     0.33857   0.39321   0.59603   0.00000  Uiso   1.00
H35    H     0.50003   0.59753   0.56662   0.00000  Uiso   1.00
H36    H     0.30960   0.93386   0.72525   0.00000  Uiso   1.00
H37    H     0.29650   0.20775   0.51014   0.00000  Uiso   1.00
O38    O     0.52337   0.64654   0.39096   0.00000  Uiso   1.00
O39    O     0.27352   0.08778   0.59908   0.00000  Uiso   1.00
O40    O     0.25634   0.13515   0.31686   0.00000  Uiso   1.00
N41    N     0.46437   0.66314   0.31497   0.00000  Uiso   1.00
N42    N     0.28633   0.97760   0.46329   0.00000  Uiso   1.00
N43    N     0.27408   0.29876   0.26219   0.00000  Uiso   1.00
N44    N     0.48334   0.61640   0.49259   0.00000  Uiso   1.00
N45    N     0.30531   0.93086   0.64090   0.00000  Uiso   1.00
N46    N     0.29305   0.25202   0.43980   0.00000  Uiso   1.00
C47    C     0.83993   0.15057   0.33117   0.00000  Uiso   1.00
C48    C     0.87886   0.14260   0.37011   0.00000  Uiso   1.00
C49    C     0.90103   0.16194   0.30391   0.00000  Uiso   1.00
C50    C     0.93578   0.15036   0.35524   0.00000  Uiso   1.00
C51    C     0.99439   0.14258   0.39846   0.00000  Uiso   1.00
C52    C     0.82980   0.22928   0.41099   0.00000  Uiso   1.00
C53    C     0.81071   0.32149   0.37915   0.00000  Uiso   1.00
C54    C     0.80416   0.38287   0.46490   0.00000  Uiso   1.00
C55    C     0.78657   0.50962   0.57158   0.00000  Uiso   1.00
C56    C     0.82643   0.04218   0.35556   0.00000  Uiso   1.00
C57    C     0.80449   0.97710   0.27713   0.00000  Uiso   1.00
C58    C     0.79510   0.88097   0.31622   0.00000  Uiso   1.00
C59    C     0.77227   0.71722   0.33683   0.00000  Uiso   1.00
C60    C     0.86225   0.09561   0.54004   0.00000  Uiso   1.00
C61    C     0.89098   0.11275   0.48356   0.00000  Uiso   1.00
C62    C     0.92571   0.10113   0.53501   0.00000  Uiso   1.00
C63    C     0.94793   0.12045   0.46890   0.00000  Uiso   1.00
C64    C     0.84192   0.19943   0.52444   0.00000  Uiso   1.00
C65    C     0.83539   0.26068   0.61025   0.00000  Uiso   1.00
C66    C     0.81630   0.35297   0.57856   0.00000  Uiso   1.00
C67    C     0.83855   0.01233   0.46901   0.00000  Uiso   1.00
C68    C     0.82918   0.91629   0.50823   0.00000  Uiso   1.00
C69    C     0.80724   0.85107   0.42988   0.00000  Uiso   1.00
H70    H     0.83050   0.17381   0.24284   0.00000  Uiso   1.00
H71    H     0.89164   0.18505   0.21611   0.00000  Uiso   1.00
H72    H     0.80133   0.34456   0.29135   0.00000  Uiso   1.00
H73    H     0.79512   0.00022   0.18934   0.00000  Uiso   1.00
H74    H     0.96477   0.18438   0.23653   0.00000  Uiso   1.00
H75    H     0.77434   0.52071   0.39516   0.00000  Uiso   1.00
H76    H     0.76124   0.79460   0.18005   0.00000  Uiso   1.00
H77    H     0.87168   0.07237   0.62838   0.00000  Uiso   1.00
H78    H     0.93509   0.07803   0.62281   0.00000  Uiso   1.00
H79    H     0.84478   0.23756   0.69804   0.00000  Uiso   1.00
H80    H     0.83857   0.89321   0.59603   0.00000  Uiso   1.00
H81    H     0.00003   0.09753   0.56662   0.00000  Uiso   1.00
H82    H     0.80960   0.43386   0.72525   0.00000  Uiso   1.00
H83    H     0.79650   0.70775   0.51014   0.00000  Uiso   1.00
O84    O     0.02337   0.14654   0.39096   0.00000  Uiso   1.00
O85    O     0.77352   0.58778   0.59908   0.00000  Uiso   1.00
O86    O     0.75634   0.63515   0.31686   0.00000  Uiso   1.00
N87    N     0.96437   0.16314   0.31497   0.00000  Uiso   1.00
N88    N     0.78633   0.47760   0.46329   0.00000  Uiso   1.00
N89    N     0.77408   0.79876   0.26219   0.00000  Uiso   1.00
N90    N     0.98334   0.11640   0.49259   0.00000  Uiso   1.00
N91    N     0.80531   0.43086   0.64090   0.00000  Uiso   1.00
N92    N     0.79305   0.75202   0.43980   0.00000  Uiso   1.00
C93    C     0.66007   0.65057   0.16883   0.00000  Uiso   1.00
C94    C     0.62114   0.64260   0.12989   0.00000  Uiso   1.00
C95    C     0.59897   0.66194   0.19609   0.00000  Uiso   1.00
C96    C     0.56422   0.65036   0.14476   0.00000  Uiso   1.00
C97    C     0.50561   0.64258   0.10154   0.00000  Uiso   1.00
C98    C     0.67020   0.72928   0.08901   0.00000  Uiso   1.00
C99    C     0.68929   0.82149   0.12085   0.00000  Uiso   1.00
C100   C     0.69584   0.88287   0.03510   0.00000  Uiso   1.00
C101   C     0.71343   0.00962   0.92842   0.00000  Uiso   1.00
C102   C     0.67357   0.54218   0.14444   0.00000  Uiso   1.00
C103   C     0.69551   0.47710   0.22287   0.00000  Uiso   1.00
C104   C     0.70490   0.38097   0.18378   0.00000  Uiso   1.00
C105   C     0.72773   0.21722   0.16317   0.00000  Uiso   1.00
C106   C     0.63775   0.59561   0.95996   0.00000  Uiso   1.00
C107   C     0.60902   0.61275   0.01644   0.00000  Uiso   1.00
C108   C     0.57429   0.60113   0.96499   0.00000  Uiso   1.00
C109   C     0.55207   0.62045   0.03110   0.00000  Uiso   1.00
C110   C     0.65808   0.69943   0.97556   0.00000  Uiso   1.00
C111   C     0.66461   0.76068   0.88975   0.00000  Uiso   1.00
C112   C     0.68370   0.85297   0.92144   0.00000  Uiso   1.00
C113   C     0.66145   0.51233   0.03099   0.00000  Uiso   1.00
C114   C     0.67082   0.41629   0.99177   0.00000  Uiso   1.00
C115   C     0.69276   0.35107   0.07012   0.00000  Uiso   1.00
H116   H     0.66950   0.67381   0.25716   0.00000  Uiso   1.00
H117   H     0.60836   0.68505   0.28389   0.00000  Uiso   1.00
H118   H     0.69867   0.84456   0.20865   0.00000  Uiso   1.00
H119   H     0.70488   0.50022   0.31066   0.00000  Uiso   1.00
H120   H     0.53523   0.68438   0.26347   0.00000  Uiso   1.00
H121   H     0.72566   0.02071   0.10484   0.00000  Uiso   1.00
H122   H     0.73876   0.29460   0.31995   0.00000  Uiso   1.00
H123   H     0.62832   0.57237   0.87162   0.00000  Uiso   1.00
H124   H     0.56491   0.57803   0.87719   0.00000  Uiso   1.00
H125   H     0.65522   0.73756   0.80196   0.00000  Uiso   1.00
H126   H     0.66143   0.39321   0.90397   0.00000  Uiso   1.00
H127   H     0.49997   0.59753   0.93338   0.00000  Uiso   1.00
H128   H     0.69040   0.93386   0.77475   0.00000  Uiso   1.00
H129   H     0.70350   0.20775   0.98986   0.00000  Uiso   1.00
O130   O     0.47663   0.64654   0.10904   0.00000  Uiso   1.00
O131   O     0.72648   0.08778   0.90092   0.00000  Uiso   1.00
O132   O     0.74366   0.13515   0.18314   0.00000  Uiso   1.00
N133   N     0.53563   0.66314   0.18503   0.00000  Uiso   1.00
N134   N     0.71367   0.97760   0.03671   0.00000  Uiso   1.00
N135   N     0.72592   0.29876   0.23781   0.00000  Uiso   1.00
N136   N     0.51666   0.61640   0.00741   0.00000  Uiso   1.00
N137   N     0.69469   0.93086   0.85910   0.00000  Uiso   1.00
N138   N     0.70695   0.25202   0.06020   0.00000  Uiso   1.00
C139   C     0.16007   0.15057   0.16883   0.00000  Uiso   1.00
C140   C     0.12114   0.14260   0.12989   0.00000  Uiso   1.00
C141   C     0.09897   0.16194   0.19609   0.00000  Uiso   1.00
C142   C     0.06422   0.15036   0.14476   0.00000  Uiso   1.00
C143   C     0.00561   0.14258   0.10154   0.00000  Uiso   1.00
C144   C     0.17020   0.22928   0.08901   0.00000  Uiso   1.00
C145   C     0.18929   0.32149   0.12085   0.00000  Uiso   1.00
C146   C     0.19584   0.38287   0.03510   0.00000  Uiso   1.00
C147   C     0.21343   0.50962   0.92842   0.00000  Uiso   1.00
C148   C     0.17357   0.04218   0.14444   0.00000  Uiso   1.00
C149   C     0.19551   0.97710   0.22287   0.00000  Uiso   1.00
C150   C     0.20490   0.88097   0.18378   0.00000  Uiso   1.00
C151   C     0.22773   0.71722   0.16317   0.00000  Uiso   1.00
C152   C     0.13775   0.09561   0.95996   0.00000  Uiso   1.00
C153   C     0.10902   0.11275   0.01644   0.00000  Uiso   1.00
C154   C     0.07429   0.10113   0.96499   0.00000  Uiso   1.00
C155   C     0.05207   0.12045   0.03110   0.00000  Uiso   1.00
C156   C     0.15808   0.19943   0.97556   0.00000  Uiso   1.00
C157   C     0.16461   0.26068   0.88975   0.00000  Uiso   1.00
C158   C     0.18370   0.35297   0.92144   0.00000  Uiso   1.00
C159   C     0.16145   0.01233   0.03099   0.00000  Uiso   1.00
C160   C     0.17082   0.91629   0.99177   0.00000  Uiso   1.00
C161   C     0.19276   0.85107   0.07012   0.00000  Uiso   1.00
H162   H     0.16950   0.17381   0.25716   0.00000  Uiso   1.00
H163   H     0.10836   0.18505   0.28389   0.00000  Uiso   1.00
H164   H     0.19867   0.34456   0.20865   0.00000  Uiso   1.00
H165   H     0.20488   0.00022   0.31066   0.00000  Uiso   1.00
H166   H     0.03523   0.18438   0.26347   0.00000  Uiso   1.00
H167   H     0.22566   0.52071   0.10484   0.00000  Uiso   1.00
H168   H     0.23876   0.79460   0.31995   0.00000  Uiso   1.00
H169   H     0.12832   0.07237   0.87162   0.00000  Uiso   1.00
H170   H     0.06491   0.07803   0.87719   0.00000  Uiso   1.00
H171   H     0.15522   0.23756   0.80196   0.00000  Uiso   1.00
H172   H     0.16143   0.89321   0.90397   0.00000  Uiso   1.00
H173   H     0.99997   0.09753   0.93338   0.00000  Uiso   1.00
H174   H     0.19040   0.43386   0.77475   0.00000  Uiso   1.00
H175   H     0.20350   0.70775   0.98986   0.00000  Uiso   1.00
O176   O     0.97663   0.14654   0.10904   0.00000  Uiso   1.00
O177   O     0.22648   0.58778   0.90092   0.00000  Uiso   1.00
O178   O     0.24366   0.63515   0.18314   0.00000  Uiso   1.00
N179   N     0.03563   0.16314   0.18503   0.00000  Uiso   1.00
N180   N     0.21367   0.47760   0.03671   0.00000  Uiso   1.00
N181   N     0.22592   0.79876   0.23781   0.00000  Uiso   1.00
N182   N     0.01666   0.11640   0.00741   0.00000  Uiso   1.00
N183   N     0.19469   0.43086   0.85910   0.00000  Uiso   1.00
N184   N     0.20695   0.75202   0.06020   0.00000  Uiso   1.00
C185   C     0.66007   0.34943   0.66883   0.00000  Uiso   1.00
C186   C     0.62114   0.35740   0.62989   0.00000  Uiso   1.00
C187   C     0.59897   0.33806   0.69609   0.00000  Uiso   1.00
C188   C     0.56422   0.34964   0.64476   0.00000  Uiso   1.00
C189   C     0.50561   0.35742   0.60154   0.00000  Uiso   1.00
C190   C     0.67020   0.27072   0.58901   0.00000  Uiso   1.00
C191   C     0.68929   0.17851   0.62085   0.00000  Uiso   1.00
C192   C     0.69584   0.11713   0.53510   0.00000  Uiso   1.00
C193   C     0.71343   0.99038   0.42842   0.00000  Uiso   1.00
C194   C     0.67357   0.45782   0.64444   0.00000  Uiso   1.00
C195   C     0.69551   0.52290   0.72287   0.00000  Uiso   1.00
C196   C     0.70490   0.61903   0.68378   0.00000  Uiso   1.00
C197   C     0.72773   0.78278   0.66317   0.00000  Uiso   1.00
C198   C     0.63775   0.40439   0.45996   0.00000  Uiso   1.00
C199   C     0.60902   0.38725   0.51644   0.00000  Uiso   1.00
C200   C     0.57429   0.39887   0.46499   0.00000  Uiso   1.00
C201   C     0.55207   0.37955   0.53110   0.00000  Uiso   1.00
C202   C     0.65808   0.30057   0.47556   0.00000  Uiso   1.00
C203   C     0.66461   0.23932   0.38975   0.00000  Uiso   1.00
C204   C     0.68370   0.14703   0.42144   0.00000  Uiso   1.00
C205   C     0.66145   0.48767   0.53099   0.00000  Uiso   1.00
C206   C     0.67082   0.58371   0.49177   0.00000  Uiso   1.00
C207   C     0.69276   0.64893   0.57012   0.00000  Uiso   1.00
H208   H     0.66950   0.32619   0.75716   0.00000  Uiso   1.00
H209   H     0.60836   0.31495   0.78389   0.00000  Uiso   1.00
H210   H     0.69867   0.15544   0.70865   0.00000  Uiso   1.00
H211   H     0.70488   0.49978   0.81066   0.00000  Uiso   1.00
H212   H     0.53523   0.31562   0.76347   0.00000  Uiso   1.00
H213   H     0.72566   0.97929   0.60484   0.00000  Uiso   1.00
H214   H     0.73876   0.70540   0.81995   0.00000  Uiso   1.00
H215   H     0.62832   0.42763   0.37162   0.00000  Uiso   1.00
H216   H     0.56491   0.42197   0.37719   0.00000  Uiso   1.00
H217   H     0.65522   0.26244   0.30196   0.00000  Uiso   1.00
H218   H     0.66143   0.60679   0.40397   0.00000  Uiso   1.00
H219   H     0.49997   0.40247   0.43338   0.00000  Uiso   1.00
H220   H     0.69040   0.06614   0.27475   0.00000  Uiso   1.00
H221   H     0.70350   0.79225   0.48986   0.00000  Uiso   1.00
O222   O     0.47663   0.35346   0.60904   0.00000  Uiso   1.00
O223   O     0.72648   0.91222   0.40092   0.00000  Uiso   1.00
O224   O     0.74366   0.86485   0.68314   0.00000  Uiso   1.00
N225   N     0.53563   0.33686   0.68503   0.00000  Uiso   1.00
N226   N     0.71367   0.02240   0.53671   0.00000  Uiso   1.00
N227   N     0.72592   0.70124   0.73781   0.00000  Uiso   1.00
N228   N     0.51666   0.38360   0.50741   0.00000  Uiso   1.00
N229   N     0.69469   0.06914   0.35910   0.00000  Uiso   1.00
N230   N     0.70695   0.74798   0.56020   0.00000  Uiso   1.00
C231   C     0.16007   0.84943   0.66883   0.00000  Uiso   1.00
C232   C     0.12114   0.85740   0.62989   0.00000  Uiso   1.00
C233   C     0.09897   0.83806   0.69609   0.00000  Uiso   1.00
C234   C     0.06422   0.84964   0.64476   0.00000  Uiso   1.00
C235   C     0.00561   0.85742   0.60154   0.00000  Uiso   1.00
C236   C     0.17020   0.77072   0.58901   0.00000  Uiso   1.00
C237   C     0.18929   0.67851   0.62085   0.00000  Uiso   1.00
C238   C     0.19584   0.61713   0.53510   0.00000  Uiso   1.00
C239   C     0.21343   0.49038   0.42842   0.00000  Uiso   1.00
C240   C     0.17357   0.95782   0.64444   0.00000  Uiso   1.00
C241   C     0.19551   0.02290   0.72287   0.00000  Uiso   1.00
C242   C     0.20490   0.11903   0.68378   0.00000  Uiso   1.00
C243   C     0.22773   0.28278   0.66317   0.00000  Uiso   1.00
C244   C     0.13775   0.90439   0.45996   0.00000  Uiso   1.00
C245   C     0.10902   0.88725   0.51644   0.00000  Uiso   1.00
C246   C     0.07429   0.89887   0.46499   0.00000  Uiso   1.00
C247   C     0.05207   0.87955   0.53110   0.00000  Uiso   1.00
C248   C     0.15808   0.80057   0.47556   0.00000  Uiso   1.00
C249   C     0.16461   0.73932   0.38975   0.00000  Uiso   1.00
C250   C     0.18370   0.64703   0.42144   0.00000  Uiso   1.00
C251   C     0.16145   0.98767   0.53099   0.00000  Uiso   1.00
C252   C     0.17082   0.08371   0.49177   0.00000  Uiso   1.00
C253   C     0.19276   0.14893   0.57012   0.00000  Uiso   1.00
H254   H     0.16950   0.82619   0.75716   0.00000  Uiso   1.00
H255   H     0.10836   0.81495   0.78389   0.00000  Uiso   1.00
H256   H     0.19867   0.65544   0.70865   0.00000  Uiso   1.00
H257   H     0.20488   0.99978   0.81066   0.00000  Uiso   1.00
H258   H     0.03523   0.81562   0.76347   0.00000  Uiso   1.00
H259   H     0.22566   0.47929   0.60484   0.00000  Uiso   1.00
H260   H     0.23876   0.20540   0.81995   0.00000  Uiso   1.00
H261   H     0.12832   0.92763   0.37162   0.00000  Uiso   1.00
H262   H     0.06491   0.92197   0.37719   0.00000  Uiso   1.00
H263   H     0.15522   0.76244   0.30196   0.00000  Uiso   1.00
H264   H     0.16143   0.10679   0.40397   0.00000  Uiso   1.00
H265   H     0.99997   0.90247   0.43338   0.00000  Uiso   1.00
H266   H     0.19040   0.56614   0.27475   0.00000  Uiso   1.00
H267   H     0.20350   0.29225   0.48986   0.00000  Uiso   1.00
O268   O     0.97663   0.85346   0.60904   0.00000  Uiso   1.00
O269   O     0.22648   0.41222   0.40092   0.00000  Uiso   1.00
O270   O     0.24366   0.36485   0.68314   0.00000  Uiso   1.00
N271   N     0.03563   0.83686   0.68503   0.00000  Uiso   1.00
N272   N     0.21367   0.52240   0.53671   0.00000  Uiso   1.00
N273   N     0.22592   0.20124   0.73781   0.00000  Uiso   1.00
N274   N     0.01666   0.88360   0.50741   0.00000  Uiso   1.00
N275   N     0.19469   0.56914   0.35910   0.00000  Uiso   1.00
N276   N     0.20695   0.24798   0.56020   0.00000  Uiso   1.00
C277   C     0.33993   0.34943   0.83117   0.00000  Uiso   1.00
C278   C     0.37886   0.35740   0.87011   0.00000  Uiso   1.00
C279   C     0.40103   0.33806   0.80391   0.00000  Uiso   1.00
C280   C     0.43578   0.34964   0.85524   0.00000  Uiso   1.00
C281   C     0.49439   0.35742   0.89846   0.00000  Uiso   1.00
C282   C     0.32980   0.27072   0.91099   0.00000  Uiso   1.00
C283   C     0.31071   0.17851   0.87915   0.00000  Uiso   1.00
C284   C     0.30416   0.11713   0.96490   0.00000  Uiso   1.00
C285   C     0.28657   0.99038   0.07158   0.00000  Uiso   1.00
C286   C     0.32643   0.45782   0.85556   0.00000  Uiso   1.00
C287   C     0.30449   0.52290   0.77713   0.00000  Uiso   1.00
C288   C     0.29510   0.61903   0.81622   0.00000  Uiso   1.00
C289   C     0.27227   0.78278   0.83683   0.00000  Uiso   1.00
C290   C     0.36225   0.40439   0.04004   0.00000  Uiso   1.00
C291   C     0.39098   0.38725   0.98356   0.00000  Uiso   1.00
C292   C     0.42571   0.39887   0.03501   0.00000  Uiso   1.00
C293   C     0.44793   0.37955   0.96890   0.00000  Uiso   1.00
C294   C     0.34192   0.30057   0.02444   0.00000  Uiso   1.00
C295   C     0.33539   0.23932   0.11025   0.00000  Uiso   1.00
C296   C     0.31630   0.14703   0.07856   0.00000  Uiso   1.00
C297   C     0.33855   0.48767   0.96901   0.00000  Uiso   1.00
C298   C     0.32918   0.58371   0.00823   0.00000  Uiso   1.00
C299   C     0.30724   0.64893   0.92988   0.00000  Uiso   1.00
H300   H     0.33050   0.32619   0.74284   0.00000  Uiso   1.00
H301   H     0.39164   0.31495   0.71611   0.00000  Uiso   1.00
H302   H     0.30133   0.15544   0.79135   0.00000  Uiso   1.00
H303   H     0.29512   0.49978   0.68934   0.00000  Uiso   1.00
H304   H     0.46477   0.31562   0.73653   0.00000  Uiso   1.00
H305   H     0.27434   0.97929   0.89516   0.00000  Uiso   1.00
H306   H     0.26124   0.70540   0.68005   0.00000  Uiso   1.00
H307   H     0.37168   0.42763   0.12838   0.00000  Uiso   1.00
H308   H     0.43509   0.42197   0.12281   0.00000  Uiso   1.00
H309   H     0.34478   0.26244   0.19804   0.00000  Uiso   1.00
H310   H     0.33857   0.60679   0.09603   0.00000  Uiso   1.00
H311   H     0.50003   0.40247   0.06662   0.00000  Uiso   1.00
H312   H     0.30960   0.06614   0.22525   0.00000  Uiso   1.00
H313   H     0.29650   0.79225   0.01014   0.00000  Uiso   1.00
O314   O     0.52337   0.35346   0.89096   0.00000  Uiso   1.00
O315   O     0.27352   0.91222   0.09908   0.00000  Uiso   1.00
O316   O     0.25634   0.86485   0.81686   0.00000  Uiso   1.00
N317   N     0.46437   0.33686   0.81497   0.00000  Uiso   1.00
N318   N     0.28633   0.02240   0.96329   0.00000  Uiso   1.00
N319   N     0.27408   0.70124   0.76219   0.00000  Uiso   1.00
N320   N     0.48334   0.38360   0.99259   0.00000  Uiso   1.00
N321   N     0.30531   0.06914   0.14090   0.00000  Uiso   1.00
N322   N     0.29305   0.74798   0.93980   0.00000  Uiso   1.00
C323   C     0.83993   0.84943   0.83117   0.00000  Uiso   1.00
C324   C     0.87886   0.85740   0.87011   0.00000  Uiso   1.00
C325   C     0.90103   0.83806   0.80391   0.00000  Uiso   1.00
C326   C     0.93578   0.84964   0.85524   0.00000  Uiso   1.00
C327   C     0.99439   0.85742   0.89846   0.00000  Uiso   1.00
C328   C     0.82980   0.77072   0.91099   0.00000  Uiso   1.00
C329   C     0.81071   0.67851   0.87915   0.00000  Uiso   1.00
C330   C     0.80416   0.61713   0.96490   0.00000  Uiso   1.00
C331   C     0.78657   0.49038   0.07158   0.00000  Uiso   1.00
C332   C     0.82643   0.95782   0.85556   0.00000  Uiso   1.00
C333   C     0.80449   0.02290   0.77713   0.00000  Uiso   1.00
C334   C     0.79510   0.11903   0.81622   0.00000  Uiso   1.00
C335   C     0.77227   0.28278   0.83683   0.00000  Uiso   1.00
C336   C     0.86225   0.90439   0.04004   0.00000  Uiso   1.00
C337   C     0.89098   0.88725   0.98356   0.00000  Uiso   1.00
C338   C     0.92571   0.89887   0.03501   0.00000  Uiso   1.00
C339   C     0.94793   0.87955   0.96890   0.00000  Uiso   1.00
C340   C     0.84192   0.80057   0.02444   0.00000  Uiso   1.00
C341   C     0.83539   0.73932   0.11025   0.00000  Uiso   1.00
C342   C     0.81630   0.64703   0.07856   0.00000  Uiso   1.00
C343   C     0.83855   0.98767   0.96901   0.00000  Uiso   1.00
C344   C     0.82918   0.08371   0.00823   0.00000  Uiso   1.00
C345   C     0.80724   0.14893   0.92988   0.00000  Uiso   1.00
H346   H     0.83050   0.82619   0.74284   0.00000  Uiso   1.00
H347   H     0.89164   0.81495   0.71611   0.00000  Uiso   1.00
H348   H     0.80133   0.65544   0.79135   0.00000  Uiso   1.00
H349   H     0.79512   0.99978   0.68934   0.00000  Uiso   1.00
H350   H     0.96477   0.81562   0.73653   0.00000  Uiso   1.00
H351   H     0.77434   0.47929   0.89516   0.00000  Uiso   1.00
H352   H     0.76124   0.20540   0.68005   0.00000  Uiso   1.00
H353   H     0.87168   0.92763   0.12838   0.00000  Uiso   1.00
H354   H     0.93509   0.92197   0.12281   0.00000  Uiso   1.00
H355   H     0.84478   0.76244   0.19804   0.00000  Uiso   1.00
H356   H     0.83857   0.10679   0.09603   0.00000  Uiso   1.00
H357   H     0.00003   0.90247   0.06662   0.00000  Uiso   1.00
H358   H     0.80960   0.56614   0.22525   0.00000  Uiso   1.00
H359   H     0.79650   0.29225   0.01014   0.00000  Uiso   1.00
O360   O     0.02337   0.85346   0.89096   0.00000  Uiso   1.00
O361   O     0.77352   0.41222   0.09908   0.00000  Uiso   1.00
O362   O     0.75634   0.36485   0.81686   0.00000  Uiso   1.00
N363   N     0.96437   0.83686   0.81497   0.00000  Uiso   1.00
N364   N     0.78633   0.52240   0.96329   0.00000  Uiso   1.00
N365   N     0.77408   0.20124   0.76219   0.00000  Uiso   1.00
N366   N     0.98334   0.88360   0.99259   0.00000  Uiso   1.00
N367   N     0.80531   0.56914   0.14090   0.00000  Uiso   1.00
N368   N     0.79305   0.24798   0.93980   0.00000  Uiso   1.00
