data_job_04925
_audit_creation_date              2018-12-19
_audit_creation_method            'Materials Studio'
_symmetry_space_group_name_H-M    'P1'
_symmetry_Int_Tables_number       1
_symmetry_cell_setting            triclinic
loop_
_symmetry_equiv_pos_as_xyz
  x,y,z
_cell_length_a                    22.5372
_cell_length_b                    7.4906
_cell_length_c                    31.7922
_cell_angle_alpha                 90.0000
_cell_angle_beta                  90.0000
_cell_angle_gamma                 90.0000
loop_
_atom_site_label
_atom_site_type_symbol
_atom_site_fract_x
_atom_site_fract_y
_atom_site_fract_z
_atom_site_U_iso_or_equiv
_atom_site_adp_type
_atom_site_occupancy
C1     C     0.15775   0.07536   0.34669   0.00000  Uiso   1.00
C2     C     0.14780   0.15395   0.30301   0.00000  Uiso   1.00
C3     C     0.13943   0.05699   0.26629   0.00000  Uiso   1.00
C4     C     0.13106   0.15372   0.22951   0.00000  Uiso   1.00
C5     C     0.11564   0.24732   0.16168   0.00000  Uiso   1.00
C6     C     0.21609   0.15395   0.36241   0.00000  Uiso   1.00
C7     C     0.26514   0.05699   0.37564   0.00000  Uiso   1.00
C8     C     0.31426   0.15373   0.38887   0.00000  Uiso   1.00
C9     C     0.40485   0.24733   0.41330   0.00000  Uiso   1.00
C10    C     0.10938   0.15405   0.37464   0.00000  Uiso   1.00
C11    C     0.06871   0.05717   0.39816   0.00000  Uiso   1.00
C12    C     0.02800   0.15399   0.42170   0.00000  Uiso   1.00
C13    C     0.95290   0.24774   0.46511   0.00000  Uiso   1.00
C14    C     0.15778   0.41956   0.34667   0.00000  Uiso   1.00
C15    C     0.14782   0.34091   0.30300   0.00000  Uiso   1.00
C16    C     0.13946   0.43782   0.26627   0.00000  Uiso   1.00
C17    C     0.13108   0.34102   0.22950   0.00000  Uiso   1.00
C18    C     0.21611   0.34091   0.36240   0.00000  Uiso   1.00
C19    C     0.26517   0.43782   0.37562   0.00000  Uiso   1.00
C20    C     0.31428   0.34103   0.38886   0.00000  Uiso   1.00
C21    C     0.10940   0.34101   0.37463   0.00000  Uiso   1.00
C22    C     0.06874   0.43800   0.39814   0.00000  Uiso   1.00
C23    C     0.02801   0.34129   0.42169   0.00000  Uiso   1.00
H24    H     0.15774   0.92980   0.34670   0.00000  Uiso   1.00
H25    H     0.13942   0.91230   0.26631   0.00000  Uiso   1.00
H26    H     0.26511   0.91231   0.37565   0.00000  Uiso   1.00
H27    H     0.06871   0.91249   0.39816   0.00000  Uiso   1.00
H28    H     0.11915   0.97535   0.17717   0.00000  Uiso   1.00
H29    H     0.38415   0.97537   0.40773   0.00000  Uiso   1.00
H30    H     0.97001   0.97575   0.45521   0.00000  Uiso   1.00
H31    H     0.15779   0.56513   0.34667   0.00000  Uiso   1.00
H32    H     0.13948   0.58250   0.26627   0.00000  Uiso   1.00
H33    H     0.26517   0.58250   0.37561   0.00000  Uiso   1.00
H34    H     0.06877   0.58268   0.39812   0.00000  Uiso   1.00
H35    H     0.11920   0.51931   0.17714   0.00000  Uiso   1.00
H36    H     0.38420   0.51931   0.40771   0.00000  Uiso   1.00
H37    H     0.97006   0.51970   0.45518   0.00000  Uiso   1.00
O38    O     0.10714   0.24729   0.12427   0.00000  Uiso   1.00
O39    O     0.45481   0.24730   0.42676   0.00000  Uiso   1.00
O40    O     0.91147   0.24780   0.48905   0.00000  Uiso   1.00
N41    N     0.12166   0.10099   0.18820   0.00000  Uiso   1.00
N42    N     0.36943   0.10100   0.40375   0.00000  Uiso   1.00
N43    N     0.98225   0.10136   0.44815   0.00000  Uiso   1.00
N44    N     0.12168   0.39369   0.18819   0.00000  Uiso   1.00
N45    N     0.36945   0.39370   0.40374   0.00000  Uiso   1.00
N46    N     0.98227   0.39405   0.44814   0.00000  Uiso   1.00
C47    C     0.65775   0.57536   0.34669   0.00000  Uiso   1.00
C48    C     0.64780   0.65395   0.30301   0.00000  Uiso   1.00
C49    C     0.63943   0.55699   0.26629   0.00000  Uiso   1.00
C50    C     0.63106   0.65372   0.22951   0.00000  Uiso   1.00
C51    C     0.61564   0.74732   0.16168   0.00000  Uiso   1.00
C52    C     0.71609   0.65395   0.36241   0.00000  Uiso   1.00
C53    C     0.76514   0.55699   0.37564   0.00000  Uiso   1.00
C54    C     0.81426   0.65373   0.38887   0.00000  Uiso   1.00
C55    C     0.90485   0.74733   0.41330   0.00000  Uiso   1.00
C56    C     0.60938   0.65405   0.37464   0.00000  Uiso   1.00
C57    C     0.56871   0.55717   0.39816   0.00000  Uiso   1.00
C58    C     0.52800   0.65399   0.42170   0.00000  Uiso   1.00
C59    C     0.45290   0.74774   0.46511   0.00000  Uiso   1.00
C60    C     0.65778   0.91956   0.34667   0.00000  Uiso   1.00
C61    C     0.64782   0.84091   0.30300   0.00000  Uiso   1.00
C62    C     0.63946   0.93782   0.26627   0.00000  Uiso   1.00
C63    C     0.63108   0.84102   0.22950   0.00000  Uiso   1.00
C64    C     0.71611   0.84091   0.36240   0.00000  Uiso   1.00
C65    C     0.76517   0.93782   0.37562   0.00000  Uiso   1.00
C66    C     0.81428   0.84103   0.38886   0.00000  Uiso   1.00
C67    C     0.60940   0.84101   0.37463   0.00000  Uiso   1.00
C68    C     0.56874   0.93800   0.39814   0.00000  Uiso   1.00
C69    C     0.52801   0.84129   0.42169   0.00000  Uiso   1.00
H70    H     0.65774   0.42980   0.34670   0.00000  Uiso   1.00
H71    H     0.63942   0.41230   0.26631   0.00000  Uiso   1.00
H72    H     0.76511   0.41231   0.37565   0.00000  Uiso   1.00
H73    H     0.56871   0.41249   0.39816   0.00000  Uiso   1.00
H74    H     0.61915   0.47535   0.17717   0.00000  Uiso   1.00
H75    H     0.88415   0.47537   0.40773   0.00000  Uiso   1.00
H76    H     0.47001   0.47575   0.45521   0.00000  Uiso   1.00
H77    H     0.65779   0.06513   0.34667   0.00000  Uiso   1.00
H78    H     0.63948   0.08250   0.26627   0.00000  Uiso   1.00
H79    H     0.76517   0.08250   0.37561   0.00000  Uiso   1.00
H80    H     0.56877   0.08268   0.39812   0.00000  Uiso   1.00
H81    H     0.61920   0.01931   0.17714   0.00000  Uiso   1.00
H82    H     0.88420   0.01931   0.40771   0.00000  Uiso   1.00
H83    H     0.47006   0.01970   0.45518   0.00000  Uiso   1.00
O84    O     0.60714   0.74729   0.12427   0.00000  Uiso   1.00
O85    O     0.95481   0.74730   0.42676   0.00000  Uiso   1.00
O86    O     0.41147   0.74780   0.48905   0.00000  Uiso   1.00
N87    N     0.62166   0.60099   0.18820   0.00000  Uiso   1.00
N88    N     0.86943   0.60100   0.40375   0.00000  Uiso   1.00
N89    N     0.48225   0.60136   0.44815   0.00000  Uiso   1.00
N90    N     0.62168   0.89369   0.18819   0.00000  Uiso   1.00
N91    N     0.86945   0.89370   0.40374   0.00000  Uiso   1.00
N92    N     0.48227   0.89405   0.44814   0.00000  Uiso   1.00
C93    C     0.84225   0.92464   0.84669   0.00000  Uiso   1.00
C94    C     0.85220   0.84605   0.80301   0.00000  Uiso   1.00
C95    C     0.86057   0.94301   0.76629   0.00000  Uiso   1.00
C96    C     0.86894   0.84628   0.72951   0.00000  Uiso   1.00
C97    C     0.88436   0.75268   0.66168   0.00000  Uiso   1.00
C98    C     0.78391   0.84605   0.86241   0.00000  Uiso   1.00
C99    C     0.73486   0.94301   0.87564   0.00000  Uiso   1.00
C100   C     0.68574   0.84627   0.88887   0.00000  Uiso   1.00
C101   C     0.59515   0.75267   0.91330   0.00000  Uiso   1.00
C102   C     0.89062   0.84595   0.87464   0.00000  Uiso   1.00
C103   C     0.93129   0.94283   0.89816   0.00000  Uiso   1.00
C104   C     0.97200   0.84601   0.92170   0.00000  Uiso   1.00
C105   C     0.04710   0.75226   0.96511   0.00000  Uiso   1.00
C106   C     0.84222   0.58044   0.84667   0.00000  Uiso   1.00
C107   C     0.85218   0.65909   0.80300   0.00000  Uiso   1.00
C108   C     0.86054   0.56218   0.76627   0.00000  Uiso   1.00
C109   C     0.86892   0.65898   0.72950   0.00000  Uiso   1.00
C110   C     0.78389   0.65909   0.86240   0.00000  Uiso   1.00
C111   C     0.73483   0.56218   0.87562   0.00000  Uiso   1.00
C112   C     0.68572   0.65897   0.88886   0.00000  Uiso   1.00
C113   C     0.89060   0.65899   0.87463   0.00000  Uiso   1.00
C114   C     0.93126   0.56200   0.89814   0.00000  Uiso   1.00
C115   C     0.97199   0.65871   0.92169   0.00000  Uiso   1.00
H116   H     0.84226   0.07020   0.84670   0.00000  Uiso   1.00
H117   H     0.86058   0.08770   0.76631   0.00000  Uiso   1.00
H118   H     0.73489   0.08769   0.87565   0.00000  Uiso   1.00
H119   H     0.93129   0.08751   0.89816   0.00000  Uiso   1.00
H120   H     0.88085   0.02465   0.67717   0.00000  Uiso   1.00
H121   H     0.61585   0.02463   0.90773   0.00000  Uiso   1.00
H122   H     0.02999   0.02425   0.95521   0.00000  Uiso   1.00
H123   H     0.84221   0.43487   0.84667   0.00000  Uiso   1.00
H124   H     0.86052   0.41750   0.76627   0.00000  Uiso   1.00
H125   H     0.73483   0.41750   0.87561   0.00000  Uiso   1.00
H126   H     0.93123   0.41732   0.89812   0.00000  Uiso   1.00
H127   H     0.88080   0.48069   0.67714   0.00000  Uiso   1.00
H128   H     0.61580   0.48069   0.90771   0.00000  Uiso   1.00
H129   H     0.02994   0.48030   0.95518   0.00000  Uiso   1.00
O130   O     0.89286   0.75271   0.62427   0.00000  Uiso   1.00
O131   O     0.54519   0.75270   0.92676   0.00000  Uiso   1.00
O132   O     0.08853   0.75220   0.98905   0.00000  Uiso   1.00
N133   N     0.87834   0.89901   0.68820   0.00000  Uiso   1.00
N134   N     0.63057   0.89900   0.90375   0.00000  Uiso   1.00
N135   N     0.01775   0.89864   0.94815   0.00000  Uiso   1.00
N136   N     0.87832   0.60631   0.68819   0.00000  Uiso   1.00
N137   N     0.63055   0.60630   0.90374   0.00000  Uiso   1.00
N138   N     0.01773   0.60595   0.94814   0.00000  Uiso   1.00
C139   C     0.34225   0.42464   0.84669   0.00000  Uiso   1.00
C140   C     0.35220   0.34605   0.80301   0.00000  Uiso   1.00
C141   C     0.36057   0.44301   0.76629   0.00000  Uiso   1.00
C142   C     0.36894   0.34628   0.72951   0.00000  Uiso   1.00
C143   C     0.38436   0.25268   0.66168   0.00000  Uiso   1.00
C144   C     0.28391   0.34605   0.86241   0.00000  Uiso   1.00
C145   C     0.23486   0.44301   0.87564   0.00000  Uiso   1.00
C146   C     0.18574   0.34627   0.88887   0.00000  Uiso   1.00
C147   C     0.09515   0.25267   0.91330   0.00000  Uiso   1.00
C148   C     0.39062   0.34595   0.87464   0.00000  Uiso   1.00
C149   C     0.43129   0.44283   0.89816   0.00000  Uiso   1.00
C150   C     0.47200   0.34601   0.92170   0.00000  Uiso   1.00
C151   C     0.54710   0.25226   0.96511   0.00000  Uiso   1.00
C152   C     0.34222   0.08044   0.84667   0.00000  Uiso   1.00
C153   C     0.35218   0.15909   0.80300   0.00000  Uiso   1.00
C154   C     0.36054   0.06218   0.76627   0.00000  Uiso   1.00
C155   C     0.36892   0.15898   0.72950   0.00000  Uiso   1.00
C156   C     0.28389   0.15909   0.86240   0.00000  Uiso   1.00
C157   C     0.23483   0.06218   0.87562   0.00000  Uiso   1.00
C158   C     0.18572   0.15897   0.88886   0.00000  Uiso   1.00
C159   C     0.39060   0.15899   0.87463   0.00000  Uiso   1.00
C160   C     0.43126   0.06200   0.89814   0.00000  Uiso   1.00
C161   C     0.47199   0.15871   0.92169   0.00000  Uiso   1.00
H162   H     0.34226   0.57020   0.84670   0.00000  Uiso   1.00
H163   H     0.36058   0.58770   0.76631   0.00000  Uiso   1.00
H164   H     0.23489   0.58769   0.87565   0.00000  Uiso   1.00
H165   H     0.43129   0.58751   0.89816   0.00000  Uiso   1.00
H166   H     0.38085   0.52465   0.67717   0.00000  Uiso   1.00
H167   H     0.11585   0.52463   0.90773   0.00000  Uiso   1.00
H168   H     0.52999   0.52425   0.95521   0.00000  Uiso   1.00
H169   H     0.34221   0.93487   0.84667   0.00000  Uiso   1.00
H170   H     0.36052   0.91750   0.76627   0.00000  Uiso   1.00
H171   H     0.23483   0.91750   0.87561   0.00000  Uiso   1.00
H172   H     0.43123   0.91732   0.89812   0.00000  Uiso   1.00
H173   H     0.38080   0.98069   0.67714   0.00000  Uiso   1.00
H174   H     0.11580   0.98069   0.90771   0.00000  Uiso   1.00
H175   H     0.52994   0.98030   0.95518   0.00000  Uiso   1.00
O176   O     0.39286   0.25271   0.62427   0.00000  Uiso   1.00
O177   O     0.04519   0.25270   0.92676   0.00000  Uiso   1.00
O178   O     0.58853   0.25220   0.98905   0.00000  Uiso   1.00
N179   N     0.37834   0.39901   0.68820   0.00000  Uiso   1.00
N180   N     0.13057   0.39900   0.90375   0.00000  Uiso   1.00
N181   N     0.51775   0.39864   0.94815   0.00000  Uiso   1.00
N182   N     0.37832   0.10631   0.68819   0.00000  Uiso   1.00
N183   N     0.13055   0.10630   0.90374   0.00000  Uiso   1.00
N184   N     0.51773   0.10595   0.94814   0.00000  Uiso   1.00
C185   C     0.84225   0.07536   0.15331   0.00000  Uiso   1.00
C186   C     0.85220   0.15395   0.19699   0.00000  Uiso   1.00
C187   C     0.86057   0.05699   0.23371   0.00000  Uiso   1.00
C188   C     0.86894   0.15372   0.27049   0.00000  Uiso   1.00
C189   C     0.88436   0.24732   0.33832   0.00000  Uiso   1.00
C190   C     0.78391   0.15395   0.13759   0.00000  Uiso   1.00
C191   C     0.73486   0.05699   0.12436   0.00000  Uiso   1.00
C192   C     0.68574   0.15373   0.11113   0.00000  Uiso   1.00
C193   C     0.59515   0.24733   0.08670   0.00000  Uiso   1.00
C194   C     0.89062   0.15405   0.12536   0.00000  Uiso   1.00
C195   C     0.93129   0.05717   0.10184   0.00000  Uiso   1.00
C196   C     0.97200   0.15399   0.07830   0.00000  Uiso   1.00
C197   C     0.04710   0.24774   0.03489   0.00000  Uiso   1.00
C198   C     0.84222   0.41956   0.15333   0.00000  Uiso   1.00
C199   C     0.85218   0.34091   0.19700   0.00000  Uiso   1.00
C200   C     0.86054   0.43782   0.23373   0.00000  Uiso   1.00
C201   C     0.86892   0.34102   0.27050   0.00000  Uiso   1.00
C202   C     0.78389   0.34091   0.13760   0.00000  Uiso   1.00
C203   C     0.73483   0.43782   0.12438   0.00000  Uiso   1.00
C204   C     0.68572   0.34103   0.11114   0.00000  Uiso   1.00
C205   C     0.89060   0.34101   0.12537   0.00000  Uiso   1.00
C206   C     0.93126   0.43800   0.10186   0.00000  Uiso   1.00
C207   C     0.97199   0.34129   0.07831   0.00000  Uiso   1.00
H208   H     0.84226   0.92980   0.15330   0.00000  Uiso   1.00
H209   H     0.86058   0.91230   0.23369   0.00000  Uiso   1.00
H210   H     0.73489   0.91231   0.12435   0.00000  Uiso   1.00
H211   H     0.93129   0.91249   0.10184   0.00000  Uiso   1.00
H212   H     0.88085   0.97535   0.32283   0.00000  Uiso   1.00
H213   H     0.61585   0.97537   0.09227   0.00000  Uiso   1.00
H214   H     0.02999   0.97575   0.04479   0.00000  Uiso   1.00
H215   H     0.84221   0.56513   0.15333   0.00000  Uiso   1.00
H216   H     0.86052   0.58250   0.23373   0.00000  Uiso   1.00
H217   H     0.73483   0.58250   0.12439   0.00000  Uiso   1.00
H218   H     0.93123   0.58268   0.10188   0.00000  Uiso   1.00
H219   H     0.88080   0.51931   0.32286   0.00000  Uiso   1.00
H220   H     0.61580   0.51931   0.09229   0.00000  Uiso   1.00
H221   H     0.02994   0.51970   0.04482   0.00000  Uiso   1.00
O222   O     0.89286   0.24729   0.37573   0.00000  Uiso   1.00
O223   O     0.54519   0.24730   0.07324   0.00000  Uiso   1.00
O224   O     0.08853   0.24780   0.01095   0.00000  Uiso   1.00
N225   N     0.87834   0.10099   0.31180   0.00000  Uiso   1.00
N226   N     0.63057   0.10100   0.09625   0.00000  Uiso   1.00
N227   N     0.01775   0.10136   0.05185   0.00000  Uiso   1.00
N228   N     0.87832   0.39369   0.31181   0.00000  Uiso   1.00
N229   N     0.63055   0.39370   0.09626   0.00000  Uiso   1.00
N230   N     0.01773   0.39405   0.05186   0.00000  Uiso   1.00
C231   C     0.34225   0.57536   0.15331   0.00000  Uiso   1.00
C232   C     0.35220   0.65395   0.19699   0.00000  Uiso   1.00
C233   C     0.36057   0.55699   0.23371   0.00000  Uiso   1.00
C234   C     0.36894   0.65372   0.27049   0.00000  Uiso   1.00
C235   C     0.38436   0.74732   0.33832   0.00000  Uiso   1.00
C236   C     0.28391   0.65395   0.13759   0.00000  Uiso   1.00
C237   C     0.23486   0.55699   0.12436   0.00000  Uiso   1.00
C238   C     0.18574   0.65373   0.11113   0.00000  Uiso   1.00
C239   C     0.09515   0.74733   0.08670   0.00000  Uiso   1.00
C240   C     0.39062   0.65405   0.12536   0.00000  Uiso   1.00
C241   C     0.43129   0.55717   0.10184   0.00000  Uiso   1.00
C242   C     0.47200   0.65399   0.07830   0.00000  Uiso   1.00
C243   C     0.54710   0.74774   0.03489   0.00000  Uiso   1.00
C244   C     0.34222   0.91956   0.15333   0.00000  Uiso   1.00
C245   C     0.35218   0.84091   0.19700   0.00000  Uiso   1.00
C246   C     0.36054   0.93782   0.23373   0.00000  Uiso   1.00
C247   C     0.36892   0.84102   0.27050   0.00000  Uiso   1.00
C248   C     0.28389   0.84091   0.13760   0.00000  Uiso   1.00
C249   C     0.23483   0.93782   0.12438   0.00000  Uiso   1.00
C250   C     0.18572   0.84103   0.11114   0.00000  Uiso   1.00
C251   C     0.39060   0.84101   0.12537   0.00000  Uiso   1.00
C252   C     0.43126   0.93800   0.10186   0.00000  Uiso   1.00
C253   C     0.47199   0.84129   0.07831   0.00000  Uiso   1.00
H254   H     0.34226   0.42980   0.15330   0.00000  Uiso   1.00
H255   H     0.36058   0.41230   0.23369   0.00000  Uiso   1.00
H256   H     0.23489   0.41231   0.12435   0.00000  Uiso   1.00
H257   H     0.43129   0.41249   0.10184   0.00000  Uiso   1.00
H258   H     0.38085   0.47535   0.32283   0.00000  Uiso   1.00
H259   H     0.11585   0.47537   0.09227   0.00000  Uiso   1.00
H260   H     0.52999   0.47575   0.04479   0.00000  Uiso   1.00
H261   H     0.34221   0.06513   0.15333   0.00000  Uiso   1.00
H262   H     0.36052   0.08250   0.23373   0.00000  Uiso   1.00
H263   H     0.23483   0.08250   0.12439   0.00000  Uiso   1.00
H264   H     0.43123   0.08268   0.10188   0.00000  Uiso   1.00
H265   H     0.38080   0.01931   0.32286   0.00000  Uiso   1.00
H266   H     0.11580   0.01931   0.09229   0.00000  Uiso   1.00
H267   H     0.52994   0.01970   0.04482   0.00000  Uiso   1.00
O268   O     0.39286   0.74729   0.37573   0.00000  Uiso   1.00
O269   O     0.04519   0.74730   0.07324   0.00000  Uiso   1.00
O270   O     0.58853   0.74780   0.01095   0.00000  Uiso   1.00
N271   N     0.37834   0.60099   0.31180   0.00000  Uiso   1.00
N272   N     0.13057   0.60100   0.09625   0.00000  Uiso   1.00
N273   N     0.51775   0.60136   0.05185   0.00000  Uiso   1.00
N274   N     0.37832   0.89369   0.31181   0.00000  Uiso   1.00
N275   N     0.13055   0.89370   0.09626   0.00000  Uiso   1.00
N276   N     0.51773   0.89405   0.05186   0.00000  Uiso   1.00
C277   C     0.15775   0.92464   0.65331   0.00000  Uiso   1.00
C278   C     0.14780   0.84605   0.69699   0.00000  Uiso   1.00
C279   C     0.13943   0.94301   0.73371   0.00000  Uiso   1.00
C280   C     0.13106   0.84628   0.77049   0.00000  Uiso   1.00
C281   C     0.11564   0.75268   0.83832   0.00000  Uiso   1.00
C282   C     0.21609   0.84605   0.63759   0.00000  Uiso   1.00
C283   C     0.26514   0.94301   0.62436   0.00000  Uiso   1.00
C284   C     0.31426   0.84627   0.61113   0.00000  Uiso   1.00
C285   C     0.40485   0.75267   0.58670   0.00000  Uiso   1.00
C286   C     0.10938   0.84595   0.62536   0.00000  Uiso   1.00
C287   C     0.06871   0.94283   0.60184   0.00000  Uiso   1.00
C288   C     0.02800   0.84601   0.57830   0.00000  Uiso   1.00
C289   C     0.95290   0.75226   0.53489   0.00000  Uiso   1.00
C290   C     0.15778   0.58044   0.65333   0.00000  Uiso   1.00
C291   C     0.14782   0.65909   0.69700   0.00000  Uiso   1.00
C292   C     0.13946   0.56218   0.73373   0.00000  Uiso   1.00
C293   C     0.13108   0.65898   0.77050   0.00000  Uiso   1.00
C294   C     0.21611   0.65909   0.63760   0.00000  Uiso   1.00
C295   C     0.26517   0.56218   0.62438   0.00000  Uiso   1.00
C296   C     0.31428   0.65897   0.61114   0.00000  Uiso   1.00
C297   C     0.10940   0.65899   0.62537   0.00000  Uiso   1.00
C298   C     0.06874   0.56200   0.60186   0.00000  Uiso   1.00
C299   C     0.02801   0.65871   0.57831   0.00000  Uiso   1.00
H300   H     0.15774   0.07020   0.65330   0.00000  Uiso   1.00
H301   H     0.13942   0.08770   0.73369   0.00000  Uiso   1.00
H302   H     0.26511   0.08769   0.62435   0.00000  Uiso   1.00
H303   H     0.06871   0.08751   0.60184   0.00000  Uiso   1.00
H304   H     0.11915   0.02465   0.82283   0.00000  Uiso   1.00
H305   H     0.38415   0.02463   0.59227   0.00000  Uiso   1.00
H306   H     0.97001   0.02425   0.54479   0.00000  Uiso   1.00
H307   H     0.15779   0.43487   0.65333   0.00000  Uiso   1.00
H308   H     0.13948   0.41750   0.73373   0.00000  Uiso   1.00
H309   H     0.26517   0.41750   0.62439   0.00000  Uiso   1.00
H310   H     0.06877   0.41732   0.60188   0.00000  Uiso   1.00
H311   H     0.11920   0.48069   0.82286   0.00000  Uiso   1.00
H312   H     0.38420   0.48069   0.59229   0.00000  Uiso   1.00
H313   H     0.97006   0.48030   0.54482   0.00000  Uiso   1.00
O314   O     0.10714   0.75271   0.87573   0.00000  Uiso   1.00
O315   O     0.45481   0.75270   0.57324   0.00000  Uiso   1.00
O316   O     0.91147   0.75220   0.51095   0.00000  Uiso   1.00
N317   N     0.12166   0.89901   0.81180   0.00000  Uiso   1.00
N318   N     0.36943   0.89900   0.59625   0.00000  Uiso   1.00
N319   N     0.98225   0.89864   0.55185   0.00000  Uiso   1.00
N320   N     0.12168   0.60631   0.81181   0.00000  Uiso   1.00
N321   N     0.36945   0.60630   0.59626   0.00000  Uiso   1.00
N322   N     0.98227   0.60595   0.55186   0.00000  Uiso   1.00
C323   C     0.65775   0.42464   0.65331   0.00000  Uiso   1.00
C324   C     0.64780   0.34605   0.69699   0.00000  Uiso   1.00
C325   C     0.63943   0.44301   0.73371   0.00000  Uiso   1.00
C326   C     0.63106   0.34628   0.77049   0.00000  Uiso   1.00
C327   C     0.61564   0.25268   0.83832   0.00000  Uiso   1.00
C328   C     0.71609   0.34605   0.63759   0.00000  Uiso   1.00
C329   C     0.76514   0.44301   0.62436   0.00000  Uiso   1.00
C330   C     0.81426   0.34627   0.61113   0.00000  Uiso   1.00
C331   C     0.90485   0.25267   0.58670   0.00000  Uiso   1.00
C332   C     0.60938   0.34595   0.62536   0.00000  Uiso   1.00
C333   C     0.56871   0.44283   0.60184   0.00000  Uiso   1.00
C334   C     0.52800   0.34601   0.57830   0.00000  Uiso   1.00
C335   C     0.45290   0.25226   0.53489   0.00000  Uiso   1.00
C336   C     0.65778   0.08044   0.65333   0.00000  Uiso   1.00
C337   C     0.64782   0.15909   0.69700   0.00000  Uiso   1.00
C338   C     0.63946   0.06218   0.73373   0.00000  Uiso   1.00
C339   C     0.63108   0.15898   0.77050   0.00000  Uiso   1.00
C340   C     0.71611   0.15909   0.63760   0.00000  Uiso   1.00
C341   C     0.76517   0.06218   0.62438   0.00000  Uiso   1.00
C342   C     0.81428   0.15897   0.61114   0.00000  Uiso   1.00
C343   C     0.60940   0.15899   0.62537   0.00000  Uiso   1.00
C344   C     0.56874   0.06200   0.60186   0.00000  Uiso   1.00
C345   C     0.52801   0.15871   0.57831   0.00000  Uiso   1.00
H346   H     0.65774   0.57020   0.65330   0.00000  Uiso   1.00
H347   H     0.63942   0.58770   0.73369   0.00000  Uiso   1.00
H348   H     0.76511   0.58769   0.62435   0.00000  Uiso   1.00
H349   H     0.56871   0.58751   0.60184   0.00000  Uiso   1.00
H350   H     0.61915   0.52465   0.82283   0.00000  Uiso   1.00
H351   H     0.88415   0.52463   0.59227   0.00000  Uiso   1.00
H352   H     0.47001   0.52425   0.54479   0.00000  Uiso   1.00
H353   H     0.65779   0.93487   0.65333   0.00000  Uiso   1.00
H354   H     0.63948   0.91750   0.73373   0.00000  Uiso   1.00
H355   H     0.76517   0.91750   0.62439   0.00000  Uiso   1.00
H356   H     0.56877   0.91732   0.60188   0.00000  Uiso   1.00
H357   H     0.61920   0.98069   0.82286   0.00000  Uiso   1.00
H358   H     0.88420   0.98069   0.59229   0.00000  Uiso   1.00
H359   H     0.47006   0.98030   0.54482   0.00000  Uiso   1.00
O360   O     0.60714   0.25271   0.87573   0.00000  Uiso   1.00
O361   O     0.95481   0.25270   0.57324   0.00000  Uiso   1.00
O362   O     0.41147   0.25220   0.51095   0.00000  Uiso   1.00
N363   N     0.62166   0.39901   0.81180   0.00000  Uiso   1.00
N364   N     0.86943   0.39900   0.59625   0.00000  Uiso   1.00
N365   N     0.48225   0.39864   0.55185   0.00000  Uiso   1.00
N366   N     0.62168   0.10631   0.81181   0.00000  Uiso   1.00
N367   N     0.86945   0.10630   0.59626   0.00000  Uiso   1.00
N368   N     0.48227   0.10595   0.55186   0.00000  Uiso   1.00
