data_job_06241
_audit_creation_date              2018-12-19
_audit_creation_method            'Materials Studio'
_symmetry_space_group_name_H-M    'P1'
_symmetry_Int_Tables_number       1
_symmetry_cell_setting            triclinic
loop_
_symmetry_equiv_pos_as_xyz
  x,y,z
_cell_length_a                    10.2659
_cell_length_b                    21.7901
_cell_length_c                    22.7196
_cell_angle_alpha                 117.4280
_cell_angle_beta                  78.5606
_cell_angle_gamma                 87.6549
loop_
_atom_site_label
_atom_site_type_symbol
_atom_site_fract_x
_atom_site_fract_y
_atom_site_fract_z
_atom_site_U_iso_or_equiv
_atom_site_adp_type
_atom_site_occupancy
C1     C     0.89440   0.15745   0.28139   0.00000  Uiso   1.00
C2     C     0.90195   0.23528   0.32112   0.00000  Uiso   1.00
C3     C     0.98598   0.27199   0.29794   0.00000  Uiso   1.00
C4     C     0.97780   0.34290   0.34200   0.00000  Uiso   1.00
C5     C     0.00313   0.45874   0.39384   0.00000  Uiso   1.00
C6     C     0.92095   0.12628   0.32654   0.00000  Uiso   1.00
C7     C     0.02094   0.07134   0.30792   0.00000  Uiso   1.00
C8     C     0.02873   0.05049   0.35654   0.00000  Uiso   1.00
C9     C     0.08348   0.99707   0.41678   0.00000  Uiso   1.00
C10    C     0.74794   0.15233   0.27837   0.00000  Uiso   1.00
C11    C     0.70246   0.11929   0.21925   0.00000  Uiso   1.00
C12    C     0.56459   0.12035   0.22732   0.00000  Uiso   1.00
C13    C     0.35073   0.10738   0.21277   0.00000  Uiso   1.00
C14    C     0.73044   0.21809   0.40085   0.00000  Uiso   1.00
C15    C     0.81290   0.26822   0.38601   0.00000  Uiso   1.00
C16    C     0.80458   0.33909   0.43011   0.00000  Uiso   1.00
C17    C     0.88858   0.37590   0.40701   0.00000  Uiso   1.00
C18    C     0.83190   0.15922   0.39143   0.00000  Uiso   1.00
C19    C     0.83954   0.13844   0.44009   0.00000  Uiso   1.00
C20    C     0.93951   0.08349   0.42155   0.00000  Uiso   1.00
C21    C     0.65888   0.18527   0.34326   0.00000  Uiso   1.00
C22    C     0.52106   0.18638   0.35143   0.00000  Uiso   1.00
C23    C     0.47538   0.15335   0.29233   0.00000  Uiso   1.00
H24    H     0.96373   0.13180   0.23087   0.00000  Uiso   1.00
H25    H     0.05490   0.24648   0.24772   0.00000  Uiso   1.00
H26    H     0.08983   0.04586   0.25770   0.00000  Uiso   1.00
H27    H     0.77140   0.09380   0.16905   0.00000  Uiso   1.00
H28    H     0.11673   0.38815   0.29503   0.00000  Uiso   1.00
H29    H     0.19036   0.96512   0.31605   0.00000  Uiso   1.00
H30    H     0.51890   0.06620   0.12912   0.00000  Uiso   1.00
H31    H     0.66111   0.24373   0.45137   0.00000  Uiso   1.00
H32    H     0.73566   0.36456   0.48033   0.00000  Uiso   1.00
H33    H     0.77060   0.16394   0.49030   0.00000  Uiso   1.00
H34    H     0.45218   0.21188   0.40165   0.00000  Uiso   1.00
H35    H     0.85763   0.48399   0.48382   0.00000  Uiso   1.00
H36    H     0.93126   0.06095   0.50484   0.00000  Uiso   1.00
H37    H     0.25980   0.16204   0.31791   0.00000  Uiso   1.00
O38    O     0.04172   0.51353   0.40451   0.00000  Uiso   1.00
O39    O     0.13830   0.95851   0.43207   0.00000  Uiso   1.00
O40    O     0.25737   0.09114   0.18682   0.00000  Uiso   1.00
N41    N     0.04550   0.39413   0.33549   0.00000  Uiso   1.00
N42    N     0.11435   0.99862   0.35514   0.00000  Uiso   1.00
N43    N     0.48660   0.09311   0.18037   0.00000  Uiso   1.00
N44    N     0.90608   0.44570   0.43707   0.00000  Uiso   1.00
N45    N     0.97493   0.05019   0.45673   0.00000  Uiso   1.00
N46    N     0.34718   0.14468   0.28196   0.00000  Uiso   1.00
C47    C     0.18581   0.72319   0.87426   0.00000  Uiso   1.00
C48    C     0.22380   0.68273   0.90965   0.00000  Uiso   1.00
C49    C     0.28119   0.70843   0.96523   0.00000  Uiso   1.00
C50    C     0.30843   0.66316   0.99017   0.00000  Uiso   1.00
C51    C     0.37191   0.61073   0.04960   0.00000  Uiso   1.00
C52    C     0.26006   0.67998   0.79913   0.00000  Uiso   1.00
C53    C     0.34794   0.70338   0.76179   0.00000  Uiso   1.00
C54    C     0.40568   0.65580   0.69370   0.00000  Uiso   1.00
C55    C     0.52539   0.59913   0.58155   0.00000  Uiso   1.00
C56    C     0.03678   0.72045   0.87662   0.00000  Uiso   1.00
C57    C     0.93690   0.77788   0.90441   0.00000  Uiso   1.00
C58    C     0.80666   0.76438   0.90155   0.00000  Uiso   1.00
C59    C     0.57968   0.77054   0.90971   0.00000  Uiso   1.00
C60    C     0.13210   0.59709   0.81973   0.00000  Uiso   1.00
C61    C     0.19463   0.61423   0.88003   0.00000  Uiso   1.00
C62    C     0.22177   0.56892   0.90490   0.00000  Uiso   1.00
C63    C     0.27920   0.59455   0.96050   0.00000  Uiso   1.00
C64    C     0.23089   0.61149   0.76952   0.00000  Uiso   1.00
C65    C     0.28852   0.56387   0.70147   0.00000  Uiso   1.00
C66    C     0.37646   0.58719   0.66403   0.00000  Uiso   1.00
C67    C     0.00760   0.65196   0.84701   0.00000  Uiso   1.00
C68    C     0.87749   0.63837   0.84409   0.00000  Uiso   1.00
C69    C     0.77743   0.69576   0.87188   0.00000  Uiso   1.00
H70    H     0.20852   0.77651   0.89731   0.00000  Uiso   1.00
H71    H     0.30376   0.76143   0.98813   0.00000  Uiso   1.00
H72    H     0.37048   0.75639   0.78473   0.00000  Uiso   1.00
H73    H     0.95951   0.83088   0.92733   0.00000  Uiso   1.00
H74    H     0.39654   0.71450   0.07573   0.00000  Uiso   1.00
H75    H     0.53718   0.70387   0.64685   0.00000  Uiso   1.00
H76    H     0.67057   0.86094   0.94755   0.00000  Uiso   1.00
H77    H     0.10939   0.54377   0.79667   0.00000  Uiso   1.00
H78    H     0.19919   0.51591   0.88197   0.00000  Uiso   1.00
H79    H     0.26591   0.51087   0.67856   0.00000  Uiso   1.00
H80    H     0.85495   0.58536   0.82117   0.00000  Uiso   1.00
H81    H     0.31167   0.51523   0.98957   0.00000  Uiso   1.00
H82    H     0.45231   0.50460   0.56068   0.00000  Uiso   1.00
H83    H     0.58570   0.66167   0.86138   0.00000  Uiso   1.00
O84    O     0.41501   0.60073   0.09056   0.00000  Uiso   1.00
O85    O     0.59950   0.58680   0.52787   0.00000  Uiso   1.00
O86    O     0.46254   0.79286   0.92240   0.00000  Uiso   1.00
N87    N     0.36421   0.67143   0.04376   0.00000  Uiso   1.00
N88    N     0.49572   0.66149   0.64278   0.00000  Uiso   1.00
N89    N     0.68553   0.80833   0.92389   0.00000  Uiso   1.00
N90    N     0.31854   0.56420   0.99739   0.00000  Uiso   1.00
N91    N     0.45005   0.55426   0.59641   0.00000  Uiso   1.00
N92    N     0.63986   0.70111   0.87753   0.00000  Uiso   1.00
C93    C     0.04788   0.12471   0.84475   0.00000  Uiso   1.00
C94    C     0.12504   0.09180   0.76997   0.00000  Uiso   1.00
C95    C     0.23417   0.03849   0.73826   0.00000  Uiso   1.00
C96    C     0.29084   0.01560   0.66947   0.00000  Uiso   1.00
C97    C     0.41840   0.96006   0.55880   0.00000  Uiso   1.00
C98    C     0.05333   0.20294   0.87501   0.00000  Uiso   1.00
C99    C     0.10215   0.24308   0.93164   0.00000  Uiso   1.00
C100   C     0.09844   0.31376   0.95127   0.00000  Uiso   1.00
C101   C     0.11458   0.43078   0.00372   0.00000  Uiso   1.00
C102   C     0.90128   0.11649   0.84418   0.00000  Uiso   1.00
C103   C     0.82223   0.08395   0.87488   0.00000  Uiso   1.00
C104   C     0.69049   0.08185   0.86857   0.00000  Uiso   1.00
C105   C     0.47055   0.06464   0.87313   0.00000  Uiso   1.00
C106   C     0.95447   0.17885   0.77895   0.00000  Uiso   1.00
C107   C     0.07430   0.12121   0.73423   0.00000  Uiso   1.00
C108   C     0.13082   0.09840   0.66547   0.00000  Uiso   1.00
C109   C     0.24001   0.04506   0.63366   0.00000  Uiso   1.00
C110   C     0.00259   0.23236   0.83928   0.00000  Uiso   1.00
C111   C     0.99879   0.30299   0.85884   0.00000  Uiso   1.00
C112   C     0.04761   0.34323   0.91547   0.00000  Uiso   1.00
C113   C     0.85053   0.14590   0.80844   0.00000  Uiso   1.00
C114   C     0.71889   0.14386   0.80208   0.00000  Uiso   1.00
C115   C     0.63966   0.11132   0.83277   0.00000  Uiso   1.00
H116   H     0.08739   0.10181   0.87258   0.00000  Uiso   1.00
H117   H     0.27341   0.01575   0.76594   0.00000  Uiso   1.00
H118   H     0.14140   0.22031   0.95929   0.00000  Uiso   1.00
H119   H     0.86153   0.06120   0.90253   0.00000  Uiso   1.00
H120   H     0.45731   0.93331   0.63196   0.00000  Uiso   1.00
H121   H     0.17891   0.36465   0.03965   0.00000  Uiso   1.00
H122   H     0.58875   0.02914   0.91999   0.00000  Uiso   1.00
H123   H     0.91496   0.20176   0.75113   0.00000  Uiso   1.00
H124   H     0.09153   0.12117   0.63782   0.00000  Uiso   1.00
H125   H     0.95952   0.32573   0.83117   0.00000  Uiso   1.00
H126   H     0.67965   0.16662   0.77442   0.00000  Uiso   1.00
H127   H     0.30970   0.01888   0.52798   0.00000  Uiso   1.00
H128   H     0.03128   0.45022   0.93568   0.00000  Uiso   1.00
H129   H     0.44114   0.11470   0.81600   0.00000  Uiso   1.00
O130   O     0.50279   0.92130   0.50763   0.00000  Uiso   1.00
O131   O     0.13751   0.48720   0.04252   0.00000  Uiso   1.00
O132   O     0.36326   0.04701   0.88551   0.00000  Uiso   1.00
N133   N     0.39832   0.96450   0.62303   0.00000  Uiso   1.00
N134   N     0.13805   0.36777   0.00420   0.00000  Uiso   1.00
N135   N     0.58630   0.05411   0.89233   0.00000  Uiso   1.00
N136   N     0.31889   0.01054   0.56708   0.00000  Uiso   1.00
N137   N     0.05862   0.41382   0.94824   0.00000  Uiso   1.00
N138   N     0.50686   0.10015   0.83638   0.00000  Uiso   1.00
C139   C     0.10560   0.84255   0.71861   0.00000  Uiso   1.00
C140   C     0.09805   0.76472   0.67888   0.00000  Uiso   1.00
C141   C     0.01402   0.72800   0.70206   0.00000  Uiso   1.00
C142   C     0.02220   0.65710   0.65800   0.00000  Uiso   1.00
C143   C     0.99687   0.54126   0.60616   0.00000  Uiso   1.00
C144   C     0.07905   0.87372   0.67346   0.00000  Uiso   1.00
C145   C     0.97906   0.92866   0.69208   0.00000  Uiso   1.00
C146   C     0.97127   0.94951   0.64346   0.00000  Uiso   1.00
C147   C     0.91652   0.00292   0.58322   0.00000  Uiso   1.00
C148   C     0.25206   0.84767   0.72163   0.00000  Uiso   1.00
C149   C     0.29754   0.88071   0.78075   0.00000  Uiso   1.00
C150   C     0.43541   0.87965   0.77268   0.00000  Uiso   1.00
C151   C     0.64927   0.89262   0.78723   0.00000  Uiso   1.00
C152   C     0.26956   0.78191   0.59915   0.00000  Uiso   1.00
C153   C     0.18710   0.73178   0.61399   0.00000  Uiso   1.00
C154   C     0.19542   0.66091   0.56988   0.00000  Uiso   1.00
C155   C     0.11142   0.62410   0.59299   0.00000  Uiso   1.00
C156   C     0.16810   0.84078   0.60857   0.00000  Uiso   1.00
C157   C     0.16046   0.86156   0.55991   0.00000  Uiso   1.00
C158   C     0.06049   0.91651   0.57845   0.00000  Uiso   1.00
C159   C     0.34112   0.81473   0.65674   0.00000  Uiso   1.00
C160   C     0.47894   0.81362   0.64857   0.00000  Uiso   1.00
C161   C     0.52462   0.84665   0.70767   0.00000  Uiso   1.00
H162   H     0.03627   0.86820   0.76913   0.00000  Uiso   1.00
H163   H     0.94510   0.75352   0.75228   0.00000  Uiso   1.00
H164   H     0.91017   0.95414   0.74230   0.00000  Uiso   1.00
H165   H     0.22860   0.90620   0.83095   0.00000  Uiso   1.00
H166   H     0.88327   0.61185   0.70497   0.00000  Uiso   1.00
H167   H     0.80964   0.03488   0.68395   0.00000  Uiso   1.00
H168   H     0.48110   0.93380   0.87088   0.00000  Uiso   1.00
H169   H     0.33889   0.75627   0.54863   0.00000  Uiso   1.00
H170   H     0.26434   0.63544   0.51967   0.00000  Uiso   1.00
H171   H     0.22940   0.83606   0.50970   0.00000  Uiso   1.00
H172   H     0.54782   0.78812   0.59835   0.00000  Uiso   1.00
H173   H     0.14237   0.51601   0.51618   0.00000  Uiso   1.00
H174   H     0.06874   0.93905   0.49516   0.00000  Uiso   1.00
H175   H     0.74020   0.83796   0.68209   0.00000  Uiso   1.00
O176   O     0.95828   0.48646   0.59549   0.00000  Uiso   1.00
O177   O     0.86170   0.04149   0.56793   0.00000  Uiso   1.00
O178   O     0.74263   0.90886   0.81318   0.00000  Uiso   1.00
N179   N     0.95450   0.60587   0.66451   0.00000  Uiso   1.00
N180   N     0.88565   0.00138   0.64486   0.00000  Uiso   1.00
N181   N     0.51340   0.90689   0.81963   0.00000  Uiso   1.00
N182   N     0.09392   0.55430   0.56293   0.00000  Uiso   1.00
N183   N     0.02507   0.94981   0.54327   0.00000  Uiso   1.00
N184   N     0.65282   0.85532   0.71804   0.00000  Uiso   1.00
C185   C     0.81419   0.27681   0.12574   0.00000  Uiso   1.00
C186   C     0.77620   0.31727   0.09035   0.00000  Uiso   1.00
C187   C     0.71881   0.29157   0.03477   0.00000  Uiso   1.00
C188   C     0.69157   0.33684   0.00983   0.00000  Uiso   1.00
C189   C     0.62809   0.38927   0.95040   0.00000  Uiso   1.00
C190   C     0.73994   0.32002   0.20087   0.00000  Uiso   1.00
C191   C     0.65206   0.29662   0.23821   0.00000  Uiso   1.00
C192   C     0.59432   0.34420   0.30630   0.00000  Uiso   1.00
C193   C     0.47461   0.40087   0.41845   0.00000  Uiso   1.00
C194   C     0.96322   0.27955   0.12338   0.00000  Uiso   1.00
C195   C     0.06310   0.22212   0.09559   0.00000  Uiso   1.00
C196   C     0.19334   0.23562   0.09845   0.00000  Uiso   1.00
C197   C     0.42032   0.22946   0.09029   0.00000  Uiso   1.00
C198   C     0.86790   0.40291   0.18027   0.00000  Uiso   1.00
C199   C     0.80537   0.38576   0.11997   0.00000  Uiso   1.00
C200   C     0.77823   0.43108   0.09510   0.00000  Uiso   1.00
C201   C     0.72080   0.40545   0.03950   0.00000  Uiso   1.00
C202   C     0.76911   0.38851   0.23048   0.00000  Uiso   1.00
C203   C     0.71148   0.43613   0.29853   0.00000  Uiso   1.00
C204   C     0.62354   0.41281   0.33597   0.00000  Uiso   1.00
C205   C     0.99240   0.34804   0.15299   0.00000  Uiso   1.00
C206   C     0.12251   0.36163   0.15591   0.00000  Uiso   1.00
C207   C     0.22257   0.30424   0.12812   0.00000  Uiso   1.00
H208   H     0.79148   0.22349   0.10269   0.00000  Uiso   1.00
H209   H     0.69624   0.23857   0.01187   0.00000  Uiso   1.00
H210   H     0.62952   0.24361   0.21527   0.00000  Uiso   1.00
H211   H     0.04049   0.16912   0.07267   0.00000  Uiso   1.00
H212   H     0.60346   0.28550   0.92427   0.00000  Uiso   1.00
H213   H     0.46282   0.29613   0.35315   0.00000  Uiso   1.00
H214   H     0.32943   0.13906   0.05245   0.00000  Uiso   1.00
H215   H     0.89061   0.45623   0.20333   0.00000  Uiso   1.00
H216   H     0.80081   0.48409   0.11803   0.00000  Uiso   1.00
H217   H     0.73409   0.48913   0.32144   0.00000  Uiso   1.00
H218   H     0.14505   0.41464   0.17883   0.00000  Uiso   1.00
H219   H     0.68833   0.48477   0.01043   0.00000  Uiso   1.00
H220   H     0.54769   0.49540   0.43932   0.00000  Uiso   1.00
H221   H     0.41430   0.33833   0.13862   0.00000  Uiso   1.00
O222   O     0.58499   0.39927   0.90944   0.00000  Uiso   1.00
O223   O     0.40050   0.41320   0.47213   0.00000  Uiso   1.00
O224   O     0.53746   0.20714   0.07760   0.00000  Uiso   1.00
N225   N     0.63579   0.32857   0.95624   0.00000  Uiso   1.00
N226   N     0.50428   0.33851   0.35722   0.00000  Uiso   1.00
N227   N     0.31447   0.19167   0.07611   0.00000  Uiso   1.00
N228   N     0.68146   0.43580   0.00261   0.00000  Uiso   1.00
N229   N     0.54995   0.44574   0.40359   0.00000  Uiso   1.00
N230   N     0.36014   0.29889   0.12247   0.00000  Uiso   1.00
C231   C     0.95212   0.87529   0.15525   0.00000  Uiso   1.00
C232   C     0.87496   0.90820   0.23003   0.00000  Uiso   1.00
C233   C     0.76583   0.96151   0.26174   0.00000  Uiso   1.00
C234   C     0.70916   0.98440   0.33053   0.00000  Uiso   1.00
C235   C     0.58160   0.03994   0.44120   0.00000  Uiso   1.00
C236   C     0.94667   0.79706   0.12499   0.00000  Uiso   1.00
C237   C     0.89785   0.75692   0.06836   0.00000  Uiso   1.00
C238   C     0.90156   0.68624   0.04873   0.00000  Uiso   1.00
C239   C     0.88543   0.56922   0.99628   0.00000  Uiso   1.00
C240   C     0.09872   0.88351   0.15582   0.00000  Uiso   1.00
C241   C     0.17777   0.91605   0.12512   0.00000  Uiso   1.00
C242   C     0.30951   0.91815   0.13143   0.00000  Uiso   1.00
C243   C     0.52945   0.93536   0.12687   0.00000  Uiso   1.00
C244   C     0.04553   0.82115   0.22105   0.00000  Uiso   1.00
C245   C     0.92570   0.87879   0.26577   0.00000  Uiso   1.00
C246   C     0.86919   0.90160   0.33453   0.00000  Uiso   1.00
C247   C     0.75999   0.95494   0.36634   0.00000  Uiso   1.00
C248   C     0.99741   0.76764   0.16072   0.00000  Uiso   1.00
C249   C     0.00121   0.69701   0.14116   0.00000  Uiso   1.00
C250   C     0.95239   0.65677   0.08453   0.00000  Uiso   1.00
C251   C     0.14947   0.85410   0.19156   0.00000  Uiso   1.00
C252   C     0.28111   0.85614   0.19792   0.00000  Uiso   1.00
C253   C     0.36034   0.88868   0.16723   0.00000  Uiso   1.00
H254   H     0.91261   0.89819   0.12742   0.00000  Uiso   1.00
H255   H     0.72659   0.98425   0.23406   0.00000  Uiso   1.00
H256   H     0.85860   0.77969   0.04071   0.00000  Uiso   1.00
H257   H     0.13847   0.93880   0.09747   0.00000  Uiso   1.00
H258   H     0.54269   0.06669   0.36804   0.00000  Uiso   1.00
H259   H     0.82109   0.63535   0.96035   0.00000  Uiso   1.00
H260   H     0.41125   0.97086   0.08001   0.00000  Uiso   1.00
H261   H     0.08504   0.79824   0.24887   0.00000  Uiso   1.00
H262   H     0.90847   0.87883   0.36218   0.00000  Uiso   1.00
H263   H     0.04048   0.67427   0.16883   0.00000  Uiso   1.00
H264   H     0.32035   0.83338   0.22558   0.00000  Uiso   1.00
H265   H     0.69030   0.98112   0.47202   0.00000  Uiso   1.00
H266   H     0.96872   0.54978   0.06432   0.00000  Uiso   1.00
H267   H     0.55886   0.88529   0.18400   0.00000  Uiso   1.00
O268   O     0.49721   0.07870   0.49237   0.00000  Uiso   1.00
O269   O     0.86249   0.51280   0.95748   0.00000  Uiso   1.00
O270   O     0.63674   0.95299   0.11448   0.00000  Uiso   1.00
N271   N     0.60168   0.03550   0.37697   0.00000  Uiso   1.00
N272   N     0.86195   0.63223   0.99580   0.00000  Uiso   1.00
N273   N     0.41370   0.94589   0.10767   0.00000  Uiso   1.00
N274   N     0.68111   0.98946   0.43292   0.00000  Uiso   1.00
N275   N     0.94138   0.58618   0.05176   0.00000  Uiso   1.00
N276   N     0.49314   0.89985   0.16362   0.00000  Uiso   1.00
