data_job_02449
_audit_creation_date              2018-12-19
_audit_creation_method            'Materials Studio'
_symmetry_space_group_name_H-M    'P1'
_symmetry_Int_Tables_number       1
_symmetry_cell_setting            triclinic
loop_
_symmetry_equiv_pos_as_xyz
  x,y,z
_cell_length_a                    24.8509
_cell_length_b                    24.8509
_cell_length_c                    8.6042
_cell_angle_alpha                 90.0000
_cell_angle_beta                  90.0000
_cell_angle_gamma                 90.0000
loop_
_atom_site_label
_atom_site_type_symbol
_atom_site_fract_x
_atom_site_fract_y
_atom_site_fract_z
_atom_site_U_iso_or_equiv
_atom_site_adp_type
_atom_site_occupancy
C1     C     0.24372   0.51494   0.23319   0.00000  Uiso   1.00
C2     C     0.24229   0.56466   0.33699   0.00000  Uiso   1.00
C3     C     0.23280   0.61698   0.28769   0.00000  Uiso   1.00
C4     C     0.23315   0.65687   0.40067   0.00000  Uiso   1.00
C5     C     0.22950   0.73590   0.53801   0.00000  Uiso   1.00
C6     C     0.29853   0.48893   0.25989   0.00000  Uiso   1.00
C7     C     0.33632   0.47756   0.14576   0.00000  Uiso   1.00
C8     C     0.38401   0.45369   0.19384   0.00000  Uiso   1.00
C9     C     0.46765   0.41512   0.21146   0.00000  Uiso   1.00
C10    C     0.20236   0.47603   0.30028   0.00000  Uiso   1.00
C11    C     0.15930   0.45381   0.22010   0.00000  Uiso   1.00
C12    C     0.12603   0.41906   0.30219   0.00000  Uiso   1.00
C13    C     0.06035   0.36046   0.38252   0.00000  Uiso   1.00
C14    C     0.26122   0.49275   0.52152   0.00000  Uiso   1.00
C15    C     0.25179   0.55260   0.49360   0.00000  Uiso   1.00
C16    C     0.25216   0.59242   0.60669   0.00000  Uiso   1.00
C17    C     0.24267   0.64479   0.55756   0.00000  Uiso   1.00
C18    C     0.30803   0.47687   0.41649   0.00000  Uiso   1.00
C19    C     0.35567   0.45301   0.46475   0.00000  Uiso   1.00
C20    C     0.39353   0.44161   0.35072   0.00000  Uiso   1.00
C21    C     0.21186   0.46397   0.45689   0.00000  Uiso   1.00
C22    C     0.17865   0.42925   0.53911   0.00000  Uiso   1.00
C23    C     0.13555   0.40698   0.45907   0.00000  Uiso   1.00
H24    H     0.23633   0.52433   0.11127   0.00000  Uiso   1.00
H25    H     0.22545   0.62629   0.16648   0.00000  Uiso   1.00
H26    H     0.32895   0.48690   0.02457   0.00000  Uiso   1.00
H27    H     0.15195   0.46315   0.09892   0.00000  Uiso   1.00
H28    H     0.21760   0.73403   0.29676   0.00000  Uiso   1.00
H29    H     0.43583   0.44008   0.99752   0.00000  Uiso   1.00
H30    H     0.06260   0.39000   0.15428   0.00000  Uiso   1.00
H31    H     0.26862   0.48336   0.64344   0.00000  Uiso   1.00
H32    H     0.25951   0.58308   0.72787   0.00000  Uiso   1.00
H33    H     0.36301   0.44368   0.58595   0.00000  Uiso   1.00
H34    H     0.18602   0.41993   0.66029   0.00000  Uiso   1.00
H35    H     0.24525   0.69895   0.75239   0.00000  Uiso   1.00
H36    H     0.46348   0.40500   0.45315   0.00000  Uiso   1.00
H37    H     0.09025   0.35492   0.60992   0.00000  Uiso   1.00
O38    O     0.22487   0.78283   0.57050   0.00000  Uiso   1.00
O39    O     0.51117   0.39717   0.17791   0.00000  Uiso   1.00
O40    O     0.02150   0.33147   0.38358   0.00000  Uiso   1.00
N41    N     0.22535   0.71209   0.39241   0.00000  Uiso   1.00
N42    N     0.42938   0.43727   0.11264   0.00000  Uiso   1.00
N43    N     0.08045   0.39044   0.25919   0.00000  Uiso   1.00
N44    N     0.24022   0.69321   0.63758   0.00000  Uiso   1.00
N45    N     0.44426   0.41840   0.35782   0.00000  Uiso   1.00
N46    N     0.09533   0.37156   0.50437   0.00000  Uiso   1.00
C47    C     0.75628   0.48506   0.23319   0.00000  Uiso   1.00
C48    C     0.75771   0.43534   0.33699   0.00000  Uiso   1.00
C49    C     0.76720   0.38302   0.28769   0.00000  Uiso   1.00
C50    C     0.76685   0.34313   0.40067   0.00000  Uiso   1.00
C51    C     0.77050   0.26410   0.53801   0.00000  Uiso   1.00
C52    C     0.70147   0.51107   0.25989   0.00000  Uiso   1.00
C53    C     0.66368   0.52244   0.14576   0.00000  Uiso   1.00
C54    C     0.61599   0.54631   0.19384   0.00000  Uiso   1.00
C55    C     0.53235   0.58488   0.21146   0.00000  Uiso   1.00
C56    C     0.79764   0.52397   0.30028   0.00000  Uiso   1.00
C57    C     0.84070   0.54619   0.22010   0.00000  Uiso   1.00
C58    C     0.87397   0.58094   0.30219   0.00000  Uiso   1.00
C59    C     0.93965   0.63954   0.38252   0.00000  Uiso   1.00
C60    C     0.73878   0.50725   0.52152   0.00000  Uiso   1.00
C61    C     0.74821   0.44740   0.49360   0.00000  Uiso   1.00
C62    C     0.74784   0.40758   0.60669   0.00000  Uiso   1.00
C63    C     0.75733   0.35521   0.55756   0.00000  Uiso   1.00
C64    C     0.69197   0.52313   0.41649   0.00000  Uiso   1.00
C65    C     0.64433   0.54699   0.46475   0.00000  Uiso   1.00
C66    C     0.60647   0.55839   0.35072   0.00000  Uiso   1.00
C67    C     0.78814   0.53603   0.45689   0.00000  Uiso   1.00
C68    C     0.82135   0.57075   0.53911   0.00000  Uiso   1.00
C69    C     0.86445   0.59302   0.45907   0.00000  Uiso   1.00
H70    H     0.76367   0.47567   0.11127   0.00000  Uiso   1.00
H71    H     0.77455   0.37371   0.16648   0.00000  Uiso   1.00
H72    H     0.67105   0.51310   0.02457   0.00000  Uiso   1.00
H73    H     0.84805   0.53685   0.09892   0.00000  Uiso   1.00
H74    H     0.78240   0.26597   0.29676   0.00000  Uiso   1.00
H75    H     0.56417   0.55992   0.99752   0.00000  Uiso   1.00
H76    H     0.93740   0.61000   0.15428   0.00000  Uiso   1.00
H77    H     0.73138   0.51664   0.64344   0.00000  Uiso   1.00
H78    H     0.74049   0.41692   0.72787   0.00000  Uiso   1.00
H79    H     0.63699   0.55632   0.58595   0.00000  Uiso   1.00
H80    H     0.81398   0.58007   0.66029   0.00000  Uiso   1.00
H81    H     0.75475   0.30105   0.75239   0.00000  Uiso   1.00
H82    H     0.53652   0.59500   0.45315   0.00000  Uiso   1.00
H83    H     0.90975   0.64508   0.60992   0.00000  Uiso   1.00
O84    O     0.77513   0.21717   0.57050   0.00000  Uiso   1.00
O85    O     0.48883   0.60283   0.17791   0.00000  Uiso   1.00
O86    O     0.97850   0.66853   0.38358   0.00000  Uiso   1.00
N87    N     0.77465   0.28791   0.39241   0.00000  Uiso   1.00
N88    N     0.57062   0.56273   0.11264   0.00000  Uiso   1.00
N89    N     0.91955   0.60956   0.25919   0.00000  Uiso   1.00
N90    N     0.75978   0.30679   0.63758   0.00000  Uiso   1.00
N91    N     0.55574   0.58160   0.35782   0.00000  Uiso   1.00
N92    N     0.90467   0.62844   0.50437   0.00000  Uiso   1.00
C93    C     0.98506   0.74372   0.73319   0.00000  Uiso   1.00
C94    C     0.93534   0.74229   0.83699   0.00000  Uiso   1.00
C95    C     0.88302   0.73280   0.78769   0.00000  Uiso   1.00
C96    C     0.84313   0.73315   0.90067   0.00000  Uiso   1.00
C97    C     0.76410   0.72950   0.03801   0.00000  Uiso   1.00
C98    C     0.01107   0.79853   0.75989   0.00000  Uiso   1.00
C99    C     0.02244   0.83632   0.64576   0.00000  Uiso   1.00
C100   C     0.04631   0.88401   0.69384   0.00000  Uiso   1.00
C101   C     0.08488   0.96765   0.71146   0.00000  Uiso   1.00
C102   C     0.02397   0.70236   0.80028   0.00000  Uiso   1.00
C103   C     0.04619   0.65930   0.72010   0.00000  Uiso   1.00
C104   C     0.08094   0.62603   0.80219   0.00000  Uiso   1.00
C105   C     0.13954   0.56035   0.88252   0.00000  Uiso   1.00
C106   C     0.00725   0.76122   0.02152   0.00000  Uiso   1.00
C107   C     0.94740   0.75179   0.99360   0.00000  Uiso   1.00
C108   C     0.90758   0.75216   0.10669   0.00000  Uiso   1.00
C109   C     0.85521   0.74267   0.05756   0.00000  Uiso   1.00
C110   C     0.02313   0.80803   0.91649   0.00000  Uiso   1.00
C111   C     0.04699   0.85567   0.96475   0.00000  Uiso   1.00
C112   C     0.05839   0.89353   0.85072   0.00000  Uiso   1.00
C113   C     0.03603   0.71186   0.95689   0.00000  Uiso   1.00
C114   C     0.07075   0.67865   0.03911   0.00000  Uiso   1.00
C115   C     0.09302   0.63555   0.95907   0.00000  Uiso   1.00
H116   H     0.97567   0.73633   0.61127   0.00000  Uiso   1.00
H117   H     0.87371   0.72545   0.66648   0.00000  Uiso   1.00
H118   H     0.01310   0.82895   0.52457   0.00000  Uiso   1.00
H119   H     0.03685   0.65195   0.59892   0.00000  Uiso   1.00
H120   H     0.76597   0.71760   0.79676   0.00000  Uiso   1.00
H121   H     0.05992   0.93583   0.49752   0.00000  Uiso   1.00
H122   H     0.11000   0.56260   0.65428   0.00000  Uiso   1.00
H123   H     0.01664   0.76862   0.14344   0.00000  Uiso   1.00
H124   H     0.91692   0.75951   0.22787   0.00000  Uiso   1.00
H125   H     0.05632   0.86301   0.08595   0.00000  Uiso   1.00
H126   H     0.08007   0.68602   0.16029   0.00000  Uiso   1.00
H127   H     0.80105   0.74525   0.25239   0.00000  Uiso   1.00
H128   H     0.09500   0.96348   0.95315   0.00000  Uiso   1.00
H129   H     0.14508   0.59025   0.10992   0.00000  Uiso   1.00
O130   O     0.71717   0.72487   0.07050   0.00000  Uiso   1.00
O131   O     0.10283   0.01117   0.67791   0.00000  Uiso   1.00
O132   O     0.16853   0.52150   0.88358   0.00000  Uiso   1.00
N133   N     0.78791   0.72535   0.89241   0.00000  Uiso   1.00
N134   N     0.06273   0.92938   0.61264   0.00000  Uiso   1.00
N135   N     0.10956   0.58045   0.75919   0.00000  Uiso   1.00
N136   N     0.80679   0.74022   0.13758   0.00000  Uiso   1.00
N137   N     0.08160   0.94426   0.85782   0.00000  Uiso   1.00
N138   N     0.12844   0.59533   0.00437   0.00000  Uiso   1.00
C139   C     0.01494   0.25628   0.73319   0.00000  Uiso   1.00
C140   C     0.06466   0.25771   0.83699   0.00000  Uiso   1.00
C141   C     0.11698   0.26720   0.78769   0.00000  Uiso   1.00
C142   C     0.15687   0.26685   0.90067   0.00000  Uiso   1.00
C143   C     0.23590   0.27050   0.03801   0.00000  Uiso   1.00
C144   C     0.98893   0.20147   0.75989   0.00000  Uiso   1.00
C145   C     0.97756   0.16368   0.64576   0.00000  Uiso   1.00
C146   C     0.95369   0.11599   0.69384   0.00000  Uiso   1.00
C147   C     0.91512   0.03235   0.71146   0.00000  Uiso   1.00
C148   C     0.97603   0.29764   0.80028   0.00000  Uiso   1.00
C149   C     0.95381   0.34070   0.72010   0.00000  Uiso   1.00
C150   C     0.91906   0.37397   0.80219   0.00000  Uiso   1.00
C151   C     0.86046   0.43965   0.88252   0.00000  Uiso   1.00
C152   C     0.99275   0.23878   0.02152   0.00000  Uiso   1.00
C153   C     0.05260   0.24821   0.99360   0.00000  Uiso   1.00
C154   C     0.09242   0.24784   0.10669   0.00000  Uiso   1.00
C155   C     0.14479   0.25733   0.05756   0.00000  Uiso   1.00
C156   C     0.97687   0.19197   0.91649   0.00000  Uiso   1.00
C157   C     0.95301   0.14433   0.96475   0.00000  Uiso   1.00
C158   C     0.94161   0.10647   0.85072   0.00000  Uiso   1.00
C159   C     0.96397   0.28814   0.95689   0.00000  Uiso   1.00
C160   C     0.92925   0.32135   0.03911   0.00000  Uiso   1.00
C161   C     0.90698   0.36445   0.95907   0.00000  Uiso   1.00
H162   H     0.02433   0.26367   0.61127   0.00000  Uiso   1.00
H163   H     0.12629   0.27455   0.66648   0.00000  Uiso   1.00
H164   H     0.98690   0.17105   0.52457   0.00000  Uiso   1.00
H165   H     0.96315   0.34805   0.59892   0.00000  Uiso   1.00
H166   H     0.23403   0.28240   0.79676   0.00000  Uiso   1.00
H167   H     0.94008   0.06417   0.49752   0.00000  Uiso   1.00
H168   H     0.89000   0.43740   0.65428   0.00000  Uiso   1.00
H169   H     0.98336   0.23138   0.14344   0.00000  Uiso   1.00
H170   H     0.08308   0.24049   0.22787   0.00000  Uiso   1.00
H171   H     0.94368   0.13699   0.08595   0.00000  Uiso   1.00
H172   H     0.91993   0.31398   0.16029   0.00000  Uiso   1.00
H173   H     0.19895   0.25475   0.25239   0.00000  Uiso   1.00
H174   H     0.90500   0.03652   0.95315   0.00000  Uiso   1.00
H175   H     0.85492   0.40975   0.10992   0.00000  Uiso   1.00
O176   O     0.28283   0.27513   0.07050   0.00000  Uiso   1.00
O177   O     0.89717   0.98883   0.67791   0.00000  Uiso   1.00
O178   O     0.83147   0.47850   0.88358   0.00000  Uiso   1.00
N179   N     0.21209   0.27465   0.89241   0.00000  Uiso   1.00
N180   N     0.93727   0.07062   0.61264   0.00000  Uiso   1.00
N181   N     0.89044   0.41955   0.75919   0.00000  Uiso   1.00
N182   N     0.19321   0.25978   0.13758   0.00000  Uiso   1.00
N183   N     0.91840   0.05574   0.85782   0.00000  Uiso   1.00
N184   N     0.87156   0.40467   0.00437   0.00000  Uiso   1.00
C185   C     0.25628   0.98506   0.26681   0.00000  Uiso   1.00
C186   C     0.25771   0.93534   0.16301   0.00000  Uiso   1.00
C187   C     0.26720   0.88302   0.21231   0.00000  Uiso   1.00
C188   C     0.26685   0.84313   0.09933   0.00000  Uiso   1.00
C189   C     0.27050   0.76410   0.96199   0.00000  Uiso   1.00
C190   C     0.20147   0.01107   0.24011   0.00000  Uiso   1.00
C191   C     0.16368   0.02244   0.35424   0.00000  Uiso   1.00
C192   C     0.11599   0.04631   0.30616   0.00000  Uiso   1.00
C193   C     0.03235   0.08488   0.28854   0.00000  Uiso   1.00
C194   C     0.29764   0.02397   0.19972   0.00000  Uiso   1.00
C195   C     0.34070   0.04619   0.27990   0.00000  Uiso   1.00
C196   C     0.37397   0.08094   0.19781   0.00000  Uiso   1.00
C197   C     0.43965   0.13954   0.11748   0.00000  Uiso   1.00
C198   C     0.23878   0.00725   0.97848   0.00000  Uiso   1.00
C199   C     0.24821   0.94740   0.00640   0.00000  Uiso   1.00
C200   C     0.24784   0.90758   0.89331   0.00000  Uiso   1.00
C201   C     0.25733   0.85521   0.94244   0.00000  Uiso   1.00
C202   C     0.19197   0.02313   0.08351   0.00000  Uiso   1.00
C203   C     0.14433   0.04699   0.03525   0.00000  Uiso   1.00
C204   C     0.10647   0.05839   0.14928   0.00000  Uiso   1.00
C205   C     0.28814   0.03603   0.04311   0.00000  Uiso   1.00
C206   C     0.32135   0.07075   0.96089   0.00000  Uiso   1.00
C207   C     0.36445   0.09302   0.04093   0.00000  Uiso   1.00
H208   H     0.26367   0.97567   0.38873   0.00000  Uiso   1.00
H209   H     0.27455   0.87371   0.33352   0.00000  Uiso   1.00
H210   H     0.17105   0.01310   0.47543   0.00000  Uiso   1.00
H211   H     0.34805   0.03685   0.40108   0.00000  Uiso   1.00
H212   H     0.28240   0.76597   0.20324   0.00000  Uiso   1.00
H213   H     0.06417   0.05992   0.50248   0.00000  Uiso   1.00
H214   H     0.43740   0.11000   0.34572   0.00000  Uiso   1.00
H215   H     0.23138   0.01664   0.85656   0.00000  Uiso   1.00
H216   H     0.24049   0.91692   0.77213   0.00000  Uiso   1.00
H217   H     0.13699   0.05632   0.91405   0.00000  Uiso   1.00
H218   H     0.31398   0.08007   0.83971   0.00000  Uiso   1.00
H219   H     0.25475   0.80105   0.74761   0.00000  Uiso   1.00
H220   H     0.03652   0.09500   0.04685   0.00000  Uiso   1.00
H221   H     0.40975   0.14508   0.89008   0.00000  Uiso   1.00
O222   O     0.27513   0.71717   0.92950   0.00000  Uiso   1.00
O223   O     0.98883   0.10283   0.32209   0.00000  Uiso   1.00
O224   O     0.47850   0.16853   0.11642   0.00000  Uiso   1.00
N225   N     0.27465   0.78791   0.10759   0.00000  Uiso   1.00
N226   N     0.07062   0.06273   0.38736   0.00000  Uiso   1.00
N227   N     0.41955   0.10956   0.24081   0.00000  Uiso   1.00
N228   N     0.25978   0.80679   0.86242   0.00000  Uiso   1.00
N229   N     0.05574   0.08160   0.14218   0.00000  Uiso   1.00
N230   N     0.40467   0.12844   0.99563   0.00000  Uiso   1.00
C231   C     0.74372   0.01494   0.26681   0.00000  Uiso   1.00
C232   C     0.74229   0.06466   0.16301   0.00000  Uiso   1.00
C233   C     0.73280   0.11698   0.21231   0.00000  Uiso   1.00
C234   C     0.73315   0.15687   0.09933   0.00000  Uiso   1.00
C235   C     0.72950   0.23590   0.96199   0.00000  Uiso   1.00
C236   C     0.79853   0.98893   0.24011   0.00000  Uiso   1.00
C237   C     0.83632   0.97756   0.35424   0.00000  Uiso   1.00
C238   C     0.88401   0.95369   0.30616   0.00000  Uiso   1.00
C239   C     0.96765   0.91512   0.28854   0.00000  Uiso   1.00
C240   C     0.70236   0.97603   0.19972   0.00000  Uiso   1.00
C241   C     0.65930   0.95381   0.27990   0.00000  Uiso   1.00
C242   C     0.62603   0.91906   0.19781   0.00000  Uiso   1.00
C243   C     0.56035   0.86046   0.11748   0.00000  Uiso   1.00
C244   C     0.76122   0.99275   0.97848   0.00000  Uiso   1.00
C245   C     0.75179   0.05260   0.00640   0.00000  Uiso   1.00
C246   C     0.75216   0.09242   0.89331   0.00000  Uiso   1.00
C247   C     0.74267   0.14479   0.94244   0.00000  Uiso   1.00
C248   C     0.80803   0.97687   0.08351   0.00000  Uiso   1.00
C249   C     0.85567   0.95301   0.03525   0.00000  Uiso   1.00
C250   C     0.89353   0.94161   0.14928   0.00000  Uiso   1.00
C251   C     0.71186   0.96397   0.04311   0.00000  Uiso   1.00
C252   C     0.67865   0.92925   0.96089   0.00000  Uiso   1.00
C253   C     0.63555   0.90698   0.04093   0.00000  Uiso   1.00
H254   H     0.73633   0.02433   0.38873   0.00000  Uiso   1.00
H255   H     0.72545   0.12629   0.33352   0.00000  Uiso   1.00
H256   H     0.82895   0.98690   0.47543   0.00000  Uiso   1.00
H257   H     0.65195   0.96315   0.40108   0.00000  Uiso   1.00
H258   H     0.71760   0.23403   0.20324   0.00000  Uiso   1.00
H259   H     0.93583   0.94008   0.50248   0.00000  Uiso   1.00
H260   H     0.56260   0.89000   0.34572   0.00000  Uiso   1.00
H261   H     0.76862   0.98336   0.85656   0.00000  Uiso   1.00
H262   H     0.75951   0.08308   0.77213   0.00000  Uiso   1.00
H263   H     0.86301   0.94368   0.91405   0.00000  Uiso   1.00
H264   H     0.68602   0.91993   0.83971   0.00000  Uiso   1.00
H265   H     0.74525   0.19895   0.74761   0.00000  Uiso   1.00
H266   H     0.96348   0.90500   0.04685   0.00000  Uiso   1.00
H267   H     0.59025   0.85492   0.89008   0.00000  Uiso   1.00
O268   O     0.72487   0.28283   0.92950   0.00000  Uiso   1.00
O269   O     0.01117   0.89717   0.32209   0.00000  Uiso   1.00
O270   O     0.52150   0.83147   0.11642   0.00000  Uiso   1.00
N271   N     0.72535   0.21209   0.10759   0.00000  Uiso   1.00
N272   N     0.92938   0.93727   0.38736   0.00000  Uiso   1.00
N273   N     0.58045   0.89044   0.24081   0.00000  Uiso   1.00
N274   N     0.74022   0.19321   0.86242   0.00000  Uiso   1.00
N275   N     0.94426   0.91840   0.14218   0.00000  Uiso   1.00
N276   N     0.59533   0.87156   0.99563   0.00000  Uiso   1.00
C277   C     0.51494   0.75628   0.76681   0.00000  Uiso   1.00
C278   C     0.56466   0.75771   0.66301   0.00000  Uiso   1.00
C279   C     0.61698   0.76720   0.71231   0.00000  Uiso   1.00
C280   C     0.65687   0.76685   0.59933   0.00000  Uiso   1.00
C281   C     0.73590   0.77050   0.46199   0.00000  Uiso   1.00
C282   C     0.48893   0.70147   0.74011   0.00000  Uiso   1.00
C283   C     0.47756   0.66368   0.85424   0.00000  Uiso   1.00
C284   C     0.45369   0.61599   0.80616   0.00000  Uiso   1.00
C285   C     0.41512   0.53235   0.78854   0.00000  Uiso   1.00
C286   C     0.47603   0.79764   0.69972   0.00000  Uiso   1.00
C287   C     0.45381   0.84070   0.77990   0.00000  Uiso   1.00
C288   C     0.41906   0.87397   0.69781   0.00000  Uiso   1.00
C289   C     0.36046   0.93965   0.61748   0.00000  Uiso   1.00
C290   C     0.49275   0.73878   0.47848   0.00000  Uiso   1.00
C291   C     0.55260   0.74821   0.50640   0.00000  Uiso   1.00
C292   C     0.59242   0.74784   0.39331   0.00000  Uiso   1.00
C293   C     0.64479   0.75733   0.44244   0.00000  Uiso   1.00
C294   C     0.47687   0.69197   0.58351   0.00000  Uiso   1.00
C295   C     0.45301   0.64433   0.53525   0.00000  Uiso   1.00
C296   C     0.44161   0.60647   0.64928   0.00000  Uiso   1.00
C297   C     0.46397   0.78814   0.54311   0.00000  Uiso   1.00
C298   C     0.42925   0.82135   0.46089   0.00000  Uiso   1.00
C299   C     0.40698   0.86445   0.54093   0.00000  Uiso   1.00
H300   H     0.52433   0.76367   0.88873   0.00000  Uiso   1.00
H301   H     0.62629   0.77455   0.83352   0.00000  Uiso   1.00
H302   H     0.48690   0.67105   0.97543   0.00000  Uiso   1.00
H303   H     0.46315   0.84805   0.90108   0.00000  Uiso   1.00
H304   H     0.73403   0.78240   0.70324   0.00000  Uiso   1.00
H305   H     0.44008   0.56417   0.00248   0.00000  Uiso   1.00
H306   H     0.39000   0.93740   0.84572   0.00000  Uiso   1.00
H307   H     0.48336   0.73138   0.35656   0.00000  Uiso   1.00
H308   H     0.58308   0.74049   0.27213   0.00000  Uiso   1.00
H309   H     0.44368   0.63699   0.41405   0.00000  Uiso   1.00
H310   H     0.41993   0.81398   0.33971   0.00000  Uiso   1.00
H311   H     0.69895   0.75475   0.24761   0.00000  Uiso   1.00
H312   H     0.40500   0.53652   0.54685   0.00000  Uiso   1.00
H313   H     0.35492   0.90975   0.39008   0.00000  Uiso   1.00
O314   O     0.78283   0.77513   0.42950   0.00000  Uiso   1.00
O315   O     0.39717   0.48883   0.82209   0.00000  Uiso   1.00
O316   O     0.33147   0.97850   0.61642   0.00000  Uiso   1.00
N317   N     0.71209   0.77465   0.60759   0.00000  Uiso   1.00
N318   N     0.43727   0.57062   0.88736   0.00000  Uiso   1.00
N319   N     0.39044   0.91955   0.74081   0.00000  Uiso   1.00
N320   N     0.69321   0.75978   0.36242   0.00000  Uiso   1.00
N321   N     0.41840   0.55574   0.64218   0.00000  Uiso   1.00
N322   N     0.37156   0.90467   0.49563   0.00000  Uiso   1.00
C323   C     0.48506   0.24372   0.76681   0.00000  Uiso   1.00
C324   C     0.43534   0.24229   0.66301   0.00000  Uiso   1.00
C325   C     0.38302   0.23280   0.71231   0.00000  Uiso   1.00
C326   C     0.34313   0.23315   0.59933   0.00000  Uiso   1.00
C327   C     0.26410   0.22950   0.46199   0.00000  Uiso   1.00
C328   C     0.51107   0.29853   0.74011   0.00000  Uiso   1.00
C329   C     0.52244   0.33632   0.85424   0.00000  Uiso   1.00
C330   C     0.54631   0.38401   0.80616   0.00000  Uiso   1.00
C331   C     0.58488   0.46765   0.78854   0.00000  Uiso   1.00
C332   C     0.52397   0.20236   0.69972   0.00000  Uiso   1.00
C333   C     0.54619   0.15930   0.77990   0.00000  Uiso   1.00
C334   C     0.58094   0.12603   0.69781   0.00000  Uiso   1.00
C335   C     0.63954   0.06035   0.61748   0.00000  Uiso   1.00
C336   C     0.50725   0.26122   0.47848   0.00000  Uiso   1.00
C337   C     0.44740   0.25179   0.50640   0.00000  Uiso   1.00
C338   C     0.40758   0.25216   0.39331   0.00000  Uiso   1.00
C339   C     0.35521   0.24267   0.44244   0.00000  Uiso   1.00
C340   C     0.52313   0.30803   0.58351   0.00000  Uiso   1.00
C341   C     0.54699   0.35567   0.53525   0.00000  Uiso   1.00
C342   C     0.55839   0.39353   0.64928   0.00000  Uiso   1.00
C343   C     0.53603   0.21186   0.54311   0.00000  Uiso   1.00
C344   C     0.57075   0.17865   0.46089   0.00000  Uiso   1.00
C345   C     0.59302   0.13555   0.54093   0.00000  Uiso   1.00
H346   H     0.47567   0.23633   0.88873   0.00000  Uiso   1.00
H347   H     0.37371   0.22545   0.83352   0.00000  Uiso   1.00
H348   H     0.51310   0.32895   0.97543   0.00000  Uiso   1.00
H349   H     0.53685   0.15195   0.90108   0.00000  Uiso   1.00
H350   H     0.26597   0.21760   0.70324   0.00000  Uiso   1.00
H351   H     0.55992   0.43583   0.00248   0.00000  Uiso   1.00
H352   H     0.61000   0.06260   0.84572   0.00000  Uiso   1.00
H353   H     0.51664   0.26862   0.35656   0.00000  Uiso   1.00
H354   H     0.41692   0.25951   0.27213   0.00000  Uiso   1.00
H355   H     0.55632   0.36301   0.41405   0.00000  Uiso   1.00
H356   H     0.58007   0.18602   0.33971   0.00000  Uiso   1.00
H357   H     0.30105   0.24525   0.24761   0.00000  Uiso   1.00
H358   H     0.59500   0.46348   0.54685   0.00000  Uiso   1.00
H359   H     0.64508   0.09025   0.39008   0.00000  Uiso   1.00
O360   O     0.21717   0.22487   0.42950   0.00000  Uiso   1.00
O361   O     0.60283   0.51117   0.82209   0.00000  Uiso   1.00
O362   O     0.66853   0.02150   0.61642   0.00000  Uiso   1.00
N363   N     0.28791   0.22535   0.60759   0.00000  Uiso   1.00
N364   N     0.56273   0.42938   0.88736   0.00000  Uiso   1.00
N365   N     0.60956   0.08045   0.74081   0.00000  Uiso   1.00
N366   N     0.30679   0.24022   0.36242   0.00000  Uiso   1.00
N367   N     0.58160   0.44426   0.64218   0.00000  Uiso   1.00
N368   N     0.62844   0.09533   0.49563   0.00000  Uiso   1.00
