data_job_06767
_audit_creation_date              2018-12-19
_audit_creation_method            'Materials Studio'
_symmetry_space_group_name_H-M    'P1'
_symmetry_Int_Tables_number       1
_symmetry_cell_setting            triclinic
loop_
_symmetry_equiv_pos_as_xyz
  x,y,z
_cell_length_a                    19.6529
_cell_length_b                    19.3171
_cell_length_c                    19.8763
_cell_angle_alpha                 93.6767
_cell_angle_beta                  89.5416
_cell_angle_gamma                 100.1520
loop_
_atom_site_label
_atom_site_type_symbol
_atom_site_fract_x
_atom_site_fract_y
_atom_site_fract_z
_atom_site_U_iso_or_equiv
_atom_site_adp_type
_atom_site_occupancy
C1     C     0.83446   0.25081   0.48559   0.00000  Uiso   1.00
C2     C     0.80878   0.30589   0.53293   0.00000  Uiso   1.00
C3     C     0.84241   0.37474   0.54655   0.00000  Uiso   1.00
C4     C     0.81045   0.41689   0.59132   0.00000  Uiso   1.00
C5     C     0.78022   0.50634   0.66027   0.00000  Uiso   1.00
C6     C     0.83788   0.18817   0.52763   0.00000  Uiso   1.00
C7     C     0.89597   0.15805   0.53678   0.00000  Uiso   1.00
C8     C     0.88849   0.10109   0.57708   0.00000  Uiso   1.00
C9     C     0.90342   0.00776   0.63777   0.00000  Uiso   1.00
C10    C     0.77684   0.22574   0.43412   0.00000  Uiso   1.00
C11    C     0.78362   0.22717   0.36464   0.00000  Uiso   1.00
C12    C     0.72476   0.20183   0.32621   0.00000  Uiso   1.00
C13    C     0.64493   0.16681   0.24171   0.00000  Uiso   1.00
C14    C     0.71789   0.20322   0.54088   0.00000  Uiso   1.00
C15    C     0.74547   0.28004   0.56296   0.00000  Uiso   1.00
C16    C     0.71344   0.32209   0.60772   0.00000  Uiso   1.00
C17    C     0.74702   0.39100   0.62140   0.00000  Uiso   1.00
C18    C     0.77456   0.16233   0.55766   0.00000  Uiso   1.00
C19    C     0.76700   0.10540   0.59795   0.00000  Uiso   1.00
C20    C     0.82506   0.07520   0.60716   0.00000  Uiso   1.00
C21    C     0.71353   0.19989   0.46415   0.00000  Uiso   1.00
C22    C     0.65465   0.17453   0.42581   0.00000  Uiso   1.00
C23    C     0.66133   0.17593   0.35629   0.00000  Uiso   1.00
H24    H     0.88375   0.27093   0.46222   0.00000  Uiso   1.00
H25    H     0.89141   0.39473   0.52330   0.00000  Uiso   1.00
H26    H     0.94495   0.17806   0.51353   0.00000  Uiso   1.00
H27    H     0.83262   0.24718   0.34142   0.00000  Uiso   1.00
H28    H     0.87199   0.52057   0.60429   0.00000  Uiso   1.00
H29    H     0.98488   0.06371   0.58367   0.00000  Uiso   1.00
H30    H     0.74801   0.20946   0.22074   0.00000  Uiso   1.00
H31    H     0.66860   0.18309   0.56426   0.00000  Uiso   1.00
H32    H     0.66445   0.30207   0.63095   0.00000  Uiso   1.00
H33    H     0.71799   0.08541   0.62117   0.00000  Uiso   1.00
H34    H     0.60566   0.15453   0.44907   0.00000  Uiso   1.00
H35    H     0.68778   0.44537   0.69166   0.00000  Uiso   1.00
H36    H     0.80067   0.98850   0.67103   0.00000  Uiso   1.00
H37    H     0.56380   0.13426   0.30811   0.00000  Uiso   1.00
O38    O     0.78105   0.56282   0.69002   0.00000  Uiso   1.00
O39    O     0.92915   0.96343   0.66295   0.00000  Uiso   1.00
O40    O     0.61839   0.15465   0.18680   0.00000  Uiso   1.00
N41    N     0.82920   0.48655   0.61569   0.00000  Uiso   1.00
N42    N     0.93475   0.05942   0.59642   0.00000  Uiso   1.00
N43    N     0.71330   0.19566   0.25711   0.00000  Uiso   1.00
N44    N     0.73008   0.44609   0.66270   0.00000  Uiso   1.00
N45    N     0.83563   0.01895   0.64343   0.00000  Uiso   1.00
N46    N     0.61418   0.15520   0.30412   0.00000  Uiso   1.00
C47    C     0.48836   0.71083   0.35005   0.00000  Uiso   1.00
C48    C     0.52162   0.66627   0.39636   0.00000  Uiso   1.00
C49    C     0.52863   0.67776   0.46579   0.00000  Uiso   1.00
C50    C     0.56058   0.63107   0.49906   0.00000  Uiso   1.00
C51    C     0.60861   0.57044   0.57629   0.00000  Uiso   1.00
C52    C     0.54280   0.73520   0.29749   0.00000  Uiso   1.00
C53    C     0.56761   0.80466   0.28380   0.00000  Uiso   1.00
C54    C     0.61738   0.81600   0.23383   0.00000  Uiso   1.00
C55    C     0.69825   0.86240   0.15753   0.00000  Uiso   1.00
C56    C     0.43099   0.66019   0.31217   0.00000  Uiso   1.00
C57    C     0.36178   0.66658   0.31079   0.00000  Uiso   1.00
C58    C     0.31742   0.61477   0.27317   0.00000  Uiso   1.00
C59    C     0.22468   0.54469   0.21965   0.00000  Uiso   1.00
C60    C     0.53263   0.60747   0.28566   0.00000  Uiso   1.00
C61    C     0.54567   0.61013   0.36139   0.00000  Uiso   1.00
C62    C     0.57761   0.56341   0.39456   0.00000  Uiso   1.00
C63    C     0.58467   0.57483   0.46403   0.00000  Uiso   1.00
C64    C     0.56685   0.67907   0.26252   0.00000  Uiso   1.00
C65    C     0.61659   0.69031   0.21256   0.00000  Uiso   1.00
C66    C     0.64147   0.75976   0.19880   0.00000  Uiso   1.00
C67    C     0.45503   0.60405   0.27719   0.00000  Uiso   1.00
C68    C     0.41077   0.55223   0.23956   0.00000  Uiso   1.00
C69    C     0.34151   0.55853   0.23813   0.00000  Uiso   1.00
H70    H     0.46964   0.75454   0.37727   0.00000  Uiso   1.00
H71    H     0.51002   0.72122   0.49284   0.00000  Uiso   1.00
H72    H     0.54899   0.84809   0.31086   0.00000  Uiso   1.00
H73    H     0.34319   0.71003   0.33786   0.00000  Uiso   1.00
H74    H     0.56542   0.65953   0.60554   0.00000  Uiso   1.00
H75    H     0.64756   0.92706   0.22182   0.00000  Uiso   1.00
H76    H     0.21361   0.63593   0.27874   0.00000  Uiso   1.00
H77    H     0.55135   0.56376   0.25843   0.00000  Uiso   1.00
H78    H     0.59622   0.51997   0.36748   0.00000  Uiso   1.00
H79    H     0.63518   0.64685   0.18551   0.00000  Uiso   1.00
H80    H     0.42939   0.50879   0.21250   0.00000  Uiso   1.00
H81    H     0.63539   0.49620   0.50380   0.00000  Uiso   1.00
H82    H     0.71752   0.76373   0.12008   0.00000  Uiso   1.00
H83    H     0.28357   0.47259   0.17700   0.00000  Uiso   1.00
O84    O     0.62847   0.55251   0.62855   0.00000  Uiso   1.00
O85    O     0.73622   0.90350   0.12512   0.00000  Uiso   1.00
O86    O     0.16689   0.52154   0.19980   0.00000  Uiso   1.00
N87    N     0.57572   0.62709   0.56663   0.00000  Uiso   1.00
N88    N     0.65252   0.87722   0.20788   0.00000  Uiso   1.00
N89    N     0.24682   0.60504   0.26109   0.00000  Uiso   1.00
N90    N     0.61336   0.53920   0.51189   0.00000  Uiso   1.00
N91    N     0.69017   0.78933   0.15314   0.00000  Uiso   1.00
N92    N     0.28446   0.51715   0.20634   0.00000  Uiso   1.00
C93    C     0.26948   0.44259   0.83589   0.00000  Uiso   1.00
C94    C     0.31904   0.50879   0.81794   0.00000  Uiso   1.00
C95    C     0.38433   0.53237   0.84544   0.00000  Uiso   1.00
C96    C     0.42162   0.59413   0.82236   0.00000  Uiso   1.00
C97    C     0.50268   0.69135   0.80194   0.00000  Uiso   1.00
C98    C     0.20264   0.46685   0.85835   0.00000  Uiso   1.00
C99    C     0.17006   0.45515   0.91983   0.00000  Uiso   1.00
C100   C     0.10936   0.48160   0.93075   0.00000  Uiso   1.00
C101   C     0.00968   0.51367   0.97306   0.00000  Uiso   1.00
C102   C     0.25258   0.39855   0.76977   0.00000  Uiso   1.00
C103   C     0.26197   0.32942   0.75676   0.00000  Uiso   1.00
C104   C     0.24330   0.29836   0.69311   0.00000  Uiso   1.00
C105   C     0.22116   0.22437   0.59787   0.00000  Uiso   1.00
C106   C     0.21961   0.51034   0.74598   0.00000  Uiso   1.00
C107   C     0.29195   0.54560   0.76910   0.00000  Uiso   1.00
C108   C     0.32915   0.60733   0.74597   0.00000  Uiso   1.00
C109   C     0.39448   0.63100   0.77343   0.00000  Uiso   1.00
C110   C     0.17555   0.50365   0.80952   0.00000  Uiso   1.00
C111   C     0.11488   0.53012   0.82035   0.00000  Uiso   1.00
C112   C     0.08222   0.51847   0.88183   0.00000  Uiso   1.00
C113   C     0.22549   0.43535   0.72093   0.00000  Uiso   1.00
C114   C     0.20679   0.40439   0.65729   0.00000  Uiso   1.00
C115   C     0.21616   0.33522   0.64419   0.00000  Uiso   1.00
H116   H     0.29056   0.41393   0.87391   0.00000  Uiso   1.00
H117   H     0.40527   0.50388   0.88324   0.00000  Uiso   1.00
H118   H     0.19103   0.42667   0.95761   0.00000  Uiso   1.00
H119   H     0.28293   0.30096   0.79457   0.00000  Uiso   1.00
H120   H     0.52048   0.61984   0.87206   0.00000  Uiso   1.00
H121   H     0.06873   0.45702   0.02887   0.00000  Uiso   1.00
H122   H     0.26252   0.19193   0.68506   0.00000  Uiso   1.00
H123   H     0.19852   0.53900   0.70796   0.00000  Uiso   1.00
H124   H     0.30817   0.63580   0.70817   0.00000  Uiso   1.00
H125   H     0.09393   0.55859   0.78255   0.00000  Uiso   1.00
H126   H     0.18583   0.43288   0.61951   0.00000  Uiso   1.00
H127   H     0.44168   0.72692   0.72998   0.00000  Uiso   1.00
H128   H     0.98992   0.56409   0.88678   0.00000  Uiso   1.00
H129   H     0.18372   0.29901   0.54297   0.00000  Uiso   1.00
O130   O     0.55487   0.73482   0.80418   0.00000  Uiso   1.00
O131   O     0.96218   0.52119   0.00989   0.00000  Uiso   1.00
O132   O     0.21644   0.17340   0.55883   0.00000  Uiso   1.00
N133   N     0.48689   0.63175   0.83858   0.00000  Uiso   1.00
N134   N     0.06454   0.47953   0.98519   0.00000  Uiso   1.00
N135   N     0.24570   0.23168   0.66377   0.00000  Uiso   1.00
N136   N     0.44449   0.68936   0.76213   0.00000  Uiso   1.00
N137   N     0.02214   0.53715   0.90873   0.00000  Uiso   1.00
N138   N     0.20330   0.28930   0.58731   0.00000  Uiso   1.00
C139   C     0.25971   0.94415   0.85562   0.00000  Uiso   1.00
C140   C     0.23837   0.99565   0.90974   0.00000  Uiso   1.00
C141   C     0.26914   0.01272   0.97263   0.00000  Uiso   1.00
C142   C     0.24205   0.06100   0.01494   0.00000  Uiso   1.00
C143   C     0.21743   0.13640   0.10200   0.00000  Uiso   1.00
C144   C     0.27516   0.98540   0.79273   0.00000  Uiso   1.00
C145   C     0.33686   0.99383   0.75724   0.00000  Uiso   1.00
C146   C     0.34073   0.03347   0.70104   0.00000  Uiso   1.00
C147   C     0.37322   0.09292   0.60642   0.00000  Uiso   1.00
C148   C     0.19513   0.88939   0.83922   0.00000  Uiso   1.00
C149   C     0.18955   0.81709   0.84279   0.00000  Uiso   1.00
C150   C     0.12606   0.77589   0.82571   0.00000  Uiso   1.00
C151   C     0.03429   0.68627   0.80326   0.00000  Uiso   1.00
C152   C     0.15687   0.99955   0.81891   0.00000  Uiso   1.00
C153   C     0.18251   0.02574   0.88981   0.00000  Uiso   1.00
C154   C     0.15537   0.07400   0.93203   0.00000  Uiso   1.00
C155   C     0.18609   0.09114   0.99497   0.00000  Uiso   1.00
C156   C     0.21931   0.01549   0.77280   0.00000  Uiso   1.00
C157   C     0.22309   0.05512   0.71664   0.00000  Uiso   1.00
C158   C     0.28478   0.06362   0.68107   0.00000  Uiso   1.00
C159   C     0.13928   0.91947   0.81928   0.00000  Uiso   1.00
C160   C     0.07578   0.87838   0.80219   0.00000  Uiso   1.00
C161   C     0.07010   0.80604   0.80574   0.00000  Uiso   1.00
H162   H     0.30320   0.92073   0.87113   0.00000  Uiso   1.00
H163   H     0.31237   0.98942   0.98804   0.00000  Uiso   1.00
H164   H     0.38007   0.97054   0.77268   0.00000  Uiso   1.00
H165   H     0.23279   0.79382   0.85822   0.00000  Uiso   1.00
H166   H     0.29792   0.07887   0.10885   0.00000  Uiso   1.00
H167   H     0.44067   0.03902   0.65473   0.00000  Uiso   1.00
H168   H     0.13010   0.66639   0.83511   0.00000  Uiso   1.00
H169   H     0.11339   0.02298   0.80339   0.00000  Uiso   1.00
H170   H     0.11214   0.09728   0.91659   0.00000  Uiso   1.00
H171   H     0.17985   0.07839   0.70122   0.00000  Uiso   1.00
H172   H     0.03257   0.90168   0.78676   0.00000  Uiso   1.00
H173   H     0.13541   0.16641   0.05086   0.00000  Uiso   1.00
H174   H     0.27817   0.12656   0.59674   0.00000  Uiso   1.00
H175   H     0.96759   0.75393   0.77712   0.00000  Uiso   1.00
O176   O     0.21929   0.16969   0.15553   0.00000  Uiso   1.00
O177   O     0.40657   0.11740   0.55974   0.00000  Uiso   1.00
O178   O     0.99910   0.62852   0.79639   0.00000  Uiso   1.00
N179   N     0.25984   0.08927   0.07967   0.00000  Uiso   1.00
N180   N     0.39331   0.05202   0.65511   0.00000  Uiso   1.00
N181   N     0.10295   0.70364   0.82373   0.00000  Uiso   1.00
N182   N     0.17239   0.13637   0.04847   0.00000  Uiso   1.00
N183   N     0.30586   0.09913   0.62390   0.00000  Uiso   1.00
N184   N     0.01550   0.75074   0.79252   0.00000  Uiso   1.00
C185   C     0.01087   0.72271   0.36949   0.00000  Uiso   1.00
C186   C     0.07910   0.76854   0.35144   0.00000  Uiso   1.00
C187   C     0.10570   0.83462   0.38122   0.00000  Uiso   1.00
C188   C     0.16892   0.86804   0.35761   0.00000  Uiso   1.00
C189   C     0.26951   0.94400   0.33744   0.00000  Uiso   1.00
C190   C     0.02877   0.65258   0.38785   0.00000  Uiso   1.00
C191   C     0.01303   0.62116   0.44824   0.00000  Uiso   1.00
C192   C     0.03387   0.55695   0.45526   0.00000  Uiso   1.00
C193   C     0.05627   0.45285   0.49160   0.00000  Uiso   1.00
C194   C     0.96928   0.70714   0.30416   0.00000  Uiso   1.00
C195   C     0.90351   0.72157   0.29418   0.00000  Uiso   1.00
C196   C     0.87426   0.70329   0.23075   0.00000  Uiso   1.00
C197   C     0.80429   0.68390   0.13715   0.00000  Uiso   1.00
C198   C     0.07586   0.66454   0.27459   0.00000  Uiso   1.00
C199   C     0.11440   0.73694   0.29989   0.00000  Uiso   1.00
C200   C     0.17760   0.77027   0.27622   0.00000  Uiso   1.00
C201   C     0.20428   0.83639   0.30596   0.00000  Uiso   1.00
C202   C     0.06407   0.62098   0.33630   0.00000  Uiso   1.00
C203   C     0.08493   0.55681   0.34324   0.00000  Uiso   1.00
C204   C     0.06923   0.52530   0.40362   0.00000  Uiso   1.00
C205   C     0.00458   0.67555   0.25261   0.00000  Uiso   1.00
C206   C     0.97542   0.65723   0.18918   0.00000  Uiso   1.00
C207   C     0.90962   0.67164   0.17911   0.00000  Uiso   1.00
H208   H     0.98339   0.74730   0.40963   0.00000  Uiso   1.00
H209   H     0.07836   0.85905   0.42112   0.00000  Uiso   1.00
H210   H     0.98570   0.64561   0.48812   0.00000  Uiso   1.00
H211   H     0.87621   0.74602   0.33409   0.00000  Uiso   1.00
H212   H     0.19924   0.96901   0.41114   0.00000  Uiso   1.00
H213   H     0.00384   0.51895   0.55241   0.00000  Uiso   1.00
H214   H     0.77295   0.73068   0.22760   0.00000  Uiso   1.00
H215   H     0.10334   0.63994   0.23446   0.00000  Uiso   1.00
H216   H     0.20491   0.74581   0.23633   0.00000  Uiso   1.00
H217   H     0.11224   0.53237   0.30333   0.00000  Uiso   1.00
H218   H     0.00275   0.63278   0.14930   0.00000  Uiso   1.00
H219   H     0.30195   0.87709   0.26117   0.00000  Uiso   1.00
H220   H     0.10655   0.42704   0.40243   0.00000  Uiso   1.00
H221   H     0.87565   0.63877   0.07762   0.00000  Uiso   1.00
O222   O     0.31525   0.99462   0.34057   0.00000  Uiso   1.00
O223   O     0.05888   0.40416   0.52589   0.00000  Uiso   1.00
O224   O     0.75596   0.68195   0.09975   0.00000  Uiso   1.00
N225   N     0.20947   0.93285   0.37558   0.00000  Uiso   1.00
N226   N     0.02679   0.51209   0.50766   0.00000  Uiso   1.00
N227   N     0.81092   0.71002   0.20400   0.00000  Uiso   1.00
N228   N     0.26474   0.88339   0.29488   0.00000  Uiso   1.00
N229   N     0.08206   0.46263   0.42695   0.00000  Uiso   1.00
N230   N     0.86618   0.66056   0.12329   0.00000  Uiso   1.00
C231   C     0.79036   0.27827   0.97041   0.00000  Uiso   1.00
C232   C     0.82854   0.25468   0.02891   0.00000  Uiso   1.00
C233   C     0.89761   0.27795   0.04543   0.00000  Uiso   1.00
C234   C     0.92283   0.25003   0.10082   0.00000  Uiso   1.00
C235   C     0.98856   0.22095   0.18598   0.00000  Uiso   1.00
C236   C     0.72865   0.30650   0.00139   0.00000  Uiso   1.00
C237   C     0.71373   0.37333   0.99475   0.00000  Uiso   1.00
C238   C     0.65485   0.38902   0.02696   0.00000  Uiso   1.00
C239   C     0.56546   0.44037   0.06935   0.00000  Uiso   1.00
C240   C     0.76038   0.21128   0.92820   0.00000  Uiso   1.00
C241   C     0.77214   0.19806   0.86003   0.00000  Uiso   1.00
C242   C     0.73996   0.13358   0.83062   0.00000  Uiso   1.00
C243   C     0.69986   0.03708   0.75937   0.00000  Uiso   1.00
C244   C     0.71230   0.18728   0.03939   0.00000  Uiso   1.00
C245   C     0.78614   0.20526   0.06638   0.00000  Uiso   1.00
C246   C     0.81125   0.17729   0.12175   0.00000  Uiso   1.00
C247   C     0.88036   0.20051   0.13835   0.00000  Uiso   1.00
C248   C     0.68625   0.25708   0.03886   0.00000  Uiso   1.00
C249   C     0.62737   0.27267   0.07108   0.00000  Uiso   1.00
C250   C     0.61237   0.33951   0.06450   0.00000  Uiso   1.00
C251   C     0.71799   0.16185   0.96567   0.00000  Uiso   1.00
C252   C     0.68578   0.09739   0.93636   0.00000  Uiso   1.00
C253   C     0.69749   0.08407   0.86815   0.00000  Uiso   1.00
H254   H     0.82336   0.31675   0.94124   0.00000  Uiso   1.00
H255   H     0.93041   0.31621   0.01642   0.00000  Uiso   1.00
H256   H     0.74655   0.41157   0.96575   0.00000  Uiso   1.00
H257   H     0.80495   0.23631   0.83105   0.00000  Uiso   1.00
H258   H     0.03039   0.29383   0.11632   0.00000  Uiso   1.00
H259   H     0.64269   0.49490   0.00945   0.00000  Uiso   1.00
H260   H     0.76584   0.12534   0.72541   0.00000  Uiso   1.00
H261   H     0.67929   0.14880   0.06856   0.00000  Uiso   1.00
H262   H     0.77843   0.13904   0.15074   0.00000  Uiso   1.00
H263   H     0.59457   0.23441   0.10007   0.00000  Uiso   1.00
H264   H     0.65297   0.05915   0.96537   0.00000  Uiso   1.00
H265   H     0.90704   0.15004   0.22534   0.00000  Uiso   1.00
H266   H     0.51934   0.35111   0.11847   0.00000  Uiso   1.00
H267   H     0.64250   0.98155   0.83443   0.00000  Uiso   1.00
O268   O     0.03653   0.21857   0.22261   0.00000  Uiso   1.00
O269   O     0.52788   0.48235   0.08239   0.00000  Uiso   1.00
O270   O     0.68946   0.99751   0.70973   0.00000  Uiso   1.00
N271   N     0.98775   0.26132   0.13070   0.00000  Uiso   1.00
N272   N     0.62529   0.44931   0.03079   0.00000  Uiso   1.00
N273   N     0.74041   0.10381   0.76523   0.00000  Uiso   1.00
N274   N     0.92138   0.18395   0.18936   0.00000  Uiso   1.00
N275   N     0.55892   0.37193   0.08945   0.00000  Uiso   1.00
N276   N     0.67404   0.02644   0.82389   0.00000  Uiso   1.00
C277   C     0.25897   0.78809   0.66042   0.00000  Uiso   1.00
C278   C     0.26686   0.73467   0.60227   0.00000  Uiso   1.00
C279   C     0.23650   0.66400   0.59827   0.00000  Uiso   1.00
C280   C     0.25006   0.62386   0.54088   0.00000  Uiso   1.00
C281   C     0.25582   0.53643   0.45840   0.00000  Uiso   1.00
C282   C     0.23148   0.84789   0.62933   0.00000  Uiso   1.00
C283   C     0.17138   0.87242   0.64810   0.00000  Uiso   1.00
C284   C     0.15516   0.92760   0.61350   0.00000  Uiso   1.00
C285   C     0.10602   0.01598   0.57307   0.00000  Uiso   1.00
C286   C     0.33208   0.81898   0.68470   0.00000  Uiso   1.00
C287   C     0.35657   0.81922   0.75003   0.00000  Uiso   1.00
C288   C     0.42505   0.85007   0.76206   0.00000  Uiso   1.00
C289   C     0.53211   0.89357   0.80760   0.00000  Uiso   1.00
C290   C     0.33704   0.84249   0.56563   0.00000  Uiso   1.00
C291   C     0.30926   0.76422   0.55078   0.00000  Uiso   1.00
C292   C     0.32287   0.72418   0.49339   0.00000  Uiso   1.00
C293   C     0.29254   0.65346   0.48930   0.00000  Uiso   1.00
C294   C     0.27388   0.87744   0.57784   0.00000  Uiso   1.00
C295   C     0.25775   0.93260   0.54322   0.00000  Uiso   1.00
C296   C     0.19764   0.95720   0.56192   0.00000  Uiso   1.00
C297   C     0.37449   0.84853   0.63322   0.00000  Uiso   1.00
C298   C     0.44294   0.87940   0.64515   0.00000  Uiso   1.00
C299   C     0.46753   0.87968   0.71048   0.00000  Uiso   1.00
H300   H     0.22596   0.76509   0.70051   0.00000  Uiso   1.00
H301   H     0.20368   0.64115   0.63812   0.00000  Uiso   1.00
H302   H     0.13858   0.84954   0.68795   0.00000  Uiso   1.00
H303   H     0.32374   0.79635   0.78986   0.00000  Uiso   1.00
H304   H     0.19767   0.51678   0.54623   0.00000  Uiso   1.00
H305   H     0.06039   0.95620   0.65131   0.00000  Uiso   1.00
H306   H     0.45084   0.84403   0.86622   0.00000  Uiso   1.00
H307   H     0.37006   0.86550   0.52554   0.00000  Uiso   1.00
H308   H     0.35569   0.74706   0.45355   0.00000  Uiso   1.00
H309   H     0.29058   0.95545   0.50338   0.00000  Uiso   1.00
H310   H     0.47574   0.90226   0.60529   0.00000  Uiso   1.00
H311   H     0.32104   0.60274   0.39643   0.00000  Uiso   1.00
H312   H     0.18377   0.04216   0.50151   0.00000  Uiso   1.00
H313   H     0.57421   0.92999   0.71642   0.00000  Uiso   1.00
O314   O     0.24728   0.48005   0.42712   0.00000  Uiso   1.00
O315   O     0.06719   0.05656   0.56499   0.00000  Uiso   1.00
O316   O     0.57945   0.90939   0.84694   0.00000  Uiso   1.00
N317   N     0.22868   0.55326   0.52086   0.00000  Uiso   1.00
N318   N     0.10034   0.96409   0.61910   0.00000  Uiso   1.00
N319   N     0.46537   0.85923   0.82002   0.00000  Uiso   1.00
N320   N     0.29507   0.59952   0.44025   0.00000  Uiso   1.00
N321   N     0.16672   0.01034   0.53849   0.00000  Uiso   1.00
N322   N     0.53175   0.90549   0.73942   0.00000  Uiso   1.00
C323   C     0.57553   0.25179   0.77424   0.00000  Uiso   1.00
C324   C     0.52418   0.27794   0.72925   0.00000  Uiso   1.00
C325   C     0.50490   0.25092   0.66447   0.00000  Uiso   1.00
C326   C     0.45718   0.28211   0.63165   0.00000  Uiso   1.00
C327   C     0.38158   0.31413   0.55710   0.00000  Uiso   1.00
C328   C     0.53693   0.23259   0.83917   0.00000  Uiso   1.00
C329   C     0.52839   0.16745   0.86682   0.00000  Uiso   1.00
C330   C     0.49141   0.16048   0.92654   0.00000  Uiso   1.00
C331   C     0.43566   0.12212   0.02268   0.00000  Uiso   1.00
C332   C     0.63089   0.31572   0.79330   0.00000  Uiso   1.00
C333   C     0.70135   0.32048   0.78240   0.00000  Uiso   1.00
C334   C     0.74347   0.38349   0.80351   0.00000  Uiso   1.00
C335   C     0.83360   0.47420   0.82843   0.00000  Uiso   1.00
C336   C     0.52505   0.35523   0.83116   0.00000  Uiso   1.00
C337   C     0.49675   0.33412   0.76017   0.00000  Uiso   1.00
C338   C     0.44905   0.36536   0.72744   0.00000  Uiso   1.00
C339   C     0.42971   0.33839   0.66262   0.00000  Uiso   1.00
C340   C     0.50951   0.28877   0.87009   0.00000  Uiso   1.00
C341   C     0.47254   0.28189   0.92979   0.00000  Uiso   1.00
C342   C     0.46394   0.21676   0.95751   0.00000  Uiso   1.00
C343   C     0.60347   0.37191   0.82422   0.00000  Uiso   1.00
C344   C     0.64549   0.43492   0.84537   0.00000  Uiso   1.00
C345   C     0.71600   0.43977   0.83449   0.00000  Uiso   1.00
H346   H     0.59688   0.20805   0.75017   0.00000  Uiso   1.00
H347   H     0.52613   0.20743   0.64056   0.00000  Uiso   1.00
H348   H     0.54962   0.12399   0.84288   0.00000  Uiso   1.00
H349   H     0.72255   0.27699   0.75847   0.00000  Uiso   1.00
H350   H     0.43558   0.23151   0.53267   0.00000  Uiso   1.00
H351   H     0.48513   0.05557   0.95929   0.00000  Uiso   1.00
H352   H     0.84979   0.37820   0.78130   0.00000  Uiso   1.00
H353   H     0.50370   0.39897   0.85523   0.00000  Uiso   1.00
H354   H     0.42784   0.40883   0.75138   0.00000  Uiso   1.00
H355   H     0.45133   0.32538   0.95370   0.00000  Uiso   1.00
H356   H     0.62426   0.47838   0.86929   0.00000  Uiso   1.00
H357   H     0.35580   0.39497   0.62262   0.00000  Uiso   1.00
H358   H     0.40536   0.21902   0.04924   0.00000  Uiso   1.00
H359   H     0.77001   0.54166   0.87125   0.00000  Uiso   1.00
O360   O     0.34745   0.31627   0.50744   0.00000  Uiso   1.00
O361   O     0.41248   0.08544   0.06716   0.00000  Uiso   1.00
O362   O     0.89089   0.50873   0.83363   0.00000  Uiso   1.00
N363   N     0.42722   0.26864   0.56809   0.00000  Uiso   1.00
N364   N     0.47355   0.10413   0.96695   0.00000  Uiso   1.00
N365   N     0.81447   0.40576   0.80055   0.00000  Uiso   1.00
N366   N     0.38430   0.35660   0.61649   0.00000  Uiso   1.00
N367   N     0.43062   0.19209   0.01535   0.00000  Uiso   1.00
N368   N     0.77154   0.49372   0.84895   0.00000  Uiso   1.00
C369   C     0.72839   0.51684   0.26920   0.00000  Uiso   1.00
C370   C     0.67350   0.45323   0.28341   0.00000  Uiso   1.00
C371   C     0.60954   0.43481   0.25188   0.00000  Uiso   1.00
C372   C     0.56668   0.37469   0.27198   0.00000  Uiso   1.00
C373   C     0.47835   0.28202   0.28644   0.00000  Uiso   1.00
C374   C     0.79376   0.48774   0.25045   0.00000  Uiso   1.00
C375   C     0.83092   0.49834   0.19121   0.00000  Uiso   1.00
C376   C     0.88930   0.46727   0.18357   0.00000  Uiso   1.00
C377   C     0.98771   0.42822   0.14688   0.00000  Uiso   1.00
C378   C     0.74369   0.55881   0.33663   0.00000  Uiso   1.00
C379   C     0.73876   0.62917   0.34985   0.00000  Uiso   1.00
C380   C     0.75500   0.65794   0.41477   0.00000  Uiso   1.00
C381   C     0.77566   0.72923   0.51189   0.00000  Uiso   1.00
C382   C     0.76601   0.44281   0.36098   0.00000  Uiso   1.00
C383   C     0.69394   0.41303   0.33326   0.00000  Uiso   1.00
C384   C     0.65115   0.35291   0.35342   0.00000  Uiso   1.00
C385   C     0.58714   0.33441   0.32193   0.00000  Uiso   1.00
C386   C     0.81419   0.44753   0.30030   0.00000  Uiso   1.00
C387   C     0.87253   0.41644   0.29275   0.00000  Uiso   1.00
C388   C     0.90976   0.42699   0.23351   0.00000  Uiso   1.00
C389   C     0.76412   0.51860   0.38649   0.00000  Uiso   1.00
C390   C     0.78037   0.54727   0.45140   0.00000  Uiso   1.00
C391   C     0.77546   0.61766   0.46471   0.00000  Uiso   1.00
H392   H     0.71249   0.54814   0.23039   0.00000  Uiso   1.00
H393   H     0.59375   0.46594   0.21330   0.00000  Uiso   1.00
H394   H     0.81510   0.52946   0.15264   0.00000  Uiso   1.00
H395   H     0.72295   0.66027   0.31126   0.00000  Uiso   1.00
H396   H     0.47113   0.35706   0.21632   0.00000  Uiso   1.00
H397   H     0.93786   0.49102   0.08843   0.00000  Uiso   1.00
H398   H     0.74355   0.76685   0.42291   0.00000  Uiso   1.00
H399   H     0.78191   0.41151   0.39979   0.00000  Uiso   1.00
H400   H     0.66698   0.32181   0.39200   0.00000  Uiso   1.00
H401   H     0.88833   0.38534   0.33134   0.00000  Uiso   1.00
H402   H     0.79618   0.51614   0.48996   0.00000  Uiso   1.00
H403   H     0.53056   0.24008   0.36136   0.00000  Uiso   1.00
H404   H     0.99730   0.37404   0.23347   0.00000  Uiso   1.00
H405   H     0.80299   0.64987   0.56795   0.00000  Uiso   1.00
O406   O     0.42400   0.24201   0.28064   0.00000  Uiso   1.00
O407   O     0.03634   0.41778   0.11286   0.00000  Uiso   1.00
O408   O     0.78141   0.77966   0.55169   0.00000  Uiso   1.00
N409   N     0.50088   0.34185   0.25153   0.00000  Uiso   1.00
N410   N     0.93725   0.46708   0.13196   0.00000  Uiso   1.00
N411   N     0.75560   0.72497   0.44467   0.00000  Uiso   1.00
N412   N     0.53286   0.27890   0.32958   0.00000  Uiso   1.00
N413   N     0.96923   0.40414   0.21000   0.00000  Uiso   1.00
N414   N     0.78758   0.66202   0.52271   0.00000  Uiso   1.00
C415   C     0.86109   0.05005   0.32083   0.00000  Uiso   1.00
C416   C     0.88459   0.99592   0.27078   0.00000  Uiso   1.00
C417   C     0.87209   0.98975   0.20185   0.00000  Uiso   1.00
C418   C     0.89791   0.93680   0.16475   0.00000  Uiso   1.00
C419   C     0.92874   0.85960   0.08236   0.00000  Uiso   1.00
C420   C     0.81897   0.00797   0.37409   0.00000  Uiso   1.00
C421   C     0.75130   0.01195   0.39201   0.00000  Uiso   1.00
C422   C     0.72189   0.96915   0.44189   0.00000  Uiso   1.00
C423   C     0.65087   0.91070   0.51991   0.00000  Uiso   1.00
C424   C     0.92635   0.08931   0.35647   0.00000  Uiso   1.00
C425   C     0.94897   0.16169   0.35961   0.00000  Uiso   1.00
C426   C     0.00996   0.18737   0.39467   0.00000  Uiso   1.00
C427   C     0.10567   0.25522   0.44535   0.00000  Uiso   1.00
C428   C     0.92917   0.96698   0.37753   0.00000  Uiso   1.00
C429   C     0.92156   0.95080   0.30158   0.00000  Uiso   1.00
C430   C     0.94741   0.89785   0.26458   0.00000  Uiso   1.00
C431   C     0.93495   0.89160   0.19560   0.00000  Uiso   1.00
C432   C     0.85594   0.96286   0.40488   0.00000  Uiso   1.00
C433   C     0.82663   0.92004   0.45474   0.00000  Uiso   1.00
C434   C     0.75893   0.92395   0.47274   0.00000  Uiso   1.00
C435   C     0.96333   0.04420   0.38727   0.00000  Uiso   1.00
C436   C     0.02430   0.06978   0.42233   0.00000  Uiso   1.00
C437   C     0.04701   0.14217   0.42552   0.00000  Uiso   1.00
H438   H     0.83230   0.08517   0.29686   0.00000  Uiso   1.00
H439   H     0.84346   0.02468   0.17804   0.00000  Uiso   1.00
H440   H     0.72271   0.04687   0.36818   0.00000  Uiso   1.00
H441   H     0.92034   0.19658   0.33577   0.00000  Uiso   1.00
H442   H     0.87213   0.93769   0.05989   0.00000  Uiso   1.00
H443   H     0.61751   0.98451   0.46083   0.00000  Uiso   1.00
H444   H     0.03427   0.30021   0.39250   0.00000  Uiso   1.00
H445   H     0.95795   0.93185   0.40150   0.00000  Uiso   1.00
H446   H     0.97602   0.86294   0.28842   0.00000  Uiso   1.00
H447   H     0.85526   0.88514   0.47856   0.00000  Uiso   1.00
H448   H     0.05290   0.03485   0.44616   0.00000  Uiso   1.00
H449   H     0.97972   0.80642   0.14948   0.00000  Uiso   1.00
H450   H     0.72510   0.85324   0.55042   0.00000  Uiso   1.00
H451   H     0.14186   0.16894   0.48209   0.00000  Uiso   1.00
O452   O     0.93552   0.82947   0.02841   0.00000  Uiso   1.00
O453   O     0.60148   0.89092   0.55444   0.00000  Uiso   1.00
O454   O     0.14825   0.30510   0.46479   0.00000  Uiso   1.00
N455   N     0.89499   0.91626   0.09649   0.00000  Uiso   1.00
N456   N     0.65693   0.96003   0.47134   0.00000  Uiso   1.00
N457   N     0.04655   0.25518   0.40747   0.00000  Uiso   1.00
N458   N     0.95288   0.84563   0.14470   0.00000  Uiso   1.00
N459   N     0.71482   0.88939   0.51955   0.00000  Uiso   1.00
N460   N     0.10444   0.18455   0.45568   0.00000  Uiso   1.00
C461   C     0.07399   0.20967   0.79477   0.00000  Uiso   1.00
C462   C     0.01162   0.15856   0.81858   0.00000  Uiso   1.00
C463   C     0.98975   0.09002   0.79222   0.00000  Uiso   1.00
C464   C     0.93150   0.05179   0.82095   0.00000  Uiso   1.00
C465   C     0.83996   0.96797   0.84981   0.00000  Uiso   1.00
C466   C     0.04654   0.27499   0.77602   0.00000  Uiso   1.00
C467   C     0.05403   0.30435   0.71389   0.00000  Uiso   1.00
C468   C     0.02518   0.36413   0.70679   0.00000  Uiso   1.00
C469   C     0.98789   0.46110   0.66959   0.00000  Uiso   1.00
C470   C     0.11959   0.23246   0.85679   0.00000  Uiso   1.00
C471   C     0.18851   0.22608   0.86256   0.00000  Uiso   1.00
C472   C     0.22116   0.25007   0.92347   0.00000  Uiso   1.00
C473   C     0.29730   0.28100   0.01167   0.00000  Uiso   1.00
C474   C     0.00945   0.26363   0.89266   0.00000  Uiso   1.00
C475   C     0.97656   0.18787   0.87175   0.00000  Uiso   1.00
C476   C     0.91834   0.14972   0.90052   0.00000  Uiso   1.00
C477   C     0.89638   0.08115   0.87422   0.00000  Uiso   1.00
C478   C     0.01148   0.30430   0.82919   0.00000  Uiso   1.00
C479   C     0.98262   0.36405   0.82219   0.00000  Uiso   1.00
C480   C     0.99006   0.39349   0.76006   0.00000  Uiso   1.00
C481   C     0.08453   0.26176   0.90996   0.00000  Uiso   1.00
C482   C     0.11709   0.28577   0.97087   0.00000  Uiso   1.00
C483   C     0.18604   0.27943   0.97673   0.00000  Uiso   1.00
H484   H     0.10129   0.18686   0.75337   0.00000  Uiso   1.00
H485   H     0.01689   0.06736   0.75107   0.00000  Uiso   1.00
H486   H     0.08117   0.28166   0.67275   0.00000  Uiso   1.00
H487   H     0.21562   0.20339   0.82141   0.00000  Uiso   1.00
H488   H     0.90784   0.94781   0.77195   0.00000  Uiso   1.00
H489   H     0.04339   0.39968   0.60681   0.00000  Uiso   1.00
H490   H     0.32692   0.23465   0.92028   0.00000  Uiso   1.00
H491   H     0.98215   0.28646   0.93405   0.00000  Uiso   1.00
H492   H     0.89122   0.17242   0.94167   0.00000  Uiso   1.00
H493   H     0.95549   0.38672   0.86334   0.00000  Uiso   1.00
H494   H     0.08995   0.30845   0.01200   0.00000  Uiso   1.00
H495   H     0.80584   0.03308   0.92664   0.00000  Uiso   1.00
H496   H     0.94140   0.48496   0.76151   0.00000  Uiso   1.00
H497   H     0.22491   0.31992   0.07497   0.00000  Uiso   1.00
O498   O     0.79915   0.91364   0.85103   0.00000  Uiso   1.00
O499   O     0.97701   0.50649   0.63438   0.00000  Uiso   1.00
O500   O     0.34898   0.28996   0.04564   0.00000  Uiso   1.00
N501   N     0.89632   0.98353   0.80732   0.00000  Uiso   1.00
N502   N     0.02305   0.40599   0.65293   0.00000  Uiso   1.00
N503   N     0.28812   0.25172   0.94598   0.00000  Uiso   1.00
N504   N     0.84144   0.02941   0.89056   0.00000  Uiso   1.00
N505   N     0.96816   0.45188   0.73616   0.00000  Uiso   1.00
N506   N     0.23324   0.29760   0.02922   0.00000  Uiso   1.00
C507   C     0.38342   0.74579   0.14491   0.00000  Uiso   1.00
C508   C     0.31867   0.74658   0.10340   0.00000  Uiso   1.00
C509   C     0.25381   0.70699   0.11388   0.00000  Uiso   1.00
C510   C     0.20126   0.71520   0.07042   0.00000  Uiso   1.00
C511   C     0.09891   0.70938   0.01387   0.00000  Uiso   1.00
C512   C     0.43767   0.72709   0.09497   0.00000  Uiso   1.00
C513   C     0.47287   0.67111   0.09837   0.00000  Uiso   1.00
C514   C     0.52050   0.66292   0.04781   0.00000  Uiso   1.00
C515   C     0.60294   0.62687   0.97820   0.00000  Uiso   1.00
C516   C     0.40900   0.82192   0.17069   0.00000  Uiso   1.00
C517   C     0.42011   0.84568   0.23775   0.00000  Uiso   1.00
C518   C     0.44362   0.91733   0.25095   0.00000  Uiso   1.00
C519   C     0.48154   0.02853   0.29889   0.00000  Uiso   1.00
C520   C     0.40543   0.83078   0.04909   0.00000  Uiso   1.00
C521   C     0.33063   0.79275   0.05135   0.00000  Uiso   1.00
C522   C     0.27817   0.80102   0.00787   0.00000  Uiso   1.00
C523   C     0.21323   0.76145   0.01828   0.00000  Uiso   1.00
C524   C     0.44963   0.77325   0.04292   0.00000  Uiso   1.00
C525   C     0.49722   0.76514   0.99235   0.00000  Uiso   1.00
C526   C     0.53248   0.70917   0.99567   0.00000  Uiso   1.00
C527   C     0.42096   0.86809   0.11864   0.00000  Uiso   1.00
C528   C     0.44446   0.93972   0.13174   0.00000  Uiso   1.00
C529   C     0.45560   0.96358   0.19881   0.00000  Uiso   1.00
H530   H     0.37411   0.70984   0.18543   0.00000  Uiso   1.00
H531   H     0.24458   0.67126   0.15416   0.00000  Uiso   1.00
H532   H     0.46361   0.63540   0.13866   0.00000  Uiso   1.00
H533   H     0.41085   0.80994   0.27802   0.00000  Uiso   1.00
H534   H     0.10624   0.64883   0.09653   0.00000  Uiso   1.00
H535   H     0.56810   0.57322   0.06385   0.00000  Uiso   1.00
H536   H     0.45685   0.94128   0.35772   0.00000  Uiso   1.00
H537   H     0.41475   0.86672   0.00857   0.00000  Uiso   1.00
H538   H     0.28743   0.83675   0.96759   0.00000  Uiso   1.00
H539   H     0.50647   0.80088   0.95209   0.00000  Uiso   1.00
H540   H     0.45371   0.97542   0.09145   0.00000  Uiso   1.00
H541   H     0.14103   0.78314   0.94510   0.00000  Uiso   1.00
H542   H     0.60288   0.70753   0.91242   0.00000  Uiso   1.00
H543   H     0.49164   0.07559   0.20629   0.00000  Uiso   1.00
O544   O     0.03916   0.69342   0.99704   0.00000  Uiso   1.00
O545   O     0.64510   0.59423   0.95417   0.00000  Uiso   1.00
O546   O     0.49915   0.07711   0.33972   0.00000  Uiso   1.00
N547   N     0.13190   0.68456   0.06652   0.00000  Uiso   1.00
N548   N     0.56370   0.61386   0.03596   0.00000  Uiso   1.00
N549   N     0.45971   0.95797   0.31070   0.00000  Uiso   1.00
N550   N     0.15061   0.75683   0.98504   0.00000  Uiso   1.00
N551   N     0.58241   0.68614   0.95448   0.00000  Uiso   1.00
N552   N     0.47843   0.03024   0.22922   0.00000  Uiso   1.00
