data_job_06116
_audit_creation_date              2018-12-19
_audit_creation_method            'Materials Studio'
_symmetry_space_group_name_H-M    'P1'
_symmetry_Int_Tables_number       1
_symmetry_cell_setting            triclinic
loop_
_symmetry_equiv_pos_as_xyz
  x,y,z
_cell_length_a                    14.4394
_cell_length_b                    16.8929
_cell_length_c                    16.9225
_cell_angle_alpha                 112.2450
_cell_angle_beta                  73.4736
_cell_angle_gamma                 73.6379
loop_
_atom_site_label
_atom_site_type_symbol
_atom_site_fract_x
_atom_site_fract_y
_atom_site_fract_z
_atom_site_U_iso_or_equiv
_atom_site_adp_type
_atom_site_occupancy
C1     C     0.51452   0.09924   0.62974   0.00000  Uiso   1.00
C2     C     0.57066   0.13955   0.57546   0.00000  Uiso   1.00
C3     C     0.61068   0.10417   0.47805   0.00000  Uiso   1.00
C4     C     0.65930   0.15108   0.44206   0.00000  Uiso   1.00
C5     C     0.74526   0.20156   0.34874   0.00000  Uiso   1.00
C6     C     0.57803   0.07715   0.68302   0.00000  Uiso   1.00
C7     C     0.62423   0.98931   0.67606   0.00000  Uiso   1.00
C8     C     0.67904   0.98371   0.73063   0.00000  Uiso   1.00
C9     C     0.77636   0.93733   0.80436   0.00000  Uiso   1.00
C10    C     0.40530   0.18122   0.70563   0.00000  Uiso   1.00
C11    C     0.30626   0.18087   0.71769   0.00000  Uiso   1.00
C12    C     0.21565   0.26287   0.79131   0.00000  Uiso   1.00
C13    C     0.04478   0.37808   0.90013   0.00000  Uiso   1.00
C14    C     0.52969   0.24548   0.73904   0.00000  Uiso   1.00
C15    C     0.57890   0.21898   0.63483   0.00000  Uiso   1.00
C16    C     0.62746   0.26596   0.59897   0.00000  Uiso   1.00
C17    C     0.66755   0.23066   0.50153   0.00000  Uiso   1.00
C18    C     0.58626   0.15658   0.74239   0.00000  Uiso   1.00
C19    C     0.64101   0.15111   0.79699   0.00000  Uiso   1.00
C20    C     0.68729   0.06328   0.79011   0.00000  Uiso   1.00
C21    C     0.41353   0.26065   0.76499   0.00000  Uiso   1.00
C22    C     0.32305   0.34267   0.83861   0.00000  Uiso   1.00
C23    C     0.22390   0.34245   0.85078   0.00000  Uiso   1.00
H24    H     0.50811   0.03739   0.58352   0.00000  Uiso   1.00
H25    H     0.60430   0.04269   0.43213   0.00000  Uiso   1.00
H26    H     0.61783   0.92785   0.63012   0.00000  Uiso   1.00
H27    H     0.29992   0.11939   0.67174   0.00000  Uiso   1.00
H28    H     0.71461   0.08357   0.29046   0.00000  Uiso   1.00
H29    H     0.74311   0.84144   0.70796   0.00000  Uiso   1.00
H30    H     0.07273   0.24532   0.79572   0.00000  Uiso   1.00
H31    H     0.53610   0.30732   0.78526   0.00000  Uiso   1.00
H32    H     0.63383   0.32743   0.64493   0.00000  Uiso   1.00
H33    H     0.64736   0.21259   0.84292   0.00000  Uiso   1.00
H34    H     0.32945   0.40412   0.88454   0.00000  Uiso   1.00
H35    H     0.73858   0.31467   0.46318   0.00000  Uiso   1.00
H36    H     0.76708   0.07255   0.88068   0.00000  Uiso   1.00
H37    H     0.09670   0.47643   0.96844   0.00000  Uiso   1.00
O38    O     0.79041   0.20746   0.28087   0.00000  Uiso   1.00
O39    O     0.82778   0.88981   0.82862   0.00000  Uiso   1.00
O40    O     0.94826   0.41968   0.94375   0.00000  Uiso   1.00
N41    N     0.70682   0.13521   0.35037   0.00000  Uiso   1.00
N42    N     0.73348   0.90883   0.74069   0.00000  Uiso   1.00
N43    N     0.10673   0.28642   0.82276   0.00000  Uiso   1.00
N44    N     0.71972   0.25956   0.44331   0.00000  Uiso   1.00
N45    N     0.74638   0.03319   0.83363   0.00000  Uiso   1.00
N46    N     0.11963   0.41077   0.91570   0.00000  Uiso   1.00
C47    C     0.14432   0.37031   0.46954   0.00000  Uiso   1.00
C48    C     0.14620   0.42473   0.56396   0.00000  Uiso   1.00
C49    C     0.08899   0.52218   0.62588   0.00000  Uiso   1.00
C50    C     0.10161   0.55831   0.70863   0.00000  Uiso   1.00
C51    C     0.09431   0.65183   0.85217   0.00000  Uiso   1.00
C52    C     0.26092   0.31737   0.39430   0.00000  Uiso   1.00
C53    C     0.30015   0.32454   0.31356   0.00000  Uiso   1.00
C54    C     0.40933   0.27028   0.25350   0.00000  Uiso   1.00
C55    C     0.58012   0.19707   0.13360   0.00000  Uiso   1.00
C56    C     0.11094   0.29404   0.47562   0.00000  Uiso   1.00
C57    C     0.02408   0.28158   0.46324   0.00000  Uiso   1.00
C58    C     0.00701   0.20765   0.47161   0.00000  Uiso   1.00
C59    C     0.94492   0.09822   0.47798   0.00000  Uiso   1.00
C60    C     0.26847   0.26116   0.50641   0.00000  Uiso   1.00
C61    C     0.21364   0.36544   0.58398   0.00000  Uiso   1.00
C62    C     0.22634   0.40143   0.66667   0.00000  Uiso   1.00
C63    C     0.16916   0.49892   0.72870   0.00000  Uiso   1.00
C64    C     0.32835   0.25808   0.41432   0.00000  Uiso   1.00
C65    C     0.43751   0.20379   0.35436   0.00000  Uiso   1.00
C66    C     0.47689   0.21089   0.27356   0.00000  Uiso   1.00
C67    C     0.17837   0.23475   0.49565   0.00000  Uiso   1.00
C68    C     0.16143   0.16083   0.50404   0.00000  Uiso   1.00
C69    C     0.07456   0.14826   0.49167   0.00000  Uiso   1.00
H70    H     0.09183   0.41646   0.45394   0.00000  Uiso   1.00
H71    H     0.03681   0.56804   0.61035   0.00000  Uiso   1.00
H72    H     0.24794   0.37042   0.29808   0.00000  Uiso   1.00
H73    H     0.97191   0.32747   0.44774   0.00000  Uiso   1.00
H74    H     0.00559   0.70995   0.79257   0.00000  Uiso   1.00
H75    H     0.45076   0.29325   0.13412   0.00000  Uiso   1.00
H76    H     0.86870   0.20266   0.44969   0.00000  Uiso   1.00
H77    H     0.32098   0.21500   0.52200   0.00000  Uiso   1.00
H78    H     0.27854   0.35553   0.68215   0.00000  Uiso   1.00
H79    H     0.48967   0.15792   0.36987   0.00000  Uiso   1.00
H80    H     0.21364   0.11496   0.51953   0.00000  Uiso   1.00
H81    H     0.20179   0.53748   0.85084   0.00000  Uiso   1.00
H82    H     0.64695   0.12076   0.19238   0.00000  Uiso   1.00
H83    H     0.06489   0.03019   0.50797   0.00000  Uiso   1.00
O84    O     0.07166   0.71980   0.92581   0.00000  Uiso   1.00
O85    O     0.65569   0.17308   0.06194   0.00000  Uiso   1.00
O86    O     0.89204   0.05425   0.47598   0.00000  Uiso   1.00
N87    N     0.05757   0.65007   0.78431   0.00000  Uiso   1.00
N88    N     0.47378   0.26049   0.16871   0.00000  Uiso   1.00
N89    N     0.92962   0.17579   0.46372   0.00000  Uiso   1.00
N90    N     0.16314   0.55727   0.81567   0.00000  Uiso   1.00
N91    N     0.57935   0.16768   0.20006   0.00000  Uiso   1.00
N92    N     0.03519   0.08298   0.49508   0.00000  Uiso   1.00
C93    C     0.61393   0.53036   0.90068   0.00000  Uiso   1.00
C94    C     0.71000   0.43605   0.86074   0.00000  Uiso   1.00
C95    C     0.71461   0.37395   0.89622   0.00000  Uiso   1.00
C96    C     0.80978   0.29134   0.84967   0.00000  Uiso   1.00
C97    C     0.94569   0.14793   0.79974   0.00000  Uiso   1.00
C98    C     0.65531   0.60600   0.92293   0.00000  Uiso   1.00
C99    C     0.61392   0.68679   0.01069   0.00000  Uiso   1.00
C100   C     0.66304   0.74725   0.01648   0.00000  Uiso   1.00
C101   C     0.71399   0.86771   0.06308   0.00000  Uiso   1.00
C102   C     0.58669   0.52418   0.81847   0.00000  Uiso   1.00
C103   C     0.48759   0.53619   0.81841   0.00000  Uiso   1.00
C104   C     0.47893   0.52779   0.73625   0.00000  Uiso   1.00
C105   C     0.42333   0.52122   0.62067   0.00000  Uiso   1.00
C106   C     0.77475   0.49410   0.75492   0.00000  Uiso   1.00
C107   C     0.79735   0.41636   0.78157   0.00000  Uiso   1.00
C108   C     0.89254   0.33383   0.73495   0.00000  Uiso   1.00
C109   C     0.89728   0.27161   0.77035   0.00000  Uiso   1.00
C110   C     0.74266   0.58631   0.84376   0.00000  Uiso   1.00
C111   C     0.79185   0.64667   0.84942   0.00000  Uiso   1.00
C112   C     0.75055   0.72752   0.93717   0.00000  Uiso   1.00
C113   C     0.67404   0.50448   0.73930   0.00000  Uiso   1.00
C114   C     0.66553   0.49607   0.65714   0.00000  Uiso   1.00
C115   C     0.56644   0.50806   0.65694   0.00000  Uiso   1.00
H116   H     0.54593   0.54570   0.96232   0.00000  Uiso   1.00
H117   H     0.64700   0.38922   0.95750   0.00000  Uiso   1.00
H118   H     0.54632   0.70201   0.07194   0.00000  Uiso   1.00
H119   H     0.42002   0.55143   0.87968   0.00000  Uiso   1.00
H120   H     0.79759   0.20706   0.91726   0.00000  Uiso   1.00
H121   H     0.58528   0.86662   0.15857   0.00000  Uiso   1.00
H122   H     0.31894   0.54910   0.75316   0.00000  Uiso   1.00
H123   H     0.84276   0.47877   0.69328   0.00000  Uiso   1.00
H124   H     0.96012   0.31861   0.67369   0.00000  Uiso   1.00
H125   H     0.85944   0.63141   0.78814   0.00000  Uiso   1.00
H126   H     0.73314   0.48083   0.59588   0.00000  Uiso   1.00
H127   H     0.05173   0.14975   0.68691   0.00000  Uiso   1.00
H128   H     0.83941   0.80932   0.92822   0.00000  Uiso   1.00
H129   H     0.57309   0.49180   0.52281   0.00000  Uiso   1.00
O130   O     0.99652   0.07427   0.79408   0.00000  Uiso   1.00
O131   O     0.71796   0.93960   0.11066   0.00000  Uiso   1.00
O132   O     0.36854   0.52302   0.57877   0.00000  Uiso   1.00
N133   N     0.84129   0.21554   0.86572   0.00000  Uiso   1.00
N134   N     0.64280   0.83219   0.09134   0.00000  Uiso   1.00
N135   N     0.39379   0.53536   0.71232   0.00000  Uiso   1.00
N136   N     0.97804   0.18471   0.74178   0.00000  Uiso   1.00
N137   N     0.77955   0.80135   0.96739   0.00000  Uiso   1.00
N138   N     0.53054   0.50452   0.58837   0.00000  Uiso   1.00
C139   C     0.48548   0.90076   0.37026   0.00000  Uiso   1.00
C140   C     0.42934   0.86045   0.42454   0.00000  Uiso   1.00
C141   C     0.38932   0.89583   0.52195   0.00000  Uiso   1.00
C142   C     0.34070   0.84892   0.55794   0.00000  Uiso   1.00
C143   C     0.25474   0.79844   0.65126   0.00000  Uiso   1.00
C144   C     0.42197   0.92285   0.31698   0.00000  Uiso   1.00
C145   C     0.37577   0.01069   0.32394   0.00000  Uiso   1.00
C146   C     0.32096   0.01629   0.26937   0.00000  Uiso   1.00
C147   C     0.22364   0.06267   0.19564   0.00000  Uiso   1.00
C148   C     0.59470   0.81878   0.29437   0.00000  Uiso   1.00
C149   C     0.69374   0.81913   0.28231   0.00000  Uiso   1.00
C150   C     0.78435   0.73713   0.20869   0.00000  Uiso   1.00
C151   C     0.95522   0.62192   0.09987   0.00000  Uiso   1.00
C152   C     0.47031   0.75452   0.26096   0.00000  Uiso   1.00
C153   C     0.42110   0.78102   0.36517   0.00000  Uiso   1.00
C154   C     0.37254   0.73404   0.40103   0.00000  Uiso   1.00
C155   C     0.33245   0.76934   0.49847   0.00000  Uiso   1.00
C156   C     0.41374   0.84342   0.25761   0.00000  Uiso   1.00
C157   C     0.35899   0.84889   0.20301   0.00000  Uiso   1.00
C158   C     0.31271   0.93672   0.20989   0.00000  Uiso   1.00
C159   C     0.58647   0.73935   0.23501   0.00000  Uiso   1.00
C160   C     0.67695   0.65733   0.16139   0.00000  Uiso   1.00
C161   C     0.77610   0.65755   0.14922   0.00000  Uiso   1.00
H162   H     0.49189   0.96261   0.41648   0.00000  Uiso   1.00
H163   H     0.39570   0.95731   0.56787   0.00000  Uiso   1.00
H164   H     0.38217   0.07215   0.36988   0.00000  Uiso   1.00
H165   H     0.70008   0.88061   0.32826   0.00000  Uiso   1.00
H166   H     0.28539   0.91643   0.70954   0.00000  Uiso   1.00
H167   H     0.25689   0.15856   0.29204   0.00000  Uiso   1.00
H168   H     0.92727   0.75468   0.20428   0.00000  Uiso   1.00
H169   H     0.46390   0.69268   0.21474   0.00000  Uiso   1.00
H170   H     0.36617   0.67257   0.35507   0.00000  Uiso   1.00
H171   H     0.35264   0.78741   0.15708   0.00000  Uiso   1.00
H172   H     0.67055   0.59588   0.11546   0.00000  Uiso   1.00
H173   H     0.26142   0.68533   0.53682   0.00000  Uiso   1.00
H174   H     0.23292   0.92745   0.11932   0.00000  Uiso   1.00
H175   H     0.90330   0.52357   0.03156   0.00000  Uiso   1.00
O176   O     0.20959   0.79254   0.71913   0.00000  Uiso   1.00
O177   O     0.17222   0.11019   0.17138   0.00000  Uiso   1.00
O178   O     0.05174   0.58032   0.05625   0.00000  Uiso   1.00
N179   N     0.29318   0.86479   0.64963   0.00000  Uiso   1.00
N180   N     0.26652   0.09117   0.25931   0.00000  Uiso   1.00
N181   N     0.89327   0.71358   0.17724   0.00000  Uiso   1.00
N182   N     0.28028   0.74044   0.55669   0.00000  Uiso   1.00
N183   N     0.25362   0.96681   0.16637   0.00000  Uiso   1.00
N184   N     0.88037   0.58923   0.08430   0.00000  Uiso   1.00
C185   C     0.85568   0.62969   0.53046   0.00000  Uiso   1.00
C186   C     0.85380   0.57527   0.43604   0.00000  Uiso   1.00
C187   C     0.91101   0.47782   0.37412   0.00000  Uiso   1.00
C188   C     0.89839   0.44169   0.29137   0.00000  Uiso   1.00
C189   C     0.90569   0.34817   0.14783   0.00000  Uiso   1.00
C190   C     0.73908   0.68263   0.60570   0.00000  Uiso   1.00
C191   C     0.69985   0.67545   0.68644   0.00000  Uiso   1.00
C192   C     0.59067   0.72972   0.74650   0.00000  Uiso   1.00
C193   C     0.41988   0.80293   0.86640   0.00000  Uiso   1.00
C194   C     0.88906   0.70596   0.52438   0.00000  Uiso   1.00
C195   C     0.97592   0.71842   0.53676   0.00000  Uiso   1.00
C196   C     0.99299   0.79234   0.52839   0.00000  Uiso   1.00
C197   C     0.05508   0.90178   0.52202   0.00000  Uiso   1.00
C198   C     0.73153   0.73884   0.49359   0.00000  Uiso   1.00
C199   C     0.78636   0.63456   0.41602   0.00000  Uiso   1.00
C200   C     0.77366   0.59857   0.33333   0.00000  Uiso   1.00
C201   C     0.83084   0.50108   0.27130   0.00000  Uiso   1.00
C202   C     0.67165   0.74192   0.58568   0.00000  Uiso   1.00
C203   C     0.56249   0.79621   0.64564   0.00000  Uiso   1.00
C204   C     0.52311   0.78911   0.72644   0.00000  Uiso   1.00
C205   C     0.82163   0.76525   0.50435   0.00000  Uiso   1.00
C206   C     0.83856   0.83917   0.49596   0.00000  Uiso   1.00
C207   C     0.92544   0.85174   0.50833   0.00000  Uiso   1.00
H208   H     0.90817   0.58354   0.54606   0.00000  Uiso   1.00
H209   H     0.96319   0.43196   0.38965   0.00000  Uiso   1.00
H210   H     0.75206   0.62958   0.70192   0.00000  Uiso   1.00
H211   H     0.02809   0.67253   0.55226   0.00000  Uiso   1.00
H212   H     0.99441   0.29005   0.20743   0.00000  Uiso   1.00
H213   H     0.54924   0.70676   0.86588   0.00000  Uiso   1.00
H214   H     0.13130   0.79734   0.55031   0.00000  Uiso   1.00
H215   H     0.67902   0.78500   0.47800   0.00000  Uiso   1.00
H216   H     0.72146   0.64447   0.31785   0.00000  Uiso   1.00
H217   H     0.51034   0.84208   0.63013   0.00000  Uiso   1.00
H218   H     0.78636   0.88504   0.48047   0.00000  Uiso   1.00
H219   H     0.79821   0.46252   0.14916   0.00000  Uiso   1.00
H220   H     0.35305   0.87924   0.80762   0.00000  Uiso   1.00
H221   H     0.93511   0.96981   0.49203   0.00000  Uiso   1.00
O222   O     0.92834   0.28020   0.07419   0.00000  Uiso   1.00
O223   O     0.34431   0.82692   0.93806   0.00000  Uiso   1.00
O224   O     0.10796   0.94575   0.52402   0.00000  Uiso   1.00
N225   N     0.94243   0.34993   0.21569   0.00000  Uiso   1.00
N226   N     0.52622   0.73951   0.83129   0.00000  Uiso   1.00
N227   N     0.07038   0.82421   0.53628   0.00000  Uiso   1.00
N228   N     0.83686   0.44273   0.18433   0.00000  Uiso   1.00
N229   N     0.42065   0.83232   0.79994   0.00000  Uiso   1.00
N230   N     0.96481   0.91702   0.50492   0.00000  Uiso   1.00
C231   C     0.38607   0.46964   0.09933   0.00000  Uiso   1.00
C232   C     0.29000   0.56395   0.13926   0.00000  Uiso   1.00
C233   C     0.28539   0.62605   0.10378   0.00000  Uiso   1.00
C234   C     0.19022   0.70866   0.15033   0.00000  Uiso   1.00
C235   C     0.05431   0.85207   0.20026   0.00000  Uiso   1.00
C236   C     0.34469   0.39400   0.07707   0.00000  Uiso   1.00
C237   C     0.38608   0.31321   0.98931   0.00000  Uiso   1.00
C238   C     0.33696   0.25275   0.98352   0.00000  Uiso   1.00
C239   C     0.28601   0.13229   0.93692   0.00000  Uiso   1.00
C240   C     0.41331   0.47582   0.18153   0.00000  Uiso   1.00
C241   C     0.51241   0.46381   0.18159   0.00000  Uiso   1.00
C242   C     0.52107   0.47221   0.26374   0.00000  Uiso   1.00
C243   C     0.57667   0.47879   0.37933   0.00000  Uiso   1.00
C244   C     0.22525   0.50590   0.24508   0.00000  Uiso   1.00
C245   C     0.20265   0.58364   0.21843   0.00000  Uiso   1.00
C246   C     0.10746   0.66617   0.26505   0.00000  Uiso   1.00
C247   C     0.10272   0.72839   0.22965   0.00000  Uiso   1.00
C248   C     0.25734   0.41369   0.15624   0.00000  Uiso   1.00
C249   C     0.20815   0.35333   0.15058   0.00000  Uiso   1.00
C250   C     0.24945   0.27248   0.06283   0.00000  Uiso   1.00
C251   C     0.32596   0.49552   0.26070   0.00000  Uiso   1.00
C252   C     0.33447   0.50393   0.34286   0.00000  Uiso   1.00
C253   C     0.43356   0.49194   0.34306   0.00000  Uiso   1.00
H254   H     0.45407   0.45430   0.03768   0.00000  Uiso   1.00
H255   H     0.35300   0.61078   0.04250   0.00000  Uiso   1.00
H256   H     0.45368   0.29799   0.92806   0.00000  Uiso   1.00
H257   H     0.57998   0.44857   0.12032   0.00000  Uiso   1.00
H258   H     0.20241   0.79294   0.08274   0.00000  Uiso   1.00
H259   H     0.41472   0.13338   0.84143   0.00000  Uiso   1.00
H260   H     0.68106   0.45090   0.24684   0.00000  Uiso   1.00
H261   H     0.15724   0.52123   0.30672   0.00000  Uiso   1.00
H262   H     0.03988   0.68139   0.32631   0.00000  Uiso   1.00
H263   H     0.14056   0.36859   0.21186   0.00000  Uiso   1.00
H264   H     0.26686   0.51917   0.40412   0.00000  Uiso   1.00
H265   H     0.94827   0.85025   0.31309   0.00000  Uiso   1.00
H266   H     0.16059   0.19068   0.07178   0.00000  Uiso   1.00
H267   H     0.42691   0.50820   0.47719   0.00000  Uiso   1.00
O268   O     0.00348   0.92573   0.20592   0.00000  Uiso   1.00
O269   O     0.28204   0.06040   0.88934   0.00000  Uiso   1.00
O270   O     0.63146   0.47698   0.42123   0.00000  Uiso   1.00
N271   N     0.15871   0.78446   0.13428   0.00000  Uiso   1.00
N272   N     0.35720   0.16781   0.90866   0.00000  Uiso   1.00
N273   N     0.60621   0.46464   0.28768   0.00000  Uiso   1.00
N274   N     0.02196   0.81529   0.25822   0.00000  Uiso   1.00
N275   N     0.22045   0.19865   0.03261   0.00000  Uiso   1.00
N276   N     0.46946   0.49548   0.41163   0.00000  Uiso   1.00
