data_job_04927
_audit_creation_date              2018-12-19
_audit_creation_method            'Materials Studio'
_symmetry_space_group_name_H-M    'P1'
_symmetry_Int_Tables_number       1
_symmetry_cell_setting            triclinic
loop_
_symmetry_equiv_pos_as_xyz
  x,y,z
_cell_length_a                    26.5520
_cell_length_b                    12.5324
_cell_length_c                    15.3363
_cell_angle_alpha                 90.0000
_cell_angle_beta                  90.0000
_cell_angle_gamma                 90.0000
loop_
_atom_site_label
_atom_site_type_symbol
_atom_site_fract_x
_atom_site_fract_y
_atom_site_fract_z
_atom_site_U_iso_or_equiv
_atom_site_adp_type
_atom_site_occupancy
C1     C     0.61027   0.12044   0.20854   0.00000  Uiso   1.00
C2     C     0.63698   0.19706   0.27042   0.00000  Uiso   1.00
C3     C     0.65424   0.29832   0.24928   0.00000  Uiso   1.00
C4     C     0.67771   0.35591   0.31508   0.00000  Uiso   1.00
C5     C     0.71830   0.48128   0.39838   0.00000  Uiso   1.00
C6     C     0.64115   0.01786   0.20927   0.00000  Uiso   1.00
C7     C     0.66193   0.96845   0.13670   0.00000  Uiso   1.00
C8     C     0.68890   0.87518   0.15103   0.00000  Uiso   1.00
C9     C     0.73595   0.72230   0.13938   0.00000  Uiso   1.00
C10    C     0.56020   0.09309   0.25180   0.00000  Uiso   1.00
C11    C     0.51289   0.10690   0.21498   0.00000  Uiso   1.00
C12    C     0.47171   0.07694   0.26511   0.00000  Uiso   1.00
C13    C     0.39305   0.04086   0.31950   0.00000  Uiso   1.00
C14    C     0.62124   0.04264   0.36301   0.00000  Uiso   1.00
C15    C     0.64294   0.15480   0.35432   0.00000  Uiso   1.00
C16    C     0.66638   0.21225   0.42018   0.00000  Uiso   1.00
C17    C     0.68368   0.31358   0.39913   0.00000  Uiso   1.00
C18    C     0.64711   0.97560   0.29317   0.00000  Uiso   1.00
C19    C     0.67406   0.88238   0.30760   0.00000  Uiso   1.00
C20    C     0.69487   0.83285   0.23508   0.00000  Uiso   1.00
C21    C     0.56615   0.05083   0.33570   0.00000  Uiso   1.00
C22    C     0.52503   0.02083   0.38589   0.00000  Uiso   1.00
C23    C     0.47768   0.03460   0.34917   0.00000  Uiso   1.00
H24    H     0.60563   0.15334   0.14322   0.00000  Uiso   1.00
H25    H     0.64963   0.33099   0.18433   0.00000  Uiso   1.00
H26    H     0.65731   0.00117   0.07178   0.00000  Uiso   1.00
H27    H     0.50830   0.13960   0.15006   0.00000  Uiso   1.00
H28    H     0.70105   0.50931   0.26691   0.00000  Uiso   1.00
H29    H     0.71723   0.81384   0.02958   0.00000  Uiso   1.00
H30    H     0.40301   0.10575   0.19463   0.00000  Uiso   1.00
H31    H     0.62588   0.00974   0.42834   0.00000  Uiso   1.00
H32    H     0.67099   0.17953   0.48510   0.00000  Uiso   1.00
H33    H     0.67866   0.84970   0.37254   0.00000  Uiso   1.00
H34    H     0.52966   0.98813   0.45082   0.00000  Uiso   1.00
H35    H     0.71839   0.38637   0.51102   0.00000  Uiso   1.00
H36    H     0.73456   0.69089   0.27369   0.00000  Uiso   1.00
H37    H     0.42035   0.98281   0.43874   0.00000  Uiso   1.00
O38    O     0.73905   0.56210   0.42115   0.00000  Uiso   1.00
O39    O     0.76025   0.64966   0.10978   0.00000  Uiso   1.00
O40    O     0.34802   0.03265   0.32633   0.00000  Uiso   1.00
N41    N     0.69894   0.45708   0.31658   0.00000  Uiso   1.00
N42    N     0.71406   0.80687   0.09469   0.00000  Uiso   1.00
N43    N     0.42030   0.07975   0.24899   0.00000  Uiso   1.00
N44    N     0.70826   0.39093   0.44793   0.00000  Uiso   1.00
N45    N     0.72339   0.74071   0.22604   0.00000  Uiso   1.00
N46    N     0.42963   0.01360   0.38034   0.00000  Uiso   1.00
C47    C     0.88973   0.87956   0.70854   0.00000  Uiso   1.00
C48    C     0.86302   0.80294   0.77042   0.00000  Uiso   1.00
C49    C     0.84576   0.70168   0.74928   0.00000  Uiso   1.00
C50    C     0.82229   0.64409   0.81508   0.00000  Uiso   1.00
C51    C     0.78170   0.51872   0.89838   0.00000  Uiso   1.00
C52    C     0.85885   0.98214   0.70927   0.00000  Uiso   1.00
C53    C     0.83807   0.03155   0.63670   0.00000  Uiso   1.00
C54    C     0.81110   0.12482   0.65103   0.00000  Uiso   1.00
C55    C     0.76405   0.27770   0.63938   0.00000  Uiso   1.00
C56    C     0.93980   0.90691   0.75180   0.00000  Uiso   1.00
C57    C     0.98711   0.89310   0.71498   0.00000  Uiso   1.00
C58    C     0.02829   0.92306   0.76511   0.00000  Uiso   1.00
C59    C     0.10695   0.95914   0.81950   0.00000  Uiso   1.00
C60    C     0.87876   0.95736   0.86301   0.00000  Uiso   1.00
C61    C     0.85706   0.84520   0.85432   0.00000  Uiso   1.00
C62    C     0.83362   0.78775   0.92018   0.00000  Uiso   1.00
C63    C     0.81632   0.68642   0.89913   0.00000  Uiso   1.00
C64    C     0.85289   0.02440   0.79317   0.00000  Uiso   1.00
C65    C     0.82594   0.11762   0.80760   0.00000  Uiso   1.00
C66    C     0.80513   0.16715   0.73508   0.00000  Uiso   1.00
C67    C     0.93385   0.94917   0.83570   0.00000  Uiso   1.00
C68    C     0.97497   0.97917   0.88589   0.00000  Uiso   1.00
C69    C     0.02232   0.96540   0.84917   0.00000  Uiso   1.00
H70    H     0.89437   0.84666   0.64322   0.00000  Uiso   1.00
H71    H     0.85037   0.66901   0.68433   0.00000  Uiso   1.00
H72    H     0.84269   0.99883   0.57178   0.00000  Uiso   1.00
H73    H     0.99170   0.86040   0.65006   0.00000  Uiso   1.00
H74    H     0.79895   0.49069   0.76691   0.00000  Uiso   1.00
H75    H     0.78277   0.18616   0.52958   0.00000  Uiso   1.00
H76    H     0.09699   0.89425   0.69463   0.00000  Uiso   1.00
H77    H     0.87412   0.99026   0.92834   0.00000  Uiso   1.00
H78    H     0.82901   0.82047   0.98510   0.00000  Uiso   1.00
H79    H     0.82134   0.15030   0.87254   0.00000  Uiso   1.00
H80    H     0.97034   0.01187   0.95082   0.00000  Uiso   1.00
H81    H     0.78161   0.61363   0.01102   0.00000  Uiso   1.00
H82    H     0.76544   0.30911   0.77369   0.00000  Uiso   1.00
H83    H     0.07965   0.01719   0.93874   0.00000  Uiso   1.00
O84    O     0.76095   0.43790   0.92115   0.00000  Uiso   1.00
O85    O     0.73975   0.35034   0.60978   0.00000  Uiso   1.00
O86    O     0.15198   0.96735   0.82633   0.00000  Uiso   1.00
N87    N     0.80106   0.54292   0.81658   0.00000  Uiso   1.00
N88    N     0.78594   0.19313   0.59469   0.00000  Uiso   1.00
N89    N     0.07970   0.92025   0.74899   0.00000  Uiso   1.00
N90    N     0.79174   0.60907   0.94793   0.00000  Uiso   1.00
N91    N     0.77661   0.25929   0.72604   0.00000  Uiso   1.00
N92    N     0.07037   0.98640   0.88034   0.00000  Uiso   1.00
C93    C     0.38973   0.62044   0.29146   0.00000  Uiso   1.00
C94    C     0.36302   0.69706   0.22958   0.00000  Uiso   1.00
C95    C     0.34576   0.79832   0.25072   0.00000  Uiso   1.00
C96    C     0.32229   0.85591   0.18492   0.00000  Uiso   1.00
C97    C     0.28170   0.98128   0.10162   0.00000  Uiso   1.00
C98    C     0.35885   0.51786   0.29073   0.00000  Uiso   1.00
C99    C     0.33807   0.46845   0.36330   0.00000  Uiso   1.00
C100   C     0.31110   0.37518   0.34897   0.00000  Uiso   1.00
C101   C     0.26405   0.22230   0.36062   0.00000  Uiso   1.00
C102   C     0.43980   0.59309   0.24820   0.00000  Uiso   1.00
C103   C     0.48711   0.60690   0.28502   0.00000  Uiso   1.00
C104   C     0.52829   0.57694   0.23489   0.00000  Uiso   1.00
C105   C     0.60695   0.54086   0.18050   0.00000  Uiso   1.00
C106   C     0.37876   0.54264   0.13699   0.00000  Uiso   1.00
C107   C     0.35706   0.65480   0.14568   0.00000  Uiso   1.00
C108   C     0.33362   0.71225   0.07982   0.00000  Uiso   1.00
C109   C     0.31632   0.81358   0.10087   0.00000  Uiso   1.00
C110   C     0.35289   0.47560   0.20683   0.00000  Uiso   1.00
C111   C     0.32594   0.38238   0.19240   0.00000  Uiso   1.00
C112   C     0.30513   0.33285   0.26492   0.00000  Uiso   1.00
C113   C     0.43385   0.55083   0.16430   0.00000  Uiso   1.00
C114   C     0.47497   0.52083   0.11411   0.00000  Uiso   1.00
C115   C     0.52232   0.53460   0.15083   0.00000  Uiso   1.00
H116   H     0.39437   0.65334   0.35678   0.00000  Uiso   1.00
H117   H     0.35037   0.83099   0.31567   0.00000  Uiso   1.00
H118   H     0.34269   0.50117   0.42822   0.00000  Uiso   1.00
H119   H     0.49170   0.63960   0.34994   0.00000  Uiso   1.00
H120   H     0.29895   0.00931   0.23309   0.00000  Uiso   1.00
H121   H     0.28277   0.31384   0.47042   0.00000  Uiso   1.00
H122   H     0.59699   0.60575   0.30537   0.00000  Uiso   1.00
H123   H     0.37412   0.50974   0.07166   0.00000  Uiso   1.00
H124   H     0.32901   0.67953   0.01490   0.00000  Uiso   1.00
H125   H     0.32134   0.34970   0.12746   0.00000  Uiso   1.00
H126   H     0.47034   0.48813   0.04918   0.00000  Uiso   1.00
H127   H     0.28161   0.88637   0.98898   0.00000  Uiso   1.00
H128   H     0.26544   0.19089   0.22631   0.00000  Uiso   1.00
H129   H     0.57965   0.48281   0.06126   0.00000  Uiso   1.00
O130   O     0.26095   0.06210   0.07885   0.00000  Uiso   1.00
O131   O     0.23975   0.14966   0.39022   0.00000  Uiso   1.00
O132   O     0.65198   0.53265   0.17367   0.00000  Uiso   1.00
N133   N     0.30106   0.95708   0.18342   0.00000  Uiso   1.00
N134   N     0.28594   0.30687   0.40531   0.00000  Uiso   1.00
N135   N     0.57970   0.57975   0.25101   0.00000  Uiso   1.00
N136   N     0.29174   0.89093   0.05207   0.00000  Uiso   1.00
N137   N     0.27661   0.24071   0.27396   0.00000  Uiso   1.00
N138   N     0.57037   0.51360   0.11966   0.00000  Uiso   1.00
C139   C     0.11027   0.37956   0.79146   0.00000  Uiso   1.00
C140   C     0.13698   0.30294   0.72958   0.00000  Uiso   1.00
C141   C     0.15424   0.20168   0.75072   0.00000  Uiso   1.00
C142   C     0.17771   0.14409   0.68492   0.00000  Uiso   1.00
C143   C     0.21830   0.01872   0.60162   0.00000  Uiso   1.00
C144   C     0.14115   0.48214   0.79073   0.00000  Uiso   1.00
C145   C     0.16193   0.53155   0.86330   0.00000  Uiso   1.00
C146   C     0.18890   0.62482   0.84897   0.00000  Uiso   1.00
C147   C     0.23595   0.77770   0.86062   0.00000  Uiso   1.00
C148   C     0.06020   0.40691   0.74820   0.00000  Uiso   1.00
C149   C     0.01289   0.39310   0.78502   0.00000  Uiso   1.00
C150   C     0.97171   0.42306   0.73489   0.00000  Uiso   1.00
C151   C     0.89305   0.45914   0.68050   0.00000  Uiso   1.00
C152   C     0.12124   0.45736   0.63699   0.00000  Uiso   1.00
C153   C     0.14294   0.34520   0.64568   0.00000  Uiso   1.00
C154   C     0.16638   0.28775   0.57982   0.00000  Uiso   1.00
C155   C     0.18368   0.18642   0.60087   0.00000  Uiso   1.00
C156   C     0.14711   0.52440   0.70683   0.00000  Uiso   1.00
C157   C     0.17406   0.61762   0.69240   0.00000  Uiso   1.00
C158   C     0.19487   0.66715   0.76492   0.00000  Uiso   1.00
C159   C     0.06615   0.44917   0.66430   0.00000  Uiso   1.00
C160   C     0.02503   0.47917   0.61411   0.00000  Uiso   1.00
C161   C     0.97768   0.46540   0.65083   0.00000  Uiso   1.00
H162   H     0.10563   0.34666   0.85678   0.00000  Uiso   1.00
H163   H     0.14963   0.16901   0.81567   0.00000  Uiso   1.00
H164   H     0.15731   0.49883   0.92822   0.00000  Uiso   1.00
H165   H     0.00830   0.36040   0.84994   0.00000  Uiso   1.00
H166   H     0.20105   0.99069   0.73309   0.00000  Uiso   1.00
H167   H     0.21723   0.68616   0.97042   0.00000  Uiso   1.00
H168   H     0.90301   0.39425   0.80537   0.00000  Uiso   1.00
H169   H     0.12588   0.49026   0.57166   0.00000  Uiso   1.00
H170   H     0.17099   0.32047   0.51490   0.00000  Uiso   1.00
H171   H     0.17866   0.65030   0.62746   0.00000  Uiso   1.00
H172   H     0.02966   0.51187   0.54918   0.00000  Uiso   1.00
H173   H     0.21839   0.11363   0.48898   0.00000  Uiso   1.00
H174   H     0.23456   0.80911   0.72631   0.00000  Uiso   1.00
H175   H     0.92035   0.51719   0.56126   0.00000  Uiso   1.00
O176   O     0.23905   0.93790   0.57885   0.00000  Uiso   1.00
O177   O     0.26025   0.85034   0.89022   0.00000  Uiso   1.00
O178   O     0.84802   0.46735   0.67367   0.00000  Uiso   1.00
N179   N     0.19894   0.04292   0.68342   0.00000  Uiso   1.00
N180   N     0.21406   0.69313   0.90531   0.00000  Uiso   1.00
N181   N     0.92030   0.42025   0.75101   0.00000  Uiso   1.00
N182   N     0.20826   0.10907   0.55207   0.00000  Uiso   1.00
N183   N     0.22339   0.75929   0.77396   0.00000  Uiso   1.00
N184   N     0.92963   0.48640   0.61966   0.00000  Uiso   1.00
C185   C     0.38973   0.87956   0.79146   0.00000  Uiso   1.00
C186   C     0.36302   0.80294   0.72958   0.00000  Uiso   1.00
C187   C     0.34576   0.70168   0.75072   0.00000  Uiso   1.00
C188   C     0.32229   0.64409   0.68492   0.00000  Uiso   1.00
C189   C     0.28170   0.51872   0.60162   0.00000  Uiso   1.00
C190   C     0.35885   0.98214   0.79073   0.00000  Uiso   1.00
C191   C     0.33807   0.03155   0.86330   0.00000  Uiso   1.00
C192   C     0.31110   0.12482   0.84897   0.00000  Uiso   1.00
C193   C     0.26405   0.27770   0.86062   0.00000  Uiso   1.00
C194   C     0.43980   0.90691   0.74820   0.00000  Uiso   1.00
C195   C     0.48711   0.89310   0.78502   0.00000  Uiso   1.00
C196   C     0.52829   0.92306   0.73489   0.00000  Uiso   1.00
C197   C     0.60695   0.95914   0.68050   0.00000  Uiso   1.00
C198   C     0.37876   0.95736   0.63699   0.00000  Uiso   1.00
C199   C     0.35706   0.84520   0.64568   0.00000  Uiso   1.00
C200   C     0.33362   0.78775   0.57982   0.00000  Uiso   1.00
C201   C     0.31632   0.68642   0.60087   0.00000  Uiso   1.00
C202   C     0.35289   0.02440   0.70683   0.00000  Uiso   1.00
C203   C     0.32594   0.11762   0.69240   0.00000  Uiso   1.00
C204   C     0.30513   0.16715   0.76492   0.00000  Uiso   1.00
C205   C     0.43385   0.94917   0.66430   0.00000  Uiso   1.00
C206   C     0.47497   0.97917   0.61411   0.00000  Uiso   1.00
C207   C     0.52232   0.96540   0.65083   0.00000  Uiso   1.00
H208   H     0.39437   0.84666   0.85678   0.00000  Uiso   1.00
H209   H     0.35037   0.66901   0.81567   0.00000  Uiso   1.00
H210   H     0.34269   0.99883   0.92822   0.00000  Uiso   1.00
H211   H     0.49170   0.86040   0.84994   0.00000  Uiso   1.00
H212   H     0.29895   0.49069   0.73309   0.00000  Uiso   1.00
H213   H     0.28277   0.18616   0.97042   0.00000  Uiso   1.00
H214   H     0.59699   0.89425   0.80537   0.00000  Uiso   1.00
H215   H     0.37412   0.99026   0.57166   0.00000  Uiso   1.00
H216   H     0.32901   0.82047   0.51490   0.00000  Uiso   1.00
H217   H     0.32134   0.15030   0.62746   0.00000  Uiso   1.00
H218   H     0.47034   0.01187   0.54918   0.00000  Uiso   1.00
H219   H     0.28161   0.61363   0.48898   0.00000  Uiso   1.00
H220   H     0.26544   0.30911   0.72631   0.00000  Uiso   1.00
H221   H     0.57965   0.01719   0.56126   0.00000  Uiso   1.00
O222   O     0.26095   0.43790   0.57885   0.00000  Uiso   1.00
O223   O     0.23975   0.35034   0.89022   0.00000  Uiso   1.00
O224   O     0.65198   0.96735   0.67367   0.00000  Uiso   1.00
N225   N     0.30106   0.54292   0.68342   0.00000  Uiso   1.00
N226   N     0.28594   0.19313   0.90531   0.00000  Uiso   1.00
N227   N     0.57970   0.92025   0.75101   0.00000  Uiso   1.00
N228   N     0.29174   0.60907   0.55207   0.00000  Uiso   1.00
N229   N     0.27661   0.25929   0.77396   0.00000  Uiso   1.00
N230   N     0.57037   0.98640   0.61966   0.00000  Uiso   1.00
C231   C     0.11027   0.12044   0.29146   0.00000  Uiso   1.00
C232   C     0.13698   0.19706   0.22958   0.00000  Uiso   1.00
C233   C     0.15424   0.29832   0.25072   0.00000  Uiso   1.00
C234   C     0.17771   0.35591   0.18492   0.00000  Uiso   1.00
C235   C     0.21830   0.48128   0.10162   0.00000  Uiso   1.00
C236   C     0.14115   0.01786   0.29073   0.00000  Uiso   1.00
C237   C     0.16193   0.96845   0.36330   0.00000  Uiso   1.00
C238   C     0.18890   0.87518   0.34897   0.00000  Uiso   1.00
C239   C     0.23595   0.72230   0.36062   0.00000  Uiso   1.00
C240   C     0.06020   0.09309   0.24820   0.00000  Uiso   1.00
C241   C     0.01289   0.10690   0.28502   0.00000  Uiso   1.00
C242   C     0.97171   0.07694   0.23489   0.00000  Uiso   1.00
C243   C     0.89305   0.04086   0.18050   0.00000  Uiso   1.00
C244   C     0.12124   0.04264   0.13699   0.00000  Uiso   1.00
C245   C     0.14294   0.15480   0.14568   0.00000  Uiso   1.00
C246   C     0.16638   0.21225   0.07982   0.00000  Uiso   1.00
C247   C     0.18368   0.31358   0.10087   0.00000  Uiso   1.00
C248   C     0.14711   0.97560   0.20683   0.00000  Uiso   1.00
C249   C     0.17406   0.88238   0.19240   0.00000  Uiso   1.00
C250   C     0.19487   0.83285   0.26492   0.00000  Uiso   1.00
C251   C     0.06615   0.05083   0.16430   0.00000  Uiso   1.00
C252   C     0.02503   0.02083   0.11411   0.00000  Uiso   1.00
C253   C     0.97768   0.03460   0.15083   0.00000  Uiso   1.00
H254   H     0.10563   0.15334   0.35678   0.00000  Uiso   1.00
H255   H     0.14963   0.33099   0.31567   0.00000  Uiso   1.00
H256   H     0.15731   0.00117   0.42822   0.00000  Uiso   1.00
H257   H     0.00830   0.13960   0.34994   0.00000  Uiso   1.00
H258   H     0.20105   0.50931   0.23309   0.00000  Uiso   1.00
H259   H     0.21723   0.81384   0.47042   0.00000  Uiso   1.00
H260   H     0.90301   0.10575   0.30537   0.00000  Uiso   1.00
H261   H     0.12588   0.00974   0.07166   0.00000  Uiso   1.00
H262   H     0.17099   0.17953   0.01490   0.00000  Uiso   1.00
H263   H     0.17866   0.84970   0.12746   0.00000  Uiso   1.00
H264   H     0.02966   0.98813   0.04918   0.00000  Uiso   1.00
H265   H     0.21839   0.38637   0.98898   0.00000  Uiso   1.00
H266   H     0.23456   0.69089   0.22631   0.00000  Uiso   1.00
H267   H     0.92035   0.98281   0.06126   0.00000  Uiso   1.00
O268   O     0.23905   0.56210   0.07885   0.00000  Uiso   1.00
O269   O     0.26025   0.64966   0.39022   0.00000  Uiso   1.00
O270   O     0.84802   0.03265   0.17367   0.00000  Uiso   1.00
N271   N     0.19894   0.45708   0.18342   0.00000  Uiso   1.00
N272   N     0.21406   0.80687   0.40531   0.00000  Uiso   1.00
N273   N     0.92030   0.07975   0.25101   0.00000  Uiso   1.00
N274   N     0.20826   0.39093   0.05207   0.00000  Uiso   1.00
N275   N     0.22339   0.74071   0.27396   0.00000  Uiso   1.00
N276   N     0.92963   0.01360   0.11966   0.00000  Uiso   1.00
C277   C     0.61027   0.37956   0.70854   0.00000  Uiso   1.00
C278   C     0.63698   0.30294   0.77042   0.00000  Uiso   1.00
C279   C     0.65424   0.20168   0.74928   0.00000  Uiso   1.00
C280   C     0.67771   0.14409   0.81508   0.00000  Uiso   1.00
C281   C     0.71830   0.01872   0.89838   0.00000  Uiso   1.00
C282   C     0.64115   0.48214   0.70927   0.00000  Uiso   1.00
C283   C     0.66193   0.53155   0.63670   0.00000  Uiso   1.00
C284   C     0.68890   0.62482   0.65103   0.00000  Uiso   1.00
C285   C     0.73595   0.77770   0.63938   0.00000  Uiso   1.00
C286   C     0.56020   0.40691   0.75180   0.00000  Uiso   1.00
C287   C     0.51289   0.39310   0.71498   0.00000  Uiso   1.00
C288   C     0.47171   0.42306   0.76511   0.00000  Uiso   1.00
C289   C     0.39305   0.45914   0.81950   0.00000  Uiso   1.00
C290   C     0.62124   0.45736   0.86301   0.00000  Uiso   1.00
C291   C     0.64294   0.34520   0.85432   0.00000  Uiso   1.00
C292   C     0.66638   0.28775   0.92018   0.00000  Uiso   1.00
C293   C     0.68368   0.18642   0.89913   0.00000  Uiso   1.00
C294   C     0.64711   0.52440   0.79317   0.00000  Uiso   1.00
C295   C     0.67406   0.61762   0.80760   0.00000  Uiso   1.00
C296   C     0.69487   0.66715   0.73508   0.00000  Uiso   1.00
C297   C     0.56615   0.44917   0.83570   0.00000  Uiso   1.00
C298   C     0.52503   0.47917   0.88589   0.00000  Uiso   1.00
C299   C     0.47768   0.46540   0.84917   0.00000  Uiso   1.00
H300   H     0.60563   0.34666   0.64322   0.00000  Uiso   1.00
H301   H     0.64963   0.16901   0.68433   0.00000  Uiso   1.00
H302   H     0.65731   0.49883   0.57178   0.00000  Uiso   1.00
H303   H     0.50830   0.36040   0.65006   0.00000  Uiso   1.00
H304   H     0.70105   0.99069   0.76691   0.00000  Uiso   1.00
H305   H     0.71723   0.68616   0.52958   0.00000  Uiso   1.00
H306   H     0.40301   0.39425   0.69463   0.00000  Uiso   1.00
H307   H     0.62588   0.49026   0.92834   0.00000  Uiso   1.00
H308   H     0.67099   0.32047   0.98510   0.00000  Uiso   1.00
H309   H     0.67866   0.65030   0.87254   0.00000  Uiso   1.00
H310   H     0.52966   0.51187   0.95082   0.00000  Uiso   1.00
H311   H     0.71839   0.11363   0.01102   0.00000  Uiso   1.00
H312   H     0.73456   0.80911   0.77369   0.00000  Uiso   1.00
H313   H     0.42035   0.51719   0.93874   0.00000  Uiso   1.00
O314   O     0.73905   0.93790   0.92115   0.00000  Uiso   1.00
O315   O     0.76025   0.85034   0.60978   0.00000  Uiso   1.00
O316   O     0.34802   0.46735   0.82633   0.00000  Uiso   1.00
N317   N     0.69894   0.04292   0.81658   0.00000  Uiso   1.00
N318   N     0.71406   0.69313   0.59469   0.00000  Uiso   1.00
N319   N     0.42030   0.42025   0.74899   0.00000  Uiso   1.00
N320   N     0.70826   0.10907   0.94793   0.00000  Uiso   1.00
N321   N     0.72339   0.75929   0.72604   0.00000  Uiso   1.00
N322   N     0.42963   0.48640   0.88034   0.00000  Uiso   1.00
C323   C     0.88973   0.62044   0.20854   0.00000  Uiso   1.00
C324   C     0.86302   0.69706   0.27042   0.00000  Uiso   1.00
C325   C     0.84576   0.79832   0.24928   0.00000  Uiso   1.00
C326   C     0.82229   0.85591   0.31508   0.00000  Uiso   1.00
C327   C     0.78170   0.98128   0.39838   0.00000  Uiso   1.00
C328   C     0.85885   0.51786   0.20927   0.00000  Uiso   1.00
C329   C     0.83807   0.46845   0.13670   0.00000  Uiso   1.00
C330   C     0.81110   0.37518   0.15103   0.00000  Uiso   1.00
C331   C     0.76405   0.22230   0.13938   0.00000  Uiso   1.00
C332   C     0.93980   0.59309   0.25180   0.00000  Uiso   1.00
C333   C     0.98711   0.60690   0.21498   0.00000  Uiso   1.00
C334   C     0.02829   0.57694   0.26511   0.00000  Uiso   1.00
C335   C     0.10695   0.54086   0.31950   0.00000  Uiso   1.00
C336   C     0.87876   0.54264   0.36301   0.00000  Uiso   1.00
C337   C     0.85706   0.65480   0.35432   0.00000  Uiso   1.00
C338   C     0.83362   0.71225   0.42018   0.00000  Uiso   1.00
C339   C     0.81632   0.81358   0.39913   0.00000  Uiso   1.00
C340   C     0.85289   0.47560   0.29317   0.00000  Uiso   1.00
C341   C     0.82594   0.38238   0.30760   0.00000  Uiso   1.00
C342   C     0.80513   0.33285   0.23508   0.00000  Uiso   1.00
C343   C     0.93385   0.55083   0.33570   0.00000  Uiso   1.00
C344   C     0.97497   0.52083   0.38589   0.00000  Uiso   1.00
C345   C     0.02232   0.53460   0.34917   0.00000  Uiso   1.00
H346   H     0.89437   0.65334   0.14322   0.00000  Uiso   1.00
H347   H     0.85037   0.83099   0.18433   0.00000  Uiso   1.00
H348   H     0.84269   0.50117   0.07178   0.00000  Uiso   1.00
H349   H     0.99170   0.63960   0.15006   0.00000  Uiso   1.00
H350   H     0.79895   0.00931   0.26691   0.00000  Uiso   1.00
H351   H     0.78277   0.31384   0.02958   0.00000  Uiso   1.00
H352   H     0.09699   0.60575   0.19463   0.00000  Uiso   1.00
H353   H     0.87412   0.50974   0.42834   0.00000  Uiso   1.00
H354   H     0.82901   0.67953   0.48510   0.00000  Uiso   1.00
H355   H     0.82134   0.34970   0.37254   0.00000  Uiso   1.00
H356   H     0.97034   0.48813   0.45082   0.00000  Uiso   1.00
H357   H     0.78161   0.88637   0.51102   0.00000  Uiso   1.00
H358   H     0.76544   0.19089   0.27369   0.00000  Uiso   1.00
H359   H     0.07965   0.48281   0.43874   0.00000  Uiso   1.00
O360   O     0.76095   0.06210   0.42115   0.00000  Uiso   1.00
O361   O     0.73975   0.14966   0.10978   0.00000  Uiso   1.00
O362   O     0.15198   0.53265   0.32633   0.00000  Uiso   1.00
N363   N     0.80106   0.95708   0.31658   0.00000  Uiso   1.00
N364   N     0.78594   0.30687   0.09469   0.00000  Uiso   1.00
N365   N     0.07970   0.57975   0.24899   0.00000  Uiso   1.00
N366   N     0.79174   0.89093   0.44793   0.00000  Uiso   1.00
N367   N     0.77661   0.24071   0.22604   0.00000  Uiso   1.00
N368   N     0.07037   0.51360   0.38034   0.00000  Uiso   1.00
