data_job_06447
_audit_creation_date              2018-12-19
_audit_creation_method            'Materials Studio'
_symmetry_space_group_name_H-M    'P1'
_symmetry_Int_Tables_number       1
_symmetry_cell_setting            triclinic
loop_
_symmetry_equiv_pos_as_xyz
  x,y,z
_cell_length_a                    13.1317
_cell_length_b                    17.9182
_cell_length_c                    18.5243
_cell_angle_alpha                 114.3190
_cell_angle_beta                  74.9812
_cell_angle_gamma                 79.5115
loop_
_atom_site_label
_atom_site_type_symbol
_atom_site_fract_x
_atom_site_fract_y
_atom_site_fract_z
_atom_site_U_iso_or_equiv
_atom_site_adp_type
_atom_site_occupancy
C1     C     0.44553   0.16647   0.72337   0.00000  Uiso   1.00
C2     C     0.55352   0.14455   0.73810   0.00000  Uiso   1.00
C3     C     0.57114   0.10710   0.78805   0.00000  Uiso   1.00
C4     C     0.67576   0.09222   0.79342   0.00000  Uiso   1.00
C5     C     0.83066   0.05490   0.82287   0.00000  Uiso   1.00
C6     C     0.41210   0.26297   0.75077   0.00000  Uiso   1.00
C7     C     0.31082   0.32509   0.81137   0.00000  Uiso   1.00
C8     C     0.29639   0.40990   0.82739   0.00000  Uiso   1.00
C9     C     0.23170   0.55642   0.87648   0.00000  Uiso   1.00
C10    C     0.47682   0.11943   0.62691   0.00000  Uiso   1.00
C11    C     0.42994   0.06087   0.58336   0.00000  Uiso   1.00
C12    C     0.46999   0.02484   0.49510   0.00000  Uiso   1.00
C13    C     0.50578   0.94849   0.35187   0.00000  Uiso   1.00
C14    C     0.59999   0.20663   0.64406   0.00000  Uiso   1.00
C15    C     0.63741   0.16636   0.69502   0.00000  Uiso   1.00
C16    C     0.74203   0.15153   0.70031   0.00000  Uiso   1.00
C17    C     0.75981   0.11407   0.75026   0.00000  Uiso   1.00
C18    C     0.49599   0.28478   0.70769   0.00000  Uiso   1.00
C19    C     0.48171   0.36952   0.72363   0.00000  Uiso   1.00
C20    C     0.38043   0.43175   0.78424   0.00000  Uiso   1.00
C21    C     0.56072   0.14123   0.58383   0.00000  Uiso   1.00
C22    C     0.60084   0.10530   0.49562   0.00000  Uiso   1.00
C23    C     0.55403   0.04669   0.45195   0.00000  Uiso   1.00
H24    H     0.38021   0.14949   0.75691   0.00000  Uiso   1.00
H25    H     0.50619   0.09024   0.82138   0.00000  Uiso   1.00
H26    H     0.24591   0.30819   0.84469   0.00000  Uiso   1.00
H27    H     0.36502   0.04400   0.61672   0.00000  Uiso   1.00
H28    H     0.68285   0.03419   0.87389   0.00000  Uiso   1.00
H29    H     0.13401   0.49374   0.92302   0.00000  Uiso   1.00
H30    H     0.38517   0.93666   0.44229   0.00000  Uiso   1.00
H31    H     0.66531   0.22361   0.61053   0.00000  Uiso   1.00
H32    H     0.80694   0.16842   0.66697   0.00000  Uiso   1.00
H33    H     0.54665   0.38637   0.69028   0.00000  Uiso   1.00
H34    H     0.66576   0.12219   0.46230   0.00000  Uiso   1.00
H35    H     0.92694   0.09765   0.74857   0.00000  Uiso   1.00
H36    H     0.37810   0.55721   0.79769   0.00000  Uiso   1.00
H37    H     0.62927   0.00012   0.31696   0.00000  Uiso   1.00
O38    O     0.89291   0.02830   0.85102   0.00000  Uiso   1.00
O39    O     0.17284   0.63121   0.91546   0.00000  Uiso   1.00
O40    O     0.50237   0.90034   0.28476   0.00000  Uiso   1.00
N41    N     0.72087   0.05668   0.83664   0.00000  Uiso   1.00
N42    N     0.20774   0.48634   0.88258   0.00000  Uiso   1.00
N43    N     0.44254   0.96554   0.43314   0.00000  Uiso   1.00
N44    N     0.85221   0.09083   0.76920   0.00000  Uiso   1.00
N45    N     0.33908   0.52049   0.81514   0.00000  Uiso   1.00
N46    N     0.57388   0.99968   0.36570   0.00000  Uiso   1.00
C47    C     0.16584   0.27279   0.44600   0.00000  Uiso   1.00
C48    C     0.28875   0.26214   0.40799   0.00000  Uiso   1.00
C49    C     0.35679   0.21361   0.32213   0.00000  Uiso   1.00
C50    C     0.46689   0.21204   0.30024   0.00000  Uiso   1.00
C51    C     0.65160   0.18855   0.23182   0.00000  Uiso   1.00
C52    C     0.15617   0.24335   0.51316   0.00000  Uiso   1.00
C53    C     0.11271   0.17904   0.51572   0.00000  Uiso   1.00
C54    C     0.11120   0.16167   0.58238   0.00000  Uiso   1.00
C55    C     0.08999   0.10907   0.67728   0.00000  Uiso   1.00
C56    C     0.10368   0.37011   0.49484   0.00000  Uiso   1.00
C57    C     0.01608   0.41239   0.48202   0.00000  Uiso   1.00
C58    C     0.97036   0.50174   0.53327   0.00000  Uiso   1.00
C59    C     0.86766   0.64596   0.59973   0.00000  Uiso   1.00
C60    C     0.24039   0.35631   0.55982   0.00000  Uiso   1.00
C61    C     0.32924   0.30750   0.46982   0.00000  Uiso   1.00
C62    C     0.43927   0.30600   0.44806   0.00000  Uiso   1.00
C63    C     0.50746   0.25748   0.36217   0.00000  Uiso   1.00
C64    C     0.19666   0.28871   0.57499   0.00000  Uiso   1.00
C65    C     0.19519   0.27144   0.64166   0.00000  Uiso   1.00
C66    C     0.15176   0.20711   0.64431   0.00000  Uiso   1.00
C67    C     0.14418   0.41548   0.55667   0.00000  Uiso   1.00
C68    C     0.09857   0.50478   0.60795   0.00000  Uiso   1.00
C69    C     0.01092   0.54718   0.59521   0.00000  Uiso   1.00
H70    H     0.13431   0.23748   0.39787   0.00000  Uiso   1.00
H71    H     0.32542   0.17851   0.27430   0.00000  Uiso   1.00
H72    H     0.08137   0.14396   0.46788   0.00000  Uiso   1.00
H73    H     0.98477   0.37726   0.43418   0.00000  Uiso   1.00
H74    H     0.55517   0.13311   0.16457   0.00000  Uiso   1.00
H75    H     0.04055   0.06027   0.57275   0.00000  Uiso   1.00
H76    H     0.83683   0.55225   0.50169   0.00000  Uiso   1.00
H77    H     0.27191   0.39162   0.60796   0.00000  Uiso   1.00
H78    H     0.47058   0.34111   0.49591   0.00000  Uiso   1.00
H79    H     0.22653   0.30656   0.68949   0.00000  Uiso   1.00
H80    H     0.12992   0.53986   0.65579   0.00000  Uiso   1.00
H81    H     0.67299   0.26508   0.34444   0.00000  Uiso   1.00
H82    H     0.15836   0.19225   0.75262   0.00000  Uiso   1.00
H83    H     0.95465   0.68422   0.68156   0.00000  Uiso   1.00
O84    O     0.74230   0.16306   0.17701   0.00000  Uiso   1.00
O85    O     0.06712   0.06752   0.71253   0.00000  Uiso   1.00
O86    O     0.79984   0.71297   0.61930   0.00000  Uiso   1.00
N87    N     0.55563   0.17111   0.22228   0.00000  Uiso   1.00
N88    N     0.07451   0.10301   0.60389   0.00000  Uiso   1.00
N89    N     0.88402   0.56296   0.53747   0.00000  Uiso   1.00
N90    N     0.61903   0.24213   0.31906   0.00000  Uiso   1.00
N91    N     0.13790   0.17402   0.70068   0.00000  Uiso   1.00
N92    N     0.94742   0.63397   0.63426   0.00000  Uiso   1.00
C93    C     0.61758   0.55457   0.82980   0.00000  Uiso   1.00
C94    C     0.70308   0.59661   0.85436   0.00000  Uiso   1.00
C95    C     0.68805   0.68469   0.89056   0.00000  Uiso   1.00
C96    C     0.77633   0.71020   0.90831   0.00000  Uiso   1.00
C97    C     0.89395   0.78467   0.94912   0.00000  Uiso   1.00
C98    C     0.67507   0.48794   0.73529   0.00000  Uiso   1.00
C99    C     0.63647   0.48465   0.67139   0.00000  Uiso   1.00
C100   C     0.70117   0.41867   0.58891   0.00000  Uiso   1.00
C101   C     0.77526   0.32440   0.44488   0.00000  Uiso   1.00
C102   C     0.60036   0.50286   0.87722   0.00000  Uiso   1.00
C103   C     0.49895   0.51209   0.93263   0.00000  Uiso   1.00
C104   C     0.50074   0.45865   0.96963   0.00000  Uiso   1.00
C105   C     0.45883   0.38753   0.04596   0.00000  Uiso   1.00
C106   C     0.80110   0.44323   0.79695   0.00000  Uiso   1.00
C107   C     0.80276   0.53613   0.83651   0.00000  Uiso   1.00
C108   C     0.89109   0.56151   0.85422   0.00000  Uiso   1.00
C109   C     0.87619   0.64962   0.89044   0.00000  Uiso   1.00
C110   C     0.77475   0.42747   0.71745   0.00000  Uiso   1.00
C111   C     0.83952   0.36147   0.63505   0.00000  Uiso   1.00
C112   C     0.80103   0.35809   0.57103   0.00000  Uiso   1.00
C113   C     0.70004   0.44238   0.85938   0.00000  Uiso   1.00
C114   C     0.70199   0.38891   0.89629   0.00000  Uiso   1.00
C115   C     0.60060   0.39806   0.95175   0.00000  Uiso   1.00
H116   H     0.53998   0.60165   0.84368   0.00000  Uiso   1.00
H117   H     0.61090   0.73147   0.90435   0.00000  Uiso   1.00
H118   H     0.55933   0.53146   0.68521   0.00000  Uiso   1.00
H119   H     0.42183   0.55890   0.94642   0.00000  Uiso   1.00
H120   H     0.73350   0.84874   0.96371   0.00000  Uiso   1.00
H121   H     0.62474   0.42697   0.50166   0.00000  Uiso   1.00
H122   H     0.33479   0.48483   0.05246   0.00000  Uiso   1.00
H123   H     0.87871   0.39615   0.78306   0.00000  Uiso   1.00
H124   H     0.96822   0.51470   0.84040   0.00000  Uiso   1.00
H125   H     0.91665   0.31468   0.62126   0.00000  Uiso   1.00
H126   H     0.77914   0.34212   0.88247   0.00000  Uiso   1.00
H127   H     0.02352   0.67279   0.91180   0.00000  Uiso   1.00
H128   H     0.91475   0.25103   0.44975   0.00000  Uiso   1.00
H129   H     0.62480   0.30889   0.00056   0.00000  Uiso   1.00
O130   O     0.93130   0.84246   0.97655   0.00000  Uiso   1.00
O131   O     0.78859   0.28911   0.37036   0.00000  Uiso   1.00
O132   O     0.40818   0.36502   0.09300   0.00000  Uiso   1.00
N133   N     0.78947   0.79106   0.94364   0.00000  Uiso   1.00
N134   N     0.68779   0.39674   0.51165   0.00000  Uiso   1.00
N135   N     0.41670   0.45082   0.02659   0.00000  Uiso   1.00
N136   N     0.94552   0.69639   0.91571   0.00000  Uiso   1.00
N137   N     0.84384   0.30207   0.48372   0.00000  Uiso   1.00
N138   N     0.57276   0.35615   0.99866   0.00000  Uiso   1.00
C139   C     0.66777   0.44398   0.27621   0.00000  Uiso   1.00
C140   C     0.78970   0.40808   0.26273   0.00000  Uiso   1.00
C141   C     0.85627   0.32161   0.21372   0.00000  Uiso   1.00
C142   C     0.96567   0.30194   0.20942   0.00000  Uiso   1.00
C143   C     0.14875   0.23639   0.18188   0.00000  Uiso   1.00
C144   C     0.66191   0.51286   0.24786   0.00000  Uiso   1.00
C145   C     0.62101   0.51449   0.18635   0.00000  Uiso   1.00
C146   C     0.62282   0.58303   0.16954   0.00000  Uiso   1.00
C147   C     0.60742   0.68018   0.11896   0.00000  Uiso   1.00
C148   C     0.60372   0.49243   0.37253   0.00000  Uiso   1.00
C149   C     0.51387   0.47691   0.41586   0.00000  Uiso   1.00
C150   C     0.46668   0.52827   0.50402   0.00000  Uiso   1.00
C151   C     0.36093   0.59371   0.64701   0.00000  Uiso   1.00
C152   C     0.74368   0.56281   0.35573   0.00000  Uiso   1.00
C153   C     0.83093   0.47263   0.30592   0.00000  Uiso   1.00
C154   C     0.94026   0.45308   0.30169   0.00000  Uiso   1.00
C155   C     0.00698   0.36660   0.25268   0.00000  Uiso   1.00
C156   C     0.70314   0.57740   0.29104   0.00000  Uiso   1.00
C157   C     0.70500   0.64596   0.27432   0.00000  Uiso   1.00
C158   C     0.66413   0.64770   0.21281   0.00000  Uiso   1.00
C159   C     0.64495   0.55698   0.41572   0.00000  Uiso   1.00
C160   C     0.59788   0.60838   0.50383   0.00000  Uiso   1.00
C161   C     0.50799   0.59293   0.54728   0.00000  Uiso   1.00
H162   H     0.63566   0.39373   0.24259   0.00000  Uiso   1.00
H163   H     0.82433   0.27168   0.18030   0.00000  Uiso   1.00
H164   H     0.58909   0.46454   0.15295   0.00000  Uiso   1.00
H165   H     0.48199   0.42696   0.38242   0.00000  Uiso   1.00
H166   H     0.05170   0.16483   0.13027   0.00000  Uiso   1.00
H167   H     0.55566   0.57150   0.07261   0.00000  Uiso   1.00
H168   H     0.32980   0.49225   0.55649   0.00000  Uiso   1.00
H169   H     0.77579   0.61306   0.38935   0.00000  Uiso   1.00
H170   H     0.97215   0.50305   0.33512   0.00000  Uiso   1.00
H171   H     0.73692   0.69590   0.30776   0.00000  Uiso   1.00
H172   H     0.62981   0.65832   0.53723   0.00000  Uiso   1.00
H173   H     0.17168   0.35262   0.25591   0.00000  Uiso   1.00
H174   H     0.67563   0.75928   0.19826   0.00000  Uiso   1.00
H175   H     0.44978   0.68004   0.68214   0.00000  Uiso   1.00
O176   O     0.23834   0.18240   0.15474   0.00000  Uiso   1.00
O177   O     0.58754   0.71593   0.07912   0.00000  Uiso   1.00
O178   O     0.29122   0.61196   0.71395   0.00000  Uiso   1.00
N179   N     0.05298   0.22413   0.16730   0.00000  Uiso   1.00
N180   N     0.58923   0.60432   0.11338   0.00000  Uiso   1.00
N181   N     0.37805   0.53025   0.56577   0.00000  Uiso   1.00
N182   N     0.11754   0.32517   0.23491   0.00000  Uiso   1.00
N183   N     0.65379   0.70537   0.18099   0.00000  Uiso   1.00
N184   N     0.44261   0.63130   0.63338   0.00000  Uiso   1.00
C185   C     0.11243   0.82638   0.55446   0.00000  Uiso   1.00
C186   C     0.19736   0.85376   0.59326   0.00000  Uiso   1.00
C187   C     0.18034   0.89044   0.67939   0.00000  Uiso   1.00
C188   C     0.26843   0.91092   0.70202   0.00000  Uiso   1.00
C189   C     0.38490   0.95579   0.77160   0.00000  Uiso   1.00
C190   C     0.16880   0.73079   0.48809   0.00000  Uiso   1.00
C191   C     0.12774   0.66407   0.48580   0.00000  Uiso   1.00
C192   C     0.19178   0.58104   0.41989   0.00000  Uiso   1.00
C193   C     0.26386   0.43499   0.32616   0.00000  Uiso   1.00
C194   C     0.09909   0.87480   0.50460   0.00000  Uiso   1.00
C195   C     0.99942   0.92916   0.51617   0.00000  Uiso   1.00
C196   C     0.00477   0.96735   0.46414   0.00000  Uiso   1.00
C197   C     0.96862   0.04491   0.39604   0.00000  Uiso   1.00
C198   C     0.29915   0.79753   0.44147   0.00000  Uiso   1.00
C199   C     0.29878   0.83809   0.53188   0.00000  Uiso   1.00
C200   C     0.38692   0.85853   0.55438   0.00000  Uiso   1.00
C201   C     0.37002   0.89523   0.64054   0.00000  Uiso   1.00
C202   C     0.27021   0.71512   0.42672   0.00000  Uiso   1.00
C203   C     0.33432   0.63216   0.36079   0.00000  Uiso   1.00
C204   C     0.29338   0.56534   0.35841   0.00000  Uiso   1.00
C205   C     0.20051   0.85913   0.44323   0.00000  Uiso   1.00
C206   C     0.20601   0.89725   0.39116   0.00000  Uiso   1.00
C207   C     0.10637   0.95165   0.40266   0.00000  Uiso   1.00
H208   H     0.03348   0.83857   0.60223   0.00000  Uiso   1.00
H209   H     0.10184   0.90255   0.72687   0.00000  Uiso   1.00
H210   H     0.04925   0.67622   0.53330   0.00000  Uiso   1.00
H211   H     0.92096   0.94127   0.56367   0.00000  Uiso   1.00
H212   H     0.22238   0.96655   0.83798   0.00000  Uiso   1.00
H213   H     0.11147   0.48932   0.42981   0.00000  Uiso   1.00
H214   H     0.84093   0.04822   0.49385   0.00000  Uiso   1.00
H215   H     0.37811   0.78533   0.39368   0.00000  Uiso   1.00
H216   H     0.46539   0.84640   0.50688   0.00000  Uiso   1.00
H217   H     0.41279   0.62006   0.31331   0.00000  Uiso   1.00
H218   H     0.28450   0.88511   0.34368   0.00000  Uiso   1.00
H219   H     0.51745   0.92097   0.65943   0.00000  Uiso   1.00
H220   H     0.40653   0.44374   0.25126   0.00000  Uiso   1.00
H221   H     0.13600   0.00264   0.31530   0.00000  Uiso   1.00
O222   O     0.42113   0.98486   0.82692   0.00000  Uiso   1.00
O223   O     0.27560   0.35876   0.29142   0.00000  Uiso   1.00
O224   O     0.92067   0.09203   0.37544   0.00000  Uiso   1.00
N225   N     0.27984   0.94746   0.78042   0.00000  Uiso   1.00
N226   N     0.17615   0.50127   0.39882   0.00000  Uiso   1.00
N227   N     0.92322   0.02378   0.45868   0.00000  Uiso   1.00
N228   N     0.43862   0.92293   0.68435   0.00000  Uiso   1.00
N229   N     0.33493   0.47675   0.30274   0.00000  Uiso   1.00
N230   N     0.08199   0.99925   0.36260   0.00000  Uiso   1.00
C231   C     0.94876   0.72348   0.16849   0.00000  Uiso   1.00
C232   C     0.05829   0.74145   0.14446   0.00000  Uiso   1.00
C233   C     0.07938   0.79335   0.10762   0.00000  Uiso   1.00
C234   C     0.18489   0.80160   0.09052   0.00000  Uiso   1.00
C235   C     0.34256   0.83595   0.05034   0.00000  Uiso   1.00
C236   C     0.91264   0.75062   0.26328   0.00000  Uiso   1.00
C237   C     0.81126   0.81022   0.32632   0.00000  Uiso   1.00
C238   C     0.79416   0.82617   0.40924   0.00000  Uiso   1.00
C239   C     0.72567   0.87471   0.55351   0.00000  Uiso   1.00
C240   C     0.97806   0.62517   0.12184   0.00000  Uiso   1.00
C241   C     0.93167   0.57928   0.06598   0.00000  Uiso   1.00
C242   C     0.96963   0.48961   0.02984   0.00000  Uiso   1.00
C243   C     0.00273   0.34336   0.95451   0.00000  Uiso   1.00
C244   C     0.09865   0.64583   0.20364   0.00000  Uiso   1.00
C245   C     0.13970   0.69927   0.16356   0.00000  Uiso   1.00
C246   C     0.24521   0.70744   0.14651   0.00000  Uiso   1.00
C247   C     0.26646   0.75934   0.10964   0.00000  Uiso   1.00
C248   C     0.99405   0.70844   0.28237   0.00000  Uiso   1.00
C249   C     0.97709   0.72431   0.36521   0.00000  Uiso   1.00
C250   C     0.87572   0.78392   0.42837   0.00000  Uiso   1.00
C251   C     0.05948   0.58298   0.14093   0.00000  Uiso   1.00
C252   C     0.09751   0.49337   0.10487   0.00000  Uiso   1.00
C253   C     0.05119   0.44735   0.04896   0.00000  Uiso   1.00
H254   H     0.88537   0.75632   0.15363   0.00000  Uiso   1.00
H255   H     0.01634   0.82599   0.09286   0.00000  Uiso   1.00
H256   H     0.74827   0.84285   0.31153   0.00000  Uiso   1.00
H257   H     0.86867   0.61194   0.05122   0.00000  Uiso   1.00
H258   H     0.19745   0.88465   0.03393   0.00000  Uiso   1.00
H259   H     0.63217   0.92018   0.49500   0.00000  Uiso   1.00
H260   H     0.88606   0.43327   0.94610   0.00000  Uiso   1.00
H261   H     0.16203   0.61299   0.21851   0.00000  Uiso   1.00
H262   H     0.30820   0.67479   0.16129   0.00000  Uiso   1.00
H263   H     0.04011   0.69165   0.37996   0.00000  Uiso   1.00
H264   H     0.16052   0.46075   0.11966   0.00000  Uiso   1.00
H265   H     0.43433   0.76194   0.08947   0.00000  Uiso   1.00
H266   H     0.86904   0.79746   0.55055   0.00000  Uiso   1.00
H267   H     0.12293   0.31055   0.00164   0.00000  Uiso   1.00
O268   O     0.40703   0.86656   0.02291   0.00000  Uiso   1.00
O269   O     0.66541   0.91315   0.62782   0.00000  Uiso   1.00
O270   O     0.99850   0.27435   0.90767   0.00000  Uiso   1.00
N271   N     0.23315   0.84728   0.05483   0.00000  Uiso   1.00
N272   N     0.70465   0.88050   0.48591   0.00000  Uiso   1.00
N273   N     0.94199   0.42528   0.97275   0.00000  Uiso   1.00
N274   N     0.36061   0.78124   0.08472   0.00000  Uiso   1.00
N275   N     0.83212   0.81447   0.51580   0.00000  Uiso   1.00
N276   N     0.06945   0.35925   0.00264   0.00000  Uiso   1.00
