data_job_05249
_audit_creation_date              2018-12-19
_audit_creation_method            'Materials Studio'
_symmetry_space_group_name_H-M    'P1'
_symmetry_Int_Tables_number       1
_symmetry_cell_setting            triclinic
loop_
_symmetry_equiv_pos_as_xyz
  x,y,z
_cell_length_a                    32.8119
_cell_length_b                    10.0210
_cell_length_c                    8.2124
_cell_angle_alpha                 90.0000
_cell_angle_beta                  90.0000
_cell_angle_gamma                 90.0000
loop_
_atom_site_label
_atom_site_type_symbol
_atom_site_fract_x
_atom_site_fract_y
_atom_site_fract_z
_atom_site_U_iso_or_equiv
_atom_site_adp_type
_atom_site_occupancy
C1     C     0.41947   0.11440   0.00796   0.00000  Uiso   1.00
C2     C     0.38389   0.20389   0.95952   0.00000  Uiso   1.00
C3     C     0.37293   0.23724   0.80147   0.00000  Uiso   1.00
C4     C     0.33942   0.32042   0.78268   0.00000  Uiso   1.00
C5     C     0.28747   0.45203   0.68700   0.00000  Uiso   1.00
C6     C     0.40126   0.00284   0.11119   0.00000  Uiso   1.00
C7     C     0.40491   0.86715   0.08067   0.00000  Uiso   1.00
C8     C     0.38602   0.78109   0.18958   0.00000  Uiso   1.00
C9     C     0.36106   0.60056   0.32943   0.00000  Uiso   1.00
C10    C     0.44583   0.19704   0.12291   0.00000  Uiso   1.00
C11    C     0.48696   0.22460   0.10228   0.00000  Uiso   1.00
C12    C     0.50560   0.30201   0.22108   0.00000  Uiso   1.00
C13    C     0.54985   0.42300   0.37913   0.00000  Uiso   1.00
C14    C     0.37945   0.20282   0.25566   0.00000  Uiso   1.00
C15    C     0.36216   0.25192   0.09407   0.00000  Uiso   1.00
C16    C     0.32866   0.33508   0.07552   0.00000  Uiso   1.00
C17    C     0.31765   0.36854   0.91746   0.00000  Uiso   1.00
C18    C     0.37953   0.05087   0.24573   0.00000  Uiso   1.00
C19    C     0.36063   0.96499   0.35472   0.00000  Uiso   1.00
C20    C     0.36425   0.82920   0.32436   0.00000  Uiso   1.00
C21    C     0.42410   0.24507   0.25746   0.00000  Uiso   1.00
C22    C     0.44268   0.32244   0.37632   0.00000  Uiso   1.00
C23    C     0.48383   0.35012   0.35586   0.00000  Uiso   1.00
H24    H     0.43639   0.07699   0.90322   0.00000  Uiso   1.00
H25    H     0.38976   0.20004   0.69738   0.00000  Uiso   1.00
H26    H     0.42174   0.83001   0.97655   0.00000  Uiso   1.00
H27    H     0.50377   0.18741   0.99815   0.00000  Uiso   1.00
H28    H     0.32846   0.35760   0.52850   0.00000  Uiso   1.00
H29    H     0.39590   0.57738   0.11717   0.00000  Uiso   1.00
H30    H     0.56889   0.33102   0.16272   0.00000  Uiso   1.00
H31    H     0.36253   0.24021   0.36042   0.00000  Uiso   1.00
H32    H     0.31184   0.37223   0.17966   0.00000  Uiso   1.00
H33    H     0.34382   0.00219   0.45882   0.00000  Uiso   1.00
H34    H     0.42585   0.35959   0.48042   0.00000  Uiso   1.00
H35    H     0.26522   0.49735   0.91993   0.00000  Uiso   1.00
H36    H     0.33265   0.71712   0.50861   0.00000  Uiso   1.00
H37    H     0.50564   0.47077   0.55415   0.00000  Uiso   1.00
O38    O     0.26482   0.51133   0.59706   0.00000  Uiso   1.00
O39    O     0.35330   0.48771   0.36939   0.00000  Uiso   1.00
O40    O     0.58025   0.47648   0.42913   0.00000  Uiso   1.00
N41    N     0.32054   0.37240   0.64543   0.00000  Uiso   1.00
N42    N     0.38358   0.64293   0.19579   0.00000  Uiso   1.00
N43    N     0.54531   0.34750   0.23839   0.00000  Uiso   1.00
N44    N     0.28651   0.44759   0.85606   0.00000  Uiso   1.00
N45    N     0.34955   0.71813   0.40642   0.00000  Uiso   1.00
N46    N     0.51128   0.42269   0.44902   0.00000  Uiso   1.00
C47    C     0.58053   0.88560   0.50796   0.00000  Uiso   1.00
C48    C     0.61611   0.79611   0.45952   0.00000  Uiso   1.00
C49    C     0.62707   0.76276   0.30147   0.00000  Uiso   1.00
C50    C     0.66058   0.67958   0.28268   0.00000  Uiso   1.00
C51    C     0.71253   0.54797   0.18700   0.00000  Uiso   1.00
C52    C     0.59874   0.99716   0.61119   0.00000  Uiso   1.00
C53    C     0.59509   0.13285   0.58067   0.00000  Uiso   1.00
C54    C     0.61398   0.21891   0.68958   0.00000  Uiso   1.00
C55    C     0.63894   0.39944   0.82943   0.00000  Uiso   1.00
C56    C     0.55417   0.80296   0.62291   0.00000  Uiso   1.00
C57    C     0.51304   0.77540   0.60228   0.00000  Uiso   1.00
C58    C     0.49440   0.69799   0.72108   0.00000  Uiso   1.00
C59    C     0.45015   0.57700   0.87913   0.00000  Uiso   1.00
C60    C     0.62055   0.79718   0.75566   0.00000  Uiso   1.00
C61    C     0.63784   0.74808   0.59407   0.00000  Uiso   1.00
C62    C     0.67134   0.66492   0.57552   0.00000  Uiso   1.00
C63    C     0.68235   0.63146   0.41746   0.00000  Uiso   1.00
C64    C     0.62047   0.94913   0.74573   0.00000  Uiso   1.00
C65    C     0.63937   0.03501   0.85472   0.00000  Uiso   1.00
C66    C     0.63575   0.17080   0.82436   0.00000  Uiso   1.00
C67    C     0.57590   0.75493   0.75746   0.00000  Uiso   1.00
C68    C     0.55732   0.67756   0.87632   0.00000  Uiso   1.00
C69    C     0.51617   0.64988   0.85586   0.00000  Uiso   1.00
H70    H     0.56361   0.92301   0.40322   0.00000  Uiso   1.00
H71    H     0.61024   0.79996   0.19738   0.00000  Uiso   1.00
H72    H     0.57826   0.16999   0.47655   0.00000  Uiso   1.00
H73    H     0.49623   0.81259   0.49815   0.00000  Uiso   1.00
H74    H     0.67154   0.64240   0.02850   0.00000  Uiso   1.00
H75    H     0.60410   0.42262   0.61717   0.00000  Uiso   1.00
H76    H     0.43111   0.66898   0.66272   0.00000  Uiso   1.00
H77    H     0.63747   0.75979   0.86042   0.00000  Uiso   1.00
H78    H     0.68816   0.62777   0.67966   0.00000  Uiso   1.00
H79    H     0.65618   0.99781   0.95882   0.00000  Uiso   1.00
H80    H     0.57415   0.64041   0.98042   0.00000  Uiso   1.00
H81    H     0.73478   0.50265   0.41993   0.00000  Uiso   1.00
H82    H     0.66735   0.28288   0.00861   0.00000  Uiso   1.00
H83    H     0.49436   0.52923   0.05415   0.00000  Uiso   1.00
O84    O     0.73518   0.48867   0.09706   0.00000  Uiso   1.00
O85    O     0.64670   0.51229   0.86939   0.00000  Uiso   1.00
O86    O     0.41975   0.52352   0.92913   0.00000  Uiso   1.00
N87    N     0.67946   0.62760   0.14543   0.00000  Uiso   1.00
N88    N     0.61642   0.35707   0.69579   0.00000  Uiso   1.00
N89    N     0.45469   0.65250   0.73839   0.00000  Uiso   1.00
N90    N     0.71349   0.55241   0.35606   0.00000  Uiso   1.00
N91    N     0.65045   0.28187   0.90642   0.00000  Uiso   1.00
N92    N     0.48872   0.57731   0.94902   0.00000  Uiso   1.00
C93    C     0.91947   0.88560   0.00796   0.00000  Uiso   1.00
C94    C     0.88389   0.79611   0.95952   0.00000  Uiso   1.00
C95    C     0.87293   0.76276   0.80147   0.00000  Uiso   1.00
C96    C     0.83942   0.67958   0.78268   0.00000  Uiso   1.00
C97    C     0.78747   0.54797   0.68700   0.00000  Uiso   1.00
C98    C     0.90126   0.99716   0.11119   0.00000  Uiso   1.00
C99    C     0.90491   0.13285   0.08067   0.00000  Uiso   1.00
C100   C     0.88602   0.21891   0.18958   0.00000  Uiso   1.00
C101   C     0.86106   0.39944   0.32943   0.00000  Uiso   1.00
C102   C     0.94583   0.80296   0.12291   0.00000  Uiso   1.00
C103   C     0.98696   0.77540   0.10228   0.00000  Uiso   1.00
C104   C     0.00560   0.69799   0.22108   0.00000  Uiso   1.00
C105   C     0.04985   0.57700   0.37913   0.00000  Uiso   1.00
C106   C     0.87945   0.79718   0.25566   0.00000  Uiso   1.00
C107   C     0.86216   0.74808   0.09407   0.00000  Uiso   1.00
C108   C     0.82866   0.66492   0.07552   0.00000  Uiso   1.00
C109   C     0.81765   0.63146   0.91746   0.00000  Uiso   1.00
C110   C     0.87953   0.94913   0.24573   0.00000  Uiso   1.00
C111   C     0.86063   0.03501   0.35472   0.00000  Uiso   1.00
C112   C     0.86425   0.17080   0.32436   0.00000  Uiso   1.00
C113   C     0.92410   0.75493   0.25746   0.00000  Uiso   1.00
C114   C     0.94268   0.67756   0.37632   0.00000  Uiso   1.00
C115   C     0.98383   0.64988   0.35586   0.00000  Uiso   1.00
H116   H     0.93639   0.92301   0.90322   0.00000  Uiso   1.00
H117   H     0.88976   0.79996   0.69738   0.00000  Uiso   1.00
H118   H     0.92174   0.16999   0.97655   0.00000  Uiso   1.00
H119   H     0.00377   0.81259   0.99815   0.00000  Uiso   1.00
H120   H     0.82846   0.64240   0.52850   0.00000  Uiso   1.00
H121   H     0.89590   0.42262   0.11717   0.00000  Uiso   1.00
H122   H     0.06889   0.66898   0.16272   0.00000  Uiso   1.00
H123   H     0.86253   0.75979   0.36042   0.00000  Uiso   1.00
H124   H     0.81184   0.62777   0.17966   0.00000  Uiso   1.00
H125   H     0.84382   0.99781   0.45882   0.00000  Uiso   1.00
H126   H     0.92585   0.64041   0.48042   0.00000  Uiso   1.00
H127   H     0.76522   0.50265   0.91993   0.00000  Uiso   1.00
H128   H     0.83265   0.28288   0.50861   0.00000  Uiso   1.00
H129   H     0.00564   0.52923   0.55415   0.00000  Uiso   1.00
O130   O     0.76482   0.48867   0.59706   0.00000  Uiso   1.00
O131   O     0.85330   0.51229   0.36939   0.00000  Uiso   1.00
O132   O     0.08025   0.52352   0.42913   0.00000  Uiso   1.00
N133   N     0.82054   0.62760   0.64543   0.00000  Uiso   1.00
N134   N     0.88358   0.35707   0.19579   0.00000  Uiso   1.00
N135   N     0.04531   0.65250   0.23839   0.00000  Uiso   1.00
N136   N     0.78651   0.55241   0.85606   0.00000  Uiso   1.00
N137   N     0.84955   0.28187   0.40642   0.00000  Uiso   1.00
N138   N     0.01128   0.57731   0.44902   0.00000  Uiso   1.00
C139   C     0.08053   0.11440   0.50796   0.00000  Uiso   1.00
C140   C     0.11611   0.20389   0.45952   0.00000  Uiso   1.00
C141   C     0.12707   0.23724   0.30147   0.00000  Uiso   1.00
C142   C     0.16058   0.32042   0.28268   0.00000  Uiso   1.00
C143   C     0.21253   0.45203   0.18700   0.00000  Uiso   1.00
C144   C     0.09874   0.00284   0.61119   0.00000  Uiso   1.00
C145   C     0.09509   0.86715   0.58067   0.00000  Uiso   1.00
C146   C     0.11398   0.78109   0.68958   0.00000  Uiso   1.00
C147   C     0.13894   0.60056   0.82943   0.00000  Uiso   1.00
C148   C     0.05417   0.19704   0.62291   0.00000  Uiso   1.00
C149   C     0.01304   0.22460   0.60228   0.00000  Uiso   1.00
C150   C     0.99440   0.30201   0.72108   0.00000  Uiso   1.00
C151   C     0.95015   0.42300   0.87913   0.00000  Uiso   1.00
C152   C     0.12055   0.20282   0.75566   0.00000  Uiso   1.00
C153   C     0.13784   0.25192   0.59407   0.00000  Uiso   1.00
C154   C     0.17134   0.33508   0.57552   0.00000  Uiso   1.00
C155   C     0.18235   0.36854   0.41746   0.00000  Uiso   1.00
C156   C     0.12047   0.05087   0.74573   0.00000  Uiso   1.00
C157   C     0.13937   0.96499   0.85472   0.00000  Uiso   1.00
C158   C     0.13575   0.82920   0.82436   0.00000  Uiso   1.00
C159   C     0.07590   0.24507   0.75746   0.00000  Uiso   1.00
C160   C     0.05732   0.32244   0.87632   0.00000  Uiso   1.00
C161   C     0.01617   0.35012   0.85586   0.00000  Uiso   1.00
H162   H     0.06361   0.07699   0.40322   0.00000  Uiso   1.00
H163   H     0.11024   0.20004   0.19738   0.00000  Uiso   1.00
H164   H     0.07826   0.83001   0.47655   0.00000  Uiso   1.00
H165   H     0.99623   0.18741   0.49815   0.00000  Uiso   1.00
H166   H     0.17154   0.35760   0.02850   0.00000  Uiso   1.00
H167   H     0.10410   0.57738   0.61717   0.00000  Uiso   1.00
H168   H     0.93111   0.33102   0.66272   0.00000  Uiso   1.00
H169   H     0.13747   0.24021   0.86042   0.00000  Uiso   1.00
H170   H     0.18816   0.37223   0.67966   0.00000  Uiso   1.00
H171   H     0.15618   0.00219   0.95882   0.00000  Uiso   1.00
H172   H     0.07415   0.35959   0.98042   0.00000  Uiso   1.00
H173   H     0.23478   0.49735   0.41993   0.00000  Uiso   1.00
H174   H     0.16735   0.71712   0.00861   0.00000  Uiso   1.00
H175   H     0.99436   0.47077   0.05415   0.00000  Uiso   1.00
O176   O     0.23518   0.51133   0.09706   0.00000  Uiso   1.00
O177   O     0.14670   0.48771   0.86939   0.00000  Uiso   1.00
O178   O     0.91975   0.47648   0.92913   0.00000  Uiso   1.00
N179   N     0.17946   0.37240   0.14543   0.00000  Uiso   1.00
N180   N     0.11642   0.64293   0.69579   0.00000  Uiso   1.00
N181   N     0.95469   0.34750   0.73839   0.00000  Uiso   1.00
N182   N     0.21349   0.44759   0.35606   0.00000  Uiso   1.00
N183   N     0.15045   0.71813   0.90642   0.00000  Uiso   1.00
N184   N     0.98872   0.42269   0.94902   0.00000  Uiso   1.00
