data_job_00564
_audit_creation_date              2018-12-19
_audit_creation_method            'Materials Studio'
_symmetry_space_group_name_H-M    'P1'
_symmetry_Int_Tables_number       1
_symmetry_cell_setting            triclinic
loop_
_symmetry_equiv_pos_as_xyz
  x,y,z
_cell_length_a                    11.0085
_cell_length_b                    11.0085
_cell_length_c                    34.5869
_cell_angle_alpha                 90.0000
_cell_angle_beta                  90.0000
_cell_angle_gamma                 120.0000
loop_
_atom_site_label
_atom_site_type_symbol
_atom_site_fract_x
_atom_site_fract_y
_atom_site_fract_z
_atom_site_U_iso_or_equiv
_atom_site_adp_type
_atom_site_occupancy
C1     C     0.96646   0.21677   0.63029   0.00000  Uiso   1.00
C2     C     0.01151   0.34707   0.60553   0.00000  Uiso   1.00
C3     C     0.93711   0.35761   0.57457   0.00000  Uiso   1.00
C4     C     0.99609   0.48585   0.55562   0.00000  Uiso   1.00
C5     C     0.04649   0.67088   0.51539   0.00000  Uiso   1.00
C6     C     0.08616   0.18499   0.62812   0.00000  Uiso   1.00
C7     C     0.07451   0.05925   0.61616   0.00000  Uiso   1.00
C8     C     0.19634   0.05106   0.61623   0.00000  Uiso   1.00
C9     C     0.36261   0.98442   0.61109   0.00000  Uiso   1.00
C10    C     0.96418   0.26148   0.67189   0.00000  Uiso   1.00
C11    C     0.84998   0.20004   0.69673   0.00000  Uiso   1.00
C12    C     0.86911   0.25623   0.73366   0.00000  Uiso   1.00
C13    C     0.84599   0.30837   0.79649   0.00000  Uiso   1.00
C14    C     0.20352   0.42578   0.65169   0.00000  Uiso   1.00
C15    C     0.14027   0.46059   0.61715   0.00000  Uiso   1.00
C16    C     0.19938   0.58885   0.59825   0.00000  Uiso   1.00
C17    C     0.12508   0.59959   0.56727   0.00000  Uiso   1.00
C18    C     0.21491   0.29851   0.63974   0.00000  Uiso   1.00
C19    C     0.33679   0.29049   0.63983   0.00000  Uiso   1.00
C20    C     0.32533   0.16478   0.62787   0.00000  Uiso   1.00
C21    C     0.09293   0.37501   0.68351   0.00000  Uiso   1.00
C22    C     0.11225   0.43130   0.72041   0.00000  Uiso   1.00
C23    C     0.99811   0.36996   0.74531   0.00000  Uiso   1.00
H24    H     0.86622   0.12838   0.62124   0.00000  Uiso   1.00
H25    H     0.83747   0.26972   0.56558   0.00000  Uiso   1.00
H26    H     0.97486   0.97141   0.60717   0.00000  Uiso   1.00
H27    H     0.75036   0.11219   0.68773   0.00000  Uiso   1.00
H28    H     0.86241   0.47648   0.50899   0.00000  Uiso   1.00
H29    H     0.15207   0.84745   0.59668   0.00000  Uiso   1.00
H30    H     0.67867   0.14431   0.76657   0.00000  Uiso   1.00
H31    H     0.30377   0.51416   0.66074   0.00000  Uiso   1.00
H32    H     0.29903   0.67669   0.60725   0.00000  Uiso   1.00
H33    H     0.43641   0.37837   0.64883   0.00000  Uiso   1.00
H34    H     0.21191   0.51915   0.72940   0.00000  Uiso   1.00
H35    H     0.23702   0.80678   0.54281   0.00000  Uiso   1.00
H36    H     0.52669   0.17775   0.63050   0.00000  Uiso   1.00
H37    H     0.05329   0.47461   0.80039   0.00000  Uiso   1.00
O38    O     0.03873   0.74157   0.48999   0.00000  Uiso   1.00
O39    O     0.41875   0.91630   0.60504   0.00000  Uiso   1.00
O40    O     0.79766   0.30577   0.82793   0.00000  Uiso   1.00
N41    N     0.95121   0.53192   0.52430   0.00000  Uiso   1.00
N42    N     0.22204   0.94382   0.60628   0.00000  Uiso   1.00
N43    N     0.77946   0.22134   0.76511   0.00000  Uiso   1.00
N44    N     0.15279   0.70966   0.54249   0.00000  Uiso   1.00
N45    N     0.42361   0.12156   0.62447   0.00000  Uiso   1.00
N46    N     0.98103   0.39907   0.78331   0.00000  Uiso   1.00
C47    C     0.78323   0.74969   0.29696   0.00000  Uiso   1.00
C48    C     0.65293   0.66444   0.27220   0.00000  Uiso   1.00
C49    C     0.64239   0.57950   0.24124   0.00000  Uiso   1.00
C50    C     0.51415   0.51024   0.22229   0.00000  Uiso   1.00
C51    C     0.32912   0.37561   0.18206   0.00000  Uiso   1.00
C52    C     0.81501   0.90117   0.29478   0.00000  Uiso   1.00
C53    C     0.94075   0.01526   0.28282   0.00000  Uiso   1.00
C54    C     0.94894   0.14528   0.28289   0.00000  Uiso   1.00
C55    C     0.01558   0.37819   0.27776   0.00000  Uiso   1.00
C56    C     0.73852   0.70269   0.33856   0.00000  Uiso   1.00
C57    C     0.79996   0.64994   0.36340   0.00000  Uiso   1.00
C58    C     0.74377   0.61288   0.40033   0.00000  Uiso   1.00
C59    C     0.69163   0.53762   0.46315   0.00000  Uiso   1.00
C60    C     0.57422   0.77774   0.31836   0.00000  Uiso   1.00
C61    C     0.53941   0.67968   0.28382   0.00000  Uiso   1.00
C62    C     0.41115   0.61053   0.26492   0.00000  Uiso   1.00
C63    C     0.40041   0.52549   0.23393   0.00000  Uiso   1.00
C64    C     0.70149   0.91641   0.30641   0.00000  Uiso   1.00
C65    C     0.70951   0.04629   0.30650   0.00000  Uiso   1.00
C66    C     0.83522   0.16055   0.29454   0.00000  Uiso   1.00
C67    C     0.62499   0.71792   0.35018   0.00000  Uiso   1.00
C68    C     0.56870   0.68096   0.38708   0.00000  Uiso   1.00
C69    C     0.63004   0.62815   0.41197   0.00000  Uiso   1.00
H70    H     0.87162   0.73784   0.28791   0.00000  Uiso   1.00
H71    H     0.73028   0.56775   0.23225   0.00000  Uiso   1.00
H72    H     0.02859   0.00344   0.27383   0.00000  Uiso   1.00
H73    H     0.88781   0.63816   0.35440   0.00000  Uiso   1.00
H74    H     0.52352   0.38593   0.17566   0.00000  Uiso   1.00
H75    H     0.15255   0.30462   0.26335   0.00000  Uiso   1.00
H76    H     0.85569   0.53436   0.43324   0.00000  Uiso   1.00
H77    H     0.48584   0.78960   0.32741   0.00000  Uiso   1.00
H78    H     0.32331   0.62234   0.27392   0.00000  Uiso   1.00
H79    H     0.62163   0.05804   0.31550   0.00000  Uiso   1.00
H80    H     0.48085   0.69276   0.39606   0.00000  Uiso   1.00
H81    H     0.19322   0.43024   0.20948   0.00000  Uiso   1.00
H82    H     0.82225   0.34894   0.29717   0.00000  Uiso   1.00
H83    H     0.52539   0.57868   0.46705   0.00000  Uiso   1.00
O84    O     0.25843   0.29716   0.15666   0.00000  Uiso   1.00
O85    O     0.08370   0.50245   0.27171   0.00000  Uiso   1.00
O86    O     0.69423   0.49188   0.49460   0.00000  Uiso   1.00
N87    N     0.46808   0.41929   0.19096   0.00000  Uiso   1.00
N88    N     0.05618   0.27821   0.27294   0.00000  Uiso   1.00
N89    N     0.77866   0.55812   0.43178   0.00000  Uiso   1.00
N90    N     0.29034   0.44313   0.20916   0.00000  Uiso   1.00
N91    N     0.87844   0.30205   0.29114   0.00000  Uiso   1.00
N92    N     0.60093   0.58196   0.44997   0.00000  Uiso   1.00
C93    C     0.25031   0.03354   0.96362   0.00000  Uiso   1.00
C94    C     0.33556   0.98849   0.93886   0.00000  Uiso   1.00
C95    C     0.42050   0.06289   0.90791   0.00000  Uiso   1.00
C96    C     0.48976   0.00391   0.88896   0.00000  Uiso   1.00
C97    C     0.62439   0.95351   0.84873   0.00000  Uiso   1.00
C98    C     0.09883   0.91384   0.96145   0.00000  Uiso   1.00
C99    C     0.98474   0.92549   0.94949   0.00000  Uiso   1.00
C100   C     0.85472   0.80366   0.94956   0.00000  Uiso   1.00
C101   C     0.62181   0.63739   0.94443   0.00000  Uiso   1.00
C102   C     0.29731   0.03582   0.00522   0.00000  Uiso   1.00
C103   C     0.35006   0.15002   0.03007   0.00000  Uiso   1.00
C104   C     0.38712   0.13089   0.06699   0.00000  Uiso   1.00
C105   C     0.46238   0.15401   0.12982   0.00000  Uiso   1.00
C106   C     0.22226   0.79648   0.98503   0.00000  Uiso   1.00
C107   C     0.32032   0.85973   0.95049   0.00000  Uiso   1.00
C108   C     0.38947   0.80062   0.93158   0.00000  Uiso   1.00
C109   C     0.47451   0.87492   0.90060   0.00000  Uiso   1.00
C110   C     0.08359   0.78509   0.97307   0.00000  Uiso   1.00
C111   C     0.95371   0.66321   0.97317   0.00000  Uiso   1.00
C112   C     0.83945   0.67467   0.96120   0.00000  Uiso   1.00
C113   C     0.28208   0.90707   0.01685   0.00000  Uiso   1.00
C114   C     0.31904   0.88775   0.05374   0.00000  Uiso   1.00
C115   C     0.37185   0.00189   0.07864   0.00000  Uiso   1.00
H116   H     0.26216   0.13378   0.95458   0.00000  Uiso   1.00
H117   H     0.43225   0.16253   0.89892   0.00000  Uiso   1.00
H118   H     0.99656   0.02514   0.94050   0.00000  Uiso   1.00
H119   H     0.36184   0.24964   0.02106   0.00000  Uiso   1.00
H120   H     0.61407   0.13759   0.84233   0.00000  Uiso   1.00
H121   H     0.69538   0.84793   0.93002   0.00000  Uiso   1.00
H122   H     0.46564   0.32133   0.09990   0.00000  Uiso   1.00
H123   H     0.21040   0.69623   0.99408   0.00000  Uiso   1.00
H124   H     0.37766   0.70097   0.94058   0.00000  Uiso   1.00
H125   H     0.94196   0.56359   0.98216   0.00000  Uiso   1.00
H126   H     0.30724   0.78809   0.06273   0.00000  Uiso   1.00
H127   H     0.56976   0.76298   0.87614   0.00000  Uiso   1.00
H128   H     0.65106   0.47331   0.96383   0.00000  Uiso   1.00
H129   H     0.42132   0.94671   0.13372   0.00000  Uiso   1.00
O130   O     0.70284   0.96127   0.82332   0.00000  Uiso   1.00
O131   O     0.49755   0.58125   0.93838   0.00000  Uiso   1.00
O132   O     0.50812   0.20234   0.16126   0.00000  Uiso   1.00
N133   N     0.58071   0.04879   0.85763   0.00000  Uiso   1.00
N134   N     0.72179   0.77796   0.93961   0.00000  Uiso   1.00
N135   N     0.44188   0.22054   0.09844   0.00000  Uiso   1.00
N136   N     0.55687   0.84721   0.87583   0.00000  Uiso   1.00
N137   N     0.69795   0.57639   0.95781   0.00000  Uiso   1.00
N138   N     0.41804   0.01897   0.11664   0.00000  Uiso   1.00
C139   C     0.21677   0.96646   0.36971   0.00000  Uiso   1.00
C140   C     0.34707   0.01151   0.39447   0.00000  Uiso   1.00
C141   C     0.35761   0.93711   0.42543   0.00000  Uiso   1.00
C142   C     0.48585   0.99609   0.44438   0.00000  Uiso   1.00
C143   C     0.67088   0.04649   0.48461   0.00000  Uiso   1.00
C144   C     0.18499   0.08616   0.37188   0.00000  Uiso   1.00
C145   C     0.05925   0.07451   0.38384   0.00000  Uiso   1.00
C146   C     0.05106   0.19634   0.38377   0.00000  Uiso   1.00
C147   C     0.98442   0.36261   0.38891   0.00000  Uiso   1.00
C148   C     0.26148   0.96418   0.32811   0.00000  Uiso   1.00
C149   C     0.20004   0.84998   0.30327   0.00000  Uiso   1.00
C150   C     0.25623   0.86911   0.26634   0.00000  Uiso   1.00
C151   C     0.30837   0.84599   0.20351   0.00000  Uiso   1.00
C152   C     0.42578   0.20352   0.34831   0.00000  Uiso   1.00
C153   C     0.46059   0.14027   0.38285   0.00000  Uiso   1.00
C154   C     0.58885   0.19938   0.40175   0.00000  Uiso   1.00
C155   C     0.59959   0.12508   0.43273   0.00000  Uiso   1.00
C156   C     0.29851   0.21491   0.36026   0.00000  Uiso   1.00
C157   C     0.29049   0.33679   0.36017   0.00000  Uiso   1.00
C158   C     0.16478   0.32533   0.37213   0.00000  Uiso   1.00
C159   C     0.37501   0.09293   0.31649   0.00000  Uiso   1.00
C160   C     0.43130   0.11225   0.27959   0.00000  Uiso   1.00
C161   C     0.36996   0.99811   0.25469   0.00000  Uiso   1.00
H162   H     0.12838   0.86622   0.37876   0.00000  Uiso   1.00
H163   H     0.26972   0.83747   0.43442   0.00000  Uiso   1.00
H164   H     0.97141   0.97486   0.39283   0.00000  Uiso   1.00
H165   H     0.11219   0.75036   0.31227   0.00000  Uiso   1.00
H166   H     0.47648   0.86241   0.49101   0.00000  Uiso   1.00
H167   H     0.84745   0.15207   0.40332   0.00000  Uiso   1.00
H168   H     0.14431   0.67867   0.23343   0.00000  Uiso   1.00
H169   H     0.51416   0.30377   0.33926   0.00000  Uiso   1.00
H170   H     0.67669   0.29903   0.39275   0.00000  Uiso   1.00
H171   H     0.37837   0.43641   0.35117   0.00000  Uiso   1.00
H172   H     0.51915   0.21191   0.27060   0.00000  Uiso   1.00
H173   H     0.80678   0.23702   0.45719   0.00000  Uiso   1.00
H174   H     0.17775   0.52669   0.36950   0.00000  Uiso   1.00
H175   H     0.47461   0.05329   0.19961   0.00000  Uiso   1.00
O176   O     0.74157   0.03873   0.51001   0.00000  Uiso   1.00
O177   O     0.91630   0.41875   0.39496   0.00000  Uiso   1.00
O178   O     0.30577   0.79766   0.17207   0.00000  Uiso   1.00
N179   N     0.53192   0.95121   0.47570   0.00000  Uiso   1.00
N180   N     0.94382   0.22204   0.39372   0.00000  Uiso   1.00
N181   N     0.22134   0.77946   0.23489   0.00000  Uiso   1.00
N182   N     0.70966   0.15279   0.45751   0.00000  Uiso   1.00
N183   N     0.12156   0.42361   0.37553   0.00000  Uiso   1.00
N184   N     0.39907   0.98103   0.21669   0.00000  Uiso   1.00
C185   C     0.74969   0.78323   0.70304   0.00000  Uiso   1.00
C186   C     0.66444   0.65293   0.72780   0.00000  Uiso   1.00
C187   C     0.57950   0.64239   0.75876   0.00000  Uiso   1.00
C188   C     0.51024   0.51415   0.77771   0.00000  Uiso   1.00
C189   C     0.37561   0.32912   0.81794   0.00000  Uiso   1.00
C190   C     0.90117   0.81501   0.70522   0.00000  Uiso   1.00
C191   C     0.01526   0.94075   0.71718   0.00000  Uiso   1.00
C192   C     0.14528   0.94894   0.71711   0.00000  Uiso   1.00
C193   C     0.37819   0.01558   0.72224   0.00000  Uiso   1.00
C194   C     0.70269   0.73852   0.66144   0.00000  Uiso   1.00
C195   C     0.64994   0.79996   0.63660   0.00000  Uiso   1.00
C196   C     0.61288   0.74377   0.59967   0.00000  Uiso   1.00
C197   C     0.53762   0.69163   0.53685   0.00000  Uiso   1.00
C198   C     0.77774   0.57422   0.68164   0.00000  Uiso   1.00
C199   C     0.67968   0.53941   0.71618   0.00000  Uiso   1.00
C200   C     0.61053   0.41115   0.73508   0.00000  Uiso   1.00
C201   C     0.52549   0.40041   0.76607   0.00000  Uiso   1.00
C202   C     0.91641   0.70149   0.69359   0.00000  Uiso   1.00
C203   C     0.04629   0.70951   0.69350   0.00000  Uiso   1.00
C204   C     0.16055   0.83522   0.70546   0.00000  Uiso   1.00
C205   C     0.71792   0.62499   0.64982   0.00000  Uiso   1.00
C206   C     0.68096   0.56870   0.61292   0.00000  Uiso   1.00
C207   C     0.62815   0.63004   0.58803   0.00000  Uiso   1.00
H208   H     0.73784   0.87162   0.71209   0.00000  Uiso   1.00
H209   H     0.56775   0.73028   0.76775   0.00000  Uiso   1.00
H210   H     0.00344   0.02859   0.72617   0.00000  Uiso   1.00
H211   H     0.63816   0.88781   0.64560   0.00000  Uiso   1.00
H212   H     0.38593   0.52352   0.82434   0.00000  Uiso   1.00
H213   H     0.30462   0.15255   0.73665   0.00000  Uiso   1.00
H214   H     0.53436   0.85569   0.56676   0.00000  Uiso   1.00
H215   H     0.78960   0.48584   0.67259   0.00000  Uiso   1.00
H216   H     0.62234   0.32331   0.72608   0.00000  Uiso   1.00
H217   H     0.05804   0.62163   0.68450   0.00000  Uiso   1.00
H218   H     0.69276   0.48085   0.60394   0.00000  Uiso   1.00
H219   H     0.43024   0.19322   0.79052   0.00000  Uiso   1.00
H220   H     0.34894   0.82225   0.70283   0.00000  Uiso   1.00
H221   H     0.57868   0.52539   0.53295   0.00000  Uiso   1.00
O222   O     0.29716   0.25843   0.84334   0.00000  Uiso   1.00
O223   O     0.50245   0.08370   0.72829   0.00000  Uiso   1.00
O224   O     0.49188   0.69423   0.50540   0.00000  Uiso   1.00
N225   N     0.41929   0.46808   0.80904   0.00000  Uiso   1.00
N226   N     0.27821   0.05618   0.72706   0.00000  Uiso   1.00
N227   N     0.55812   0.77866   0.56822   0.00000  Uiso   1.00
N228   N     0.44313   0.29034   0.79084   0.00000  Uiso   1.00
N229   N     0.30205   0.87844   0.70886   0.00000  Uiso   1.00
N230   N     0.58196   0.60093   0.55003   0.00000  Uiso   1.00
C231   C     0.03354   0.25031   0.03638   0.00000  Uiso   1.00
C232   C     0.98849   0.33556   0.06114   0.00000  Uiso   1.00
C233   C     0.06289   0.42050   0.09209   0.00000  Uiso   1.00
C234   C     0.00391   0.48976   0.11104   0.00000  Uiso   1.00
C235   C     0.95351   0.62439   0.15127   0.00000  Uiso   1.00
C236   C     0.91384   0.09883   0.03855   0.00000  Uiso   1.00
C237   C     0.92549   0.98474   0.05051   0.00000  Uiso   1.00
C238   C     0.80366   0.85472   0.05044   0.00000  Uiso   1.00
C239   C     0.63739   0.62181   0.05557   0.00000  Uiso   1.00
C240   C     0.03582   0.29731   0.99478   0.00000  Uiso   1.00
C241   C     0.15002   0.35006   0.96993   0.00000  Uiso   1.00
C242   C     0.13089   0.38712   0.93301   0.00000  Uiso   1.00
C243   C     0.15401   0.46238   0.87018   0.00000  Uiso   1.00
C244   C     0.79648   0.22226   0.01497   0.00000  Uiso   1.00
C245   C     0.85973   0.32032   0.04951   0.00000  Uiso   1.00
C246   C     0.80062   0.38947   0.06842   0.00000  Uiso   1.00
C247   C     0.87492   0.47451   0.09940   0.00000  Uiso   1.00
C248   C     0.78509   0.08359   0.02693   0.00000  Uiso   1.00
C249   C     0.66321   0.95371   0.02683   0.00000  Uiso   1.00
C250   C     0.67467   0.83945   0.03880   0.00000  Uiso   1.00
C251   C     0.90707   0.28208   0.98315   0.00000  Uiso   1.00
C252   C     0.88775   0.31904   0.94626   0.00000  Uiso   1.00
C253   C     0.00189   0.37185   0.92136   0.00000  Uiso   1.00
H254   H     0.13378   0.26216   0.04542   0.00000  Uiso   1.00
H255   H     0.16253   0.43225   0.10108   0.00000  Uiso   1.00
H256   H     0.02514   0.99656   0.05950   0.00000  Uiso   1.00
H257   H     0.24964   0.36184   0.97894   0.00000  Uiso   1.00
H258   H     0.13759   0.61407   0.15767   0.00000  Uiso   1.00
H259   H     0.84793   0.69538   0.06998   0.00000  Uiso   1.00
H260   H     0.32133   0.46564   0.90010   0.00000  Uiso   1.00
H261   H     0.69623   0.21040   0.00592   0.00000  Uiso   1.00
H262   H     0.70097   0.37766   0.05942   0.00000  Uiso   1.00
H263   H     0.56359   0.94196   0.01784   0.00000  Uiso   1.00
H264   H     0.78809   0.30724   0.93727   0.00000  Uiso   1.00
H265   H     0.76298   0.56976   0.12386   0.00000  Uiso   1.00
H266   H     0.47331   0.65106   0.03617   0.00000  Uiso   1.00
H267   H     0.94671   0.42132   0.86628   0.00000  Uiso   1.00
O268   O     0.96127   0.70284   0.17668   0.00000  Uiso   1.00
O269   O     0.58125   0.49755   0.06162   0.00000  Uiso   1.00
O270   O     0.20234   0.50812   0.83874   0.00000  Uiso   1.00
N271   N     0.04879   0.58071   0.14237   0.00000  Uiso   1.00
N272   N     0.77796   0.72179   0.06039   0.00000  Uiso   1.00
N273   N     0.22054   0.44188   0.90156   0.00000  Uiso   1.00
N274   N     0.84721   0.55687   0.12417   0.00000  Uiso   1.00
N275   N     0.57639   0.69795   0.04219   0.00000  Uiso   1.00
N276   N     0.01897   0.41804   0.88336   0.00000  Uiso   1.00
