data_job_03758
_audit_creation_date              2018-12-19
_audit_creation_method            'Materials Studio'
_symmetry_space_group_name_H-M    'P1'
_symmetry_Int_Tables_number       1
_symmetry_cell_setting            triclinic
loop_
_symmetry_equiv_pos_as_xyz
  x,y,z
_cell_length_a                    12.3812
_cell_length_b                    12.4614
_cell_length_c                    21.2682
_cell_angle_alpha                 90.0000
_cell_angle_beta                  90.0000
_cell_angle_gamma                 90.0000
loop_
_atom_site_label
_atom_site_type_symbol
_atom_site_fract_x
_atom_site_fract_y
_atom_site_fract_z
_atom_site_U_iso_or_equiv
_atom_site_adp_type
_atom_site_occupancy
C1     C     0.34346   0.33438   0.50908   0.00000  Uiso   1.00
C2     C     0.25413   0.25712   0.48941   0.00000  Uiso   1.00
C3     C     0.26777   0.16524   0.45340   0.00000  Uiso   1.00
C4     C     0.17592   0.10523   0.44050   0.00000  Uiso   1.00
C5     C     0.05270   0.98053   0.40658   0.00000  Uiso   1.00
C6     C     0.33874   0.34024   0.58064   0.00000  Uiso   1.00
C7     C     0.42353   0.31826   0.62134   0.00000  Uiso   1.00
C8     C     0.40291   0.32823   0.68524   0.00000  Uiso   1.00
C9     C     0.41107   0.33265   0.79297   0.00000  Uiso   1.00
C10    C     0.30912   0.44471   0.48537   0.00000  Uiso   1.00
C11    C     0.36901   0.51060   0.44598   0.00000  Uiso   1.00
C12    C     0.32347   0.60855   0.42968   0.00000  Uiso   1.00
C13    C     0.28564   0.77519   0.38949   0.00000  Uiso   1.00
C14    C     0.15610   0.39119   0.55021   0.00000  Uiso   1.00
C15    C     0.15236   0.28797   0.51175   0.00000  Uiso   1.00
C16    C     0.06047   0.22809   0.49890   0.00000  Uiso   1.00
C17    C     0.07397   0.13614   0.46287   0.00000  Uiso   1.00
C18    C     0.23697   0.37109   0.60298   0.00000  Uiso   1.00
C19    C     0.21623   0.38110   0.66684   0.00000  Uiso   1.00
C20    C     0.30096   0.35914   0.70762   0.00000  Uiso   1.00
C21    C     0.20735   0.47557   0.50771   0.00000  Uiso   1.00
C22    C     0.16171   0.57344   0.49148   0.00000  Uiso   1.00
C23    C     0.22152   0.63946   0.45206   0.00000  Uiso   1.00
H24    H     0.42269   0.31037   0.49169   0.00000  Uiso   1.00
H25    H     0.34654   0.14139   0.43612   0.00000  Uiso   1.00
H26    H     0.50227   0.29440   0.60404   0.00000  Uiso   1.00
H27    H     0.44776   0.48670   0.42870   0.00000  Uiso   1.00
H28    H     0.21723   0.96763   0.38439   0.00000  Uiso   1.00
H29    H     0.54562   0.29029   0.73844   0.00000  Uiso   1.00
H30    H     0.43068   0.69580   0.36871   0.00000  Uiso   1.00
H31    H     0.07686   0.41521   0.56760   0.00000  Uiso   1.00
H32    H     0.98172   0.25198   0.51619   0.00000  Uiso   1.00
H33    H     0.13746   0.40498   0.68411   0.00000  Uiso   1.00
H34    H     0.08295   0.59729   0.50877   0.00000  Uiso   1.00
H35    H     0.92114   0.05739   0.44938   0.00000  Uiso   1.00
H36    H     0.24953   0.38005   0.80344   0.00000  Uiso   1.00
H37    H     0.13458   0.78556   0.43370   0.00000  Uiso   1.00
O38    O     0.01285   0.90322   0.38172   0.00000  Uiso   1.00
O39    O     0.44369   0.32656   0.84622   0.00000  Uiso   1.00
O40    O     0.29288   0.85858   0.36114   0.00000  Uiso   1.00
N41    N     0.16060   0.01117   0.40673   0.00000  Uiso   1.00
N42    N     0.46762   0.31282   0.73775   0.00000  Uiso   1.00
N43    N     0.36017   0.69195   0.39209   0.00000  Uiso   1.00
N44    N     0.00127   0.05947   0.44170   0.00000  Uiso   1.00
N45    N     0.30829   0.36111   0.77272   0.00000  Uiso   1.00
N46    N     0.20084   0.74025   0.42706   0.00000  Uiso   1.00
C47    C     0.65654   0.66562   0.00908   0.00000  Uiso   1.00
C48    C     0.74587   0.74288   0.98941   0.00000  Uiso   1.00
C49    C     0.73223   0.83476   0.95340   0.00000  Uiso   1.00
C50    C     0.82408   0.89477   0.94050   0.00000  Uiso   1.00
C51    C     0.94730   0.01947   0.90658   0.00000  Uiso   1.00
C52    C     0.66126   0.65976   0.08064   0.00000  Uiso   1.00
C53    C     0.57647   0.68174   0.12134   0.00000  Uiso   1.00
C54    C     0.59709   0.67177   0.18524   0.00000  Uiso   1.00
C55    C     0.58893   0.66735   0.29297   0.00000  Uiso   1.00
C56    C     0.69088   0.55529   0.98537   0.00000  Uiso   1.00
C57    C     0.63099   0.48940   0.94598   0.00000  Uiso   1.00
C58    C     0.67653   0.39145   0.92968   0.00000  Uiso   1.00
C59    C     0.71436   0.22481   0.88949   0.00000  Uiso   1.00
C60    C     0.84390   0.60881   0.05021   0.00000  Uiso   1.00
C61    C     0.84764   0.71203   0.01175   0.00000  Uiso   1.00
C62    C     0.93953   0.77191   0.99890   0.00000  Uiso   1.00
C63    C     0.92603   0.86386   0.96287   0.00000  Uiso   1.00
C64    C     0.76303   0.62891   0.10298   0.00000  Uiso   1.00
C65    C     0.78377   0.61890   0.16684   0.00000  Uiso   1.00
C66    C     0.69904   0.64086   0.20762   0.00000  Uiso   1.00
C67    C     0.79265   0.52443   0.00771   0.00000  Uiso   1.00
C68    C     0.83829   0.42656   0.99148   0.00000  Uiso   1.00
C69    C     0.77848   0.36054   0.95206   0.00000  Uiso   1.00
H70    H     0.57731   0.68963   0.99169   0.00000  Uiso   1.00
H71    H     0.65346   0.85861   0.93612   0.00000  Uiso   1.00
H72    H     0.49773   0.70560   0.10404   0.00000  Uiso   1.00
H73    H     0.55224   0.51330   0.92870   0.00000  Uiso   1.00
H74    H     0.78277   0.03237   0.88439   0.00000  Uiso   1.00
H75    H     0.45438   0.70971   0.23844   0.00000  Uiso   1.00
H76    H     0.56932   0.30420   0.86871   0.00000  Uiso   1.00
H77    H     0.92314   0.58479   0.06760   0.00000  Uiso   1.00
H78    H     0.01828   0.74802   0.01619   0.00000  Uiso   1.00
H79    H     0.86254   0.59502   0.18411   0.00000  Uiso   1.00
H80    H     0.91705   0.40271   0.00877   0.00000  Uiso   1.00
H81    H     0.07886   0.94261   0.94938   0.00000  Uiso   1.00
H82    H     0.75047   0.61995   0.30344   0.00000  Uiso   1.00
H83    H     0.86542   0.21444   0.93370   0.00000  Uiso   1.00
O84    O     0.98715   0.09678   0.88172   0.00000  Uiso   1.00
O85    O     0.55631   0.67344   0.34622   0.00000  Uiso   1.00
O86    O     0.70712   0.14142   0.86114   0.00000  Uiso   1.00
N87    N     0.83940   0.98883   0.90673   0.00000  Uiso   1.00
N88    N     0.53238   0.68718   0.23775   0.00000  Uiso   1.00
N89    N     0.63983   0.30805   0.89209   0.00000  Uiso   1.00
N90    N     0.99873   0.94053   0.94170   0.00000  Uiso   1.00
N91    N     0.69171   0.63889   0.27272   0.00000  Uiso   1.00
N92    N     0.79916   0.25975   0.92706   0.00000  Uiso   1.00
C93    C     0.84346   0.66562   0.50908   0.00000  Uiso   1.00
C94    C     0.75413   0.74288   0.48941   0.00000  Uiso   1.00
C95    C     0.76777   0.83476   0.45340   0.00000  Uiso   1.00
C96    C     0.67592   0.89477   0.44050   0.00000  Uiso   1.00
C97    C     0.55270   0.01947   0.40658   0.00000  Uiso   1.00
C98    C     0.83874   0.65976   0.58064   0.00000  Uiso   1.00
C99    C     0.92353   0.68174   0.62134   0.00000  Uiso   1.00
C100   C     0.90291   0.67177   0.68524   0.00000  Uiso   1.00
C101   C     0.91107   0.66735   0.79297   0.00000  Uiso   1.00
C102   C     0.80912   0.55529   0.48537   0.00000  Uiso   1.00
C103   C     0.86901   0.48940   0.44598   0.00000  Uiso   1.00
C104   C     0.82347   0.39145   0.42968   0.00000  Uiso   1.00
C105   C     0.78564   0.22481   0.38949   0.00000  Uiso   1.00
C106   C     0.65610   0.60881   0.55021   0.00000  Uiso   1.00
C107   C     0.65236   0.71203   0.51175   0.00000  Uiso   1.00
C108   C     0.56047   0.77191   0.49890   0.00000  Uiso   1.00
C109   C     0.57397   0.86386   0.46287   0.00000  Uiso   1.00
C110   C     0.73697   0.62891   0.60298   0.00000  Uiso   1.00
C111   C     0.71623   0.61890   0.66684   0.00000  Uiso   1.00
C112   C     0.80096   0.64086   0.70762   0.00000  Uiso   1.00
C113   C     0.70735   0.52443   0.50771   0.00000  Uiso   1.00
C114   C     0.66171   0.42656   0.49148   0.00000  Uiso   1.00
C115   C     0.72152   0.36054   0.45206   0.00000  Uiso   1.00
H116   H     0.92269   0.68963   0.49169   0.00000  Uiso   1.00
H117   H     0.84654   0.85861   0.43612   0.00000  Uiso   1.00
H118   H     0.00227   0.70560   0.60404   0.00000  Uiso   1.00
H119   H     0.94776   0.51330   0.42870   0.00000  Uiso   1.00
H120   H     0.71723   0.03237   0.38439   0.00000  Uiso   1.00
H121   H     0.04562   0.70971   0.73844   0.00000  Uiso   1.00
H122   H     0.93068   0.30420   0.36871   0.00000  Uiso   1.00
H123   H     0.57686   0.58479   0.56760   0.00000  Uiso   1.00
H124   H     0.48172   0.74802   0.51619   0.00000  Uiso   1.00
H125   H     0.63746   0.59502   0.68411   0.00000  Uiso   1.00
H126   H     0.58295   0.40271   0.50877   0.00000  Uiso   1.00
H127   H     0.42114   0.94261   0.44938   0.00000  Uiso   1.00
H128   H     0.74953   0.61995   0.80344   0.00000  Uiso   1.00
H129   H     0.63458   0.21444   0.43370   0.00000  Uiso   1.00
O130   O     0.51285   0.09678   0.38172   0.00000  Uiso   1.00
O131   O     0.94369   0.67344   0.84622   0.00000  Uiso   1.00
O132   O     0.79288   0.14142   0.36114   0.00000  Uiso   1.00
N133   N     0.66060   0.98883   0.40673   0.00000  Uiso   1.00
N134   N     0.96762   0.68718   0.73775   0.00000  Uiso   1.00
N135   N     0.86017   0.30805   0.39209   0.00000  Uiso   1.00
N136   N     0.50127   0.94053   0.44170   0.00000  Uiso   1.00
N137   N     0.80829   0.63889   0.77272   0.00000  Uiso   1.00
N138   N     0.70084   0.25975   0.42706   0.00000  Uiso   1.00
C139   C     0.15654   0.33438   0.00908   0.00000  Uiso   1.00
C140   C     0.24587   0.25712   0.98941   0.00000  Uiso   1.00
C141   C     0.23223   0.16524   0.95340   0.00000  Uiso   1.00
C142   C     0.32408   0.10523   0.94050   0.00000  Uiso   1.00
C143   C     0.44730   0.98053   0.90658   0.00000  Uiso   1.00
C144   C     0.16126   0.34024   0.08064   0.00000  Uiso   1.00
C145   C     0.07647   0.31826   0.12134   0.00000  Uiso   1.00
C146   C     0.09709   0.32823   0.18524   0.00000  Uiso   1.00
C147   C     0.08893   0.33265   0.29297   0.00000  Uiso   1.00
C148   C     0.19088   0.44471   0.98537   0.00000  Uiso   1.00
C149   C     0.13099   0.51060   0.94598   0.00000  Uiso   1.00
C150   C     0.17653   0.60855   0.92968   0.00000  Uiso   1.00
C151   C     0.21436   0.77519   0.88949   0.00000  Uiso   1.00
C152   C     0.34390   0.39119   0.05021   0.00000  Uiso   1.00
C153   C     0.34764   0.28797   0.01175   0.00000  Uiso   1.00
C154   C     0.43953   0.22809   0.99890   0.00000  Uiso   1.00
C155   C     0.42603   0.13614   0.96287   0.00000  Uiso   1.00
C156   C     0.26303   0.37109   0.10298   0.00000  Uiso   1.00
C157   C     0.28377   0.38110   0.16684   0.00000  Uiso   1.00
C158   C     0.19904   0.35914   0.20762   0.00000  Uiso   1.00
C159   C     0.29265   0.47557   0.00771   0.00000  Uiso   1.00
C160   C     0.33829   0.57344   0.99148   0.00000  Uiso   1.00
C161   C     0.27848   0.63946   0.95206   0.00000  Uiso   1.00
H162   H     0.07731   0.31037   0.99169   0.00000  Uiso   1.00
H163   H     0.15346   0.14139   0.93612   0.00000  Uiso   1.00
H164   H     0.99773   0.29440   0.10404   0.00000  Uiso   1.00
H165   H     0.05224   0.48670   0.92870   0.00000  Uiso   1.00
H166   H     0.28277   0.96763   0.88439   0.00000  Uiso   1.00
H167   H     0.95438   0.29029   0.23844   0.00000  Uiso   1.00
H168   H     0.06932   0.69580   0.86871   0.00000  Uiso   1.00
H169   H     0.42314   0.41521   0.06760   0.00000  Uiso   1.00
H170   H     0.51828   0.25198   0.01619   0.00000  Uiso   1.00
H171   H     0.36254   0.40498   0.18411   0.00000  Uiso   1.00
H172   H     0.41705   0.59729   0.00877   0.00000  Uiso   1.00
H173   H     0.57886   0.05739   0.94938   0.00000  Uiso   1.00
H174   H     0.25047   0.38005   0.30344   0.00000  Uiso   1.00
H175   H     0.36542   0.78556   0.93370   0.00000  Uiso   1.00
O176   O     0.48715   0.90322   0.88172   0.00000  Uiso   1.00
O177   O     0.05631   0.32656   0.34622   0.00000  Uiso   1.00
O178   O     0.20712   0.85858   0.86114   0.00000  Uiso   1.00
N179   N     0.33940   0.01117   0.90673   0.00000  Uiso   1.00
N180   N     0.03238   0.31282   0.23775   0.00000  Uiso   1.00
N181   N     0.13983   0.69195   0.89209   0.00000  Uiso   1.00
N182   N     0.49873   0.05947   0.94170   0.00000  Uiso   1.00
N183   N     0.19171   0.36111   0.27272   0.00000  Uiso   1.00
N184   N     0.29916   0.74025   0.92706   0.00000  Uiso   1.00
