data_job_06717
_audit_creation_date              2018-12-19
_audit_creation_method            'Materials Studio'
_symmetry_space_group_name_H-M    'P1'
_symmetry_Int_Tables_number       1
_symmetry_cell_setting            triclinic
loop_
_symmetry_equiv_pos_as_xyz
  x,y,z
_cell_length_a                    18.1922
_cell_length_b                    23.2368
_cell_length_c                    18.6623
_cell_angle_alpha                 95.1225
_cell_angle_beta                  87.8808
_cell_angle_gamma                 89.0789
loop_
_atom_site_label
_atom_site_type_symbol
_atom_site_fract_x
_atom_site_fract_y
_atom_site_fract_z
_atom_site_U_iso_or_equiv
_atom_site_adp_type
_atom_site_occupancy
C1     C     0.46926   0.25298   0.43497   0.00000  Uiso   1.00
C2     C     0.53059   0.24370   0.48652   0.00000  Uiso   1.00
C3     C     0.56240   0.28647   0.53125   0.00000  Uiso   1.00
C4     C     0.61774   0.26918   0.57438   0.00000  Uiso   1.00
C5     C     0.70954   0.26359   0.65465   0.00000  Uiso   1.00
C6     C     0.49862   0.22843   0.36071   0.00000  Uiso   1.00
C7     C     0.50355   0.25837   0.29966   0.00000  Uiso   1.00
C8     C     0.53198   0.22821   0.23688   0.00000  Uiso   1.00
C9     C     0.57410   0.19891   0.12182   0.00000  Uiso   1.00
C10    C     0.40716   0.21364   0.45565   0.00000  Uiso   1.00
C11    C     0.33518   0.23113   0.47441   0.00000  Uiso   1.00
C12    C     0.28659   0.18852   0.49155   0.00000  Uiso   1.00
C13    C     0.18671   0.13626   0.52389   0.00000  Uiso   1.00
C14    C     0.51096   0.14619   0.43203   0.00000  Uiso   1.00
C15    C     0.55323   0.18569   0.48492   0.00000  Uiso   1.00
C16    C     0.60853   0.16833   0.52800   0.00000  Uiso   1.00
C17    C     0.64042   0.21107   0.57279   0.00000  Uiso   1.00
C18    C     0.52127   0.17043   0.35911   0.00000  Uiso   1.00
C19    C     0.54968   0.14022   0.29641   0.00000  Uiso   1.00
C20    C     0.55466   0.17011   0.23529   0.00000  Uiso   1.00
C21    C     0.42980   0.15563   0.45406   0.00000  Uiso   1.00
C22    C     0.38131   0.11299   0.47117   0.00000  Uiso   1.00
C23    C     0.30928   0.13042   0.48995   0.00000  Uiso   1.00
H24    H     0.45163   0.29814   0.43620   0.00000  Uiso   1.00
H25    H     0.54487   0.33136   0.53246   0.00000  Uiso   1.00
H26    H     0.48602   0.30325   0.30091   0.00000  Uiso   1.00
H27    H     0.31768   0.27602   0.47563   0.00000  Uiso   1.00
H28    H     0.65824   0.34261   0.63846   0.00000  Uiso   1.00
H29    H     0.53413   0.28334   0.15021   0.00000  Uiso   1.00
H30    H     0.17915   0.22593   0.51865   0.00000  Uiso   1.00
H31    H     0.52859   0.10103   0.43079   0.00000  Uiso   1.00
H32    H     0.62604   0.12344   0.52676   0.00000  Uiso   1.00
H33    H     0.56720   0.09533   0.29520   0.00000  Uiso   1.00
H34    H     0.39886   0.06811   0.46993   0.00000  Uiso   1.00
H35    H     0.72413   0.17386   0.63383   0.00000  Uiso   1.00
H36    H     0.60002   0.11459   0.14558   0.00000  Uiso   1.00
H37    H     0.24504   0.05718   0.51402   0.00000  Uiso   1.00
O38    O     0.75392   0.27653   0.69935   0.00000  Uiso   1.00
O39    O     0.59109   0.19877   0.05879   0.00000  Uiso   1.00
O40    O     0.12536   0.12345   0.54218   0.00000  Uiso   1.00
N41    N     0.66036   0.29982   0.62421   0.00000  Uiso   1.00
N42    N     0.54434   0.24441   0.16773   0.00000  Uiso   1.00
N43    N     0.21245   0.19073   0.51217   0.00000  Uiso   1.00
N44    N     0.69581   0.20901   0.62172   0.00000  Uiso   1.00
N45    N     0.57980   0.15360   0.16524   0.00000  Uiso   1.00
N46    N     0.24791   0.09993   0.50968   0.00000  Uiso   1.00
C47    C     0.10420   0.44734   0.52155   0.00000  Uiso   1.00
C48    C     0.12575   0.51066   0.52554   0.00000  Uiso   1.00
C49    C     0.16937   0.53830   0.57697   0.00000  Uiso   1.00
C50    C     0.18271   0.59641   0.57133   0.00000  Uiso   1.00
C51    C     0.22059   0.69027   0.58594   0.00000  Uiso   1.00
C52    C     0.02034   0.44725   0.52285   0.00000  Uiso   1.00
C53    C     0.97534   0.42156   0.57201   0.00000  Uiso   1.00
C54    C     0.89996   0.42629   0.56409   0.00000  Uiso   1.00
C55    C     0.77419   0.42167   0.57449   0.00000  Uiso   1.00
C56    C     0.12959   0.42116   0.44672   0.00000  Uiso   1.00
C57    C     0.17644   0.37352   0.43186   0.00000  Uiso   1.00
C58    C     0.19302   0.35627   0.35984   0.00000  Uiso   1.00
C59    C     0.23688   0.31113   0.25204   0.00000  Uiso   1.00
C60    C     0.05033   0.50141   0.42007   0.00000  Uiso   1.00
C61    C     0.09648   0.54003   0.47042   0.00000  Uiso   1.00
C62    C     0.10977   0.59812   0.46470   0.00000  Uiso   1.00
C63    C     0.15341   0.62583   0.51611   0.00000  Uiso   1.00
C64    C     0.99108   0.47662   0.46773   0.00000  Uiso   1.00
C65    C     0.91574   0.48138   0.45974   0.00000  Uiso   1.00
C66    C     0.87064   0.45571   0.50888   0.00000  Uiso   1.00
C67    C     0.10033   0.45053   0.39160   0.00000  Uiso   1.00
C68    C     0.11684   0.43334   0.31959   0.00000  Uiso   1.00
C69    C     0.16371   0.38569   0.30463   0.00000  Uiso   1.00
H70    H     0.12697   0.42447   0.56446   0.00000  Uiso   1.00
H71    H     0.19199   0.51555   0.61962   0.00000  Uiso   1.00
H72    H     0.99800   0.39883   0.61465   0.00000  Uiso   1.00
H73    H     0.19907   0.35080   0.47453   0.00000  Uiso   1.00
H74    H     0.25116   0.62949   0.65648   0.00000  Uiso   1.00
H75    H     0.84211   0.38336   0.64599   0.00000  Uiso   1.00
H76    H     0.26610   0.28207   0.35051   0.00000  Uiso   1.00
H77    H     0.02755   0.52427   0.37716   0.00000  Uiso   1.00
H78    H     0.08712   0.62083   0.42204   0.00000  Uiso   1.00
H79    H     0.89312   0.50411   0.41708   0.00000  Uiso   1.00
H80    H     0.09419   0.45608   0.27695   0.00000  Uiso   1.00
H81    H     0.16603   0.71494   0.49613   0.00000  Uiso   1.00
H82    H     0.75698   0.46881   0.48564   0.00000  Uiso   1.00
H83    H     0.18097   0.36752   0.19016   0.00000  Uiso   1.00
O84    O     0.24955   0.73394   0.60922   0.00000  Uiso   1.00
O85    O     0.71290   0.41102   0.59545   0.00000  Uiso   1.00
O86    O     0.26917   0.27813   0.20780   0.00000  Uiso   1.00
N87    N     0.22296   0.63635   0.61258   0.00000  Uiso   1.00
N88    N     0.84052   0.40624   0.60278   0.00000  Uiso   1.00
N89    N     0.23690   0.31153   0.32653   0.00000  Uiso   1.00
N90    N     0.17716   0.68232   0.52629   0.00000  Uiso   1.00
N91    N     0.79472   0.45222   0.51649   0.00000  Uiso   1.00
N92    N     0.19110   0.35751   0.24024   0.00000  Uiso   1.00
C93    C     0.08256   0.28382   0.65668   0.00000  Uiso   1.00
C94    C     0.05373   0.33282   0.71073   0.00000  Uiso   1.00
C95    C     0.09419   0.37920   0.73851   0.00000  Uiso   1.00
C96    C     0.05780   0.41947   0.78734   0.00000  Uiso   1.00
C97    C     0.02434   0.49644   0.86821   0.00000  Uiso   1.00
C98    C     0.06814   0.22809   0.69180   0.00000  Uiso   1.00
C99    C     0.12072   0.18640   0.70365   0.00000  Uiso   1.00
C100   C     0.09644   0.13851   0.73652   0.00000  Uiso   1.00
C101   C     0.08534   0.05286   0.78795   0.00000  Uiso   1.00
C102   C     0.03221   0.28306   0.59308   0.00000  Uiso   1.00
C103   C     0.05457   0.28758   0.52193   0.00000  Uiso   1.00
C104   C     0.00004   0.28595   0.47170   0.00000  Uiso   1.00
C105   C     0.93315   0.28565   0.36986   0.00000  Uiso   1.00
C106   C     0.94597   0.27288   0.69398   0.00000  Uiso   1.00
C107   C     0.97954   0.32688   0.73099   0.00000  Uiso   1.00
C108   C     0.94308   0.36709   0.77979   0.00000  Uiso   1.00
C109   C     0.98348   0.41352   0.80764   0.00000  Uiso   1.00
C110   C     0.99395   0.22214   0.71206   0.00000  Uiso   1.00
C111   C     0.96960   0.17430   0.74492   0.00000  Uiso   1.00
C112   C     0.02212   0.13255   0.75682   0.00000  Uiso   1.00
C113   C     0.95802   0.27712   0.61334   0.00000  Uiso   1.00
C114   C     0.90345   0.27548   0.56321   0.00000  Uiso   1.00
C115   C     0.92572   0.28000   0.49199   0.00000  Uiso   1.00
H116   H     0.14032   0.28845   0.64091   0.00000  Uiso   1.00
H117   H     0.15161   0.38378   0.72283   0.00000  Uiso   1.00
H118   H     0.17812   0.19101   0.68795   0.00000  Uiso   1.00
H119   H     0.11198   0.29218   0.50627   0.00000  Uiso   1.00
H120   H     0.13142   0.48684   0.82260   0.00000  Uiso   1.00
H121   H     0.18732   0.08037   0.74906   0.00000  Uiso   1.00
H122   H     0.04785   0.29369   0.36594   0.00000  Uiso   1.00
H123   H     0.88821   0.26825   0.70976   0.00000  Uiso   1.00
H124   H     0.88567   0.36248   0.79546   0.00000  Uiso   1.00
H125   H     0.91218   0.16971   0.76059   0.00000  Uiso   1.00
H126   H     0.84604   0.27088   0.57891   0.00000  Uiso   1.00
H127   H     0.91557   0.46955   0.88156   0.00000  Uiso   1.00
H128   H     0.97147   0.06308   0.80801   0.00000  Uiso   1.00
H129   H     0.83201   0.27641   0.42489   0.00000  Uiso   1.00
O130   O     0.02638   0.54053   0.90723   0.00000  Uiso   1.00
O131   O     0.09971   0.00726   0.81073   0.00000  Uiso   1.00
O132   O     0.91674   0.28714   0.30809   0.00000  Uiso   1.00
N133   N     0.08096   0.46984   0.82471   0.00000  Uiso   1.00
N134   N     0.13323   0.08982   0.75595   0.00000  Uiso   1.00
N135   N     0.00284   0.28925   0.39777   0.00000  Uiso   1.00
N136   N     0.96482   0.46054   0.85643   0.00000  Uiso   1.00
N137   N     0.01708   0.08052   0.78768   0.00000  Uiso   1.00
N138   N     0.88670   0.27995   0.42949   0.00000  Uiso   1.00
C139   C     0.78141   0.82247   0.98201   0.00000  Uiso   1.00
C140   C     0.84450   0.86340   0.97002   0.00000  Uiso   1.00
C141   C     0.85903   0.91326   0.01341   0.00000  Uiso   1.00
C142   C     0.91936   0.94481   0.99330   0.00000  Uiso   1.00
C143   C     0.01061   0.01103   0.98403   0.00000  Uiso   1.00
C144   C     0.81685   0.76293   0.98560   0.00000  Uiso   1.00
C145   C     0.80813   0.72832   0.04208   0.00000  Uiso   1.00
C146   C     0.84519   0.67530   0.03508   0.00000  Uiso   1.00
C147   C     0.89348   0.58553   0.04997   0.00000  Uiso   1.00
C148   C     0.73862   0.81873   0.91307   0.00000  Uiso   1.00
C149   C     0.66411   0.83101   0.90856   0.00000  Uiso   1.00
C150   C     0.63530   0.82495   0.84049   0.00000  Uiso   1.00
C151   C     0.56213   0.82181   0.74277   0.00000  Uiso   1.00
C152   C     0.86273   0.78985   0.86915   0.00000  Uiso   1.00
C153   C     0.88866   0.84567   0.90872   0.00000  Uiso   1.00
C154   C     0.94899   0.87716   0.88854   0.00000  Uiso   1.00
C155   C     0.96360   0.92706   0.93189   0.00000  Uiso   1.00
C156   C     0.86102   0.74521   0.92430   0.00000  Uiso   1.00
C157   C     0.89809   0.69222   0.91721   0.00000  Uiso   1.00
C158   C     0.88943   0.65754   0.97366   0.00000  Uiso   1.00
C159   C     0.78279   0.80101   0.85176   0.00000  Uiso   1.00
C160   C     0.75408   0.79491   0.78369   0.00000  Uiso   1.00
C161   C     0.67955   0.80719   0.77908   0.00000  Uiso   1.00
H162   H     0.74703   0.83627   0.02973   0.00000  Uiso   1.00
H163   H     0.82484   0.92696   0.06085   0.00000  Uiso   1.00
H164   H     0.77394   0.74205   0.08950   0.00000  Uiso   1.00
H165   H     0.62996   0.84472   0.95601   0.00000  Uiso   1.00
H166   H     0.93059   0.01967   0.06832   0.00000  Uiso   1.00
H167   H     0.82326   0.62977   0.12874   0.00000  Uiso   1.00
H168   H     0.51963   0.84629   0.84723   0.00000  Uiso   1.00
H169   H     0.89711   0.77605   0.82142   0.00000  Uiso   1.00
H170   H     0.98316   0.86343   0.84110   0.00000  Uiso   1.00
H171   H     0.93226   0.67852   0.86976   0.00000  Uiso   1.00
H172   H     0.78828   0.78120   0.73627   0.00000  Uiso   1.00
H173   H     0.05910   0.96811   0.88997   0.00000  Uiso   1.00
H174   H     0.95176   0.57821   0.95039   0.00000  Uiso   1.00
H175   H     0.64813   0.79473   0.66888   0.00000  Uiso   1.00
O176   O     0.04875   0.05245   0.99586   0.00000  Uiso   1.00
O177   O     0.90792   0.54091   0.07513   0.00000  Uiso   1.00
O178   O     0.50957   0.82498   0.70580   0.00000  Uiso   1.00
N179   N     0.94902   0.99555   0.02364   0.00000  Uiso   1.00
N180   N     0.84868   0.63102   0.08013   0.00000  Uiso   1.00
N181   N     0.56481   0.83343   0.81695   0.00000  Uiso   1.00
N182   N     0.01816   0.96781   0.92767   0.00000  Uiso   1.00
N183   N     0.91782   0.60328   0.98416   0.00000  Uiso   1.00
N184   N     0.63395   0.80569   0.72098   0.00000  Uiso   1.00
C185   C     0.64947   0.72111   0.21425   0.00000  Uiso   1.00
C186   C     0.71831   0.70518   0.25290   0.00000  Uiso   1.00
C187   C     0.77710   0.74110   0.26764   0.00000  Uiso   1.00
C188   C     0.83489   0.71845   0.30352   0.00000  Uiso   1.00
C189   C     0.94193   0.70233   0.36046   0.00000  Uiso   1.00
C190   C     0.58455   0.71088   0.26531   0.00000  Uiso   1.00
C191   C     0.53087   0.75159   0.29046   0.00000  Uiso   1.00
C192   C     0.47604   0.73373   0.33678   0.00000  Uiso   1.00
C193   C     0.37538   0.72644   0.41294   0.00000  Uiso   1.00
C194   C     0.64422   0.67592   0.15027   0.00000  Uiso   1.00
C195   C     0.64069   0.68725   0.07869   0.00000  Uiso   1.00
C196   C     0.63608   0.63996   0.02815   0.00000  Uiso   1.00
C197   C     0.62806   0.57840   0.92570   0.00000  Uiso   1.00
C198   C     0.64754   0.61699   0.25177   0.00000  Uiso   1.00
C199   C     0.71726   0.64863   0.27328   0.00000  Uiso   1.00
C200   C     0.77497   0.62591   0.30914   0.00000  Uiso   1.00
C201   C     0.83384   0.66180   0.32393   0.00000  Uiso   1.00
C202   C     0.58350   0.65433   0.28568   0.00000  Uiso   1.00
C203   C     0.52873   0.63640   0.33197   0.00000  Uiso   1.00
C204   C     0.47499   0.67708   0.35719   0.00000  Uiso   1.00
C205   C     0.64317   0.61937   0.17064   0.00000  Uiso   1.00
C206   C     0.63856   0.57206   0.12020   0.00000  Uiso   1.00
C207   C     0.63503   0.58331   0.04857   0.00000  Uiso   1.00
H208   H     0.65028   0.76513   0.19839   0.00000  Uiso   1.00
H209   H     0.77789   0.78487   0.25187   0.00000  Uiso   1.00
H210   H     0.53169   0.79535   0.27468   0.00000  Uiso   1.00
H211   H     0.64150   0.73102   0.06295   0.00000  Uiso   1.00
H212   H     0.91890   0.78181   0.32016   0.00000  Uiso   1.00
H213   H     0.39976   0.80391   0.36824   0.00000  Uiso   1.00
H214   H     0.63131   0.66825   0.92176   0.00000  Uiso   1.00
H215   H     0.64672   0.57296   0.26763   0.00000  Uiso   1.00
H216   H     0.77414   0.58215   0.32490   0.00000  Uiso   1.00
H217   H     0.52794   0.59263   0.34772   0.00000  Uiso   1.00
H218   H     0.63775   0.52830   0.13599   0.00000  Uiso   1.00
H219   H     0.91586   0.61728   0.37944   0.00000  Uiso   1.00
H220   H     0.39671   0.63938   0.42753   0.00000  Uiso   1.00
H221   H     0.62826   0.50372   0.98105   0.00000  Uiso   1.00
O222   O     0.00125   0.70906   0.38625   0.00000  Uiso   1.00
O223   O     0.32015   0.73805   0.44932   0.00000  Uiso   1.00
O224   O     0.62394   0.56007   0.86355   0.00000  Uiso   1.00
N225   N     0.90070   0.74182   0.32624   0.00000  Uiso   1.00
N226   N     0.41534   0.76248   0.37121   0.00000  Uiso   1.00
N227   N     0.63180   0.63566   0.95379   0.00000  Uiso   1.00
N228   N     0.89907   0.65329   0.35814   0.00000  Uiso   1.00
N229   N     0.41370   0.67395   0.40310   0.00000  Uiso   1.00
N230   N     0.63016   0.54713   0.98568   0.00000  Uiso   1.00
C231   C     0.39262   0.93234   0.88069   0.00000  Uiso   1.00
C232   C     0.45009   0.97232   0.91431   0.00000  Uiso   1.00
C233   C     0.52020   0.95579   0.93228   0.00000  Uiso   1.00
C234   C     0.56450   0.99885   0.96250   0.00000  Uiso   1.00
C235   C     0.65755   0.05219   0.01287   0.00000  Uiso   1.00
C236   C     0.37165   0.95768   0.81149   0.00000  Uiso   1.00
C237   C     0.37581   0.92884   0.74301   0.00000  Uiso   1.00
C238   C     0.35407   0.95958   0.68668   0.00000  Uiso   1.00
C239   C     0.32530   0.99017   0.57742   0.00000  Uiso   1.00
C240   C     0.32459   0.93956   0.93115   0.00000  Uiso   1.00
C241   C     0.28917   0.89549   0.96327   0.00000  Uiso   1.00
C242   C     0.22780   0.91097   0.00767   0.00000  Uiso   1.00
C243   C     0.12596   0.91345   0.08420   0.00000  Uiso   1.00
C244   C     0.34661   0.03821   0.90239   0.00000  Uiso   1.00
C245   C     0.42510   0.02983   0.92609   0.00000  Uiso   1.00
C246   C     0.46930   0.07293   0.95629   0.00000  Uiso   1.00
C247   C     0.53947   0.05646   0.97431   0.00000  Uiso   1.00
C248   C     0.34667   0.01518   0.82327   0.00000  Uiso   1.00
C249   C     0.32491   0.04597   0.76702   0.00000  Uiso   1.00
C250   C     0.32904   0.01719   0.69848   0.00000  Uiso   1.00
C251   C     0.29960   0.99707   0.94294   0.00000  Uiso   1.00
C252   C     0.23827   0.01263   0.98728   0.00000  Uiso   1.00
C253   C     0.20276   0.96858   0.01947   0.00000  Uiso   1.00
H254   H     0.41207   0.88757   0.87151   0.00000  Uiso   1.00
H255   H     0.53952   0.91128   0.92315   0.00000  Uiso   1.00
H256   H     0.39514   0.88433   0.73391   0.00000  Uiso   1.00
H257   H     0.30852   0.85099   0.95414   0.00000  Uiso   1.00
H258   H     0.66981   0.96294   0.98557   0.00000  Uiso   1.00
H259   H     0.36536   0.90611   0.58655   0.00000  Uiso   1.00
H260   H     0.18269   0.83580   0.05095   0.00000  Uiso   1.00
H261   H     0.32716   0.08298   0.91157   0.00000  Uiso   1.00
H262   H     0.44995   0.11742   0.96541   0.00000  Uiso   1.00
H263   H     0.30557   0.09047   0.77617   0.00000  Uiso   1.00
H264   H     0.21895   0.05713   0.99639   0.00000  Uiso   1.00
H265   H     0.59711   0.13025   0.01986   0.00000  Uiso   1.00
H266   H     0.29266   0.07342   0.62085   0.00000  Uiso   1.00
H267   H     0.11000   0.00311   0.08524   0.00000  Uiso   1.00
O268   O     0.71578   0.06573   0.03738   0.00000  Uiso   1.00
O269   O     0.31634   0.99117   0.51390   0.00000  Uiso   1.00
O270   O     0.07669   0.89893   0.12317   0.00000  Uiso   1.00
N271   N     0.63584   0.99759   0.98626   0.00000  Uiso   1.00
N272   N     0.35121   0.94446   0.61321   0.00000  Uiso   1.00
N273   N     0.18042   0.87872   0.04736   0.00000  Uiso   1.00
N274   N     0.59673   0.08762   0.00472   0.00000  Uiso   1.00
N275   N     0.31210   0.03449   0.63166   0.00000  Uiso   1.00
N276   N     0.14131   0.96875   0.06582   0.00000  Uiso   1.00
C277   C     0.15044   0.63772   0.84081   0.00000  Uiso   1.00
C278   C     0.10552   0.64749   0.77542   0.00000  Uiso   1.00
C279   C     0.07255   0.60479   0.73152   0.00000  Uiso   1.00
C280   C     0.03383   0.62256   0.67441   0.00000  Uiso   1.00
C281   C     0.96489   0.62886   0.57483   0.00000  Uiso   1.00
C282   C     0.11367   0.67501   0.90390   0.00000  Uiso   1.00
C283   C     0.08756   0.65545   0.96802   0.00000  Uiso   1.00
C284   C     0.05571   0.69638   0.01907   0.00000  Uiso   1.00
C285   C     0.99948   0.74540   0.11898   0.00000  Uiso   1.00
C286   C     0.22516   0.66432   0.82710   0.00000  Uiso   1.00
C287   C     0.29280   0.63578   0.82667   0.00000  Uiso   1.00
C288   C     0.35482   0.66773   0.81307   0.00000  Uiso   1.00
C289   C     0.47170   0.70016   0.79373   0.00000  Uiso   1.00
C290   C     0.14030   0.74521   0.81746   0.00000  Uiso   1.00
C291   C     0.10002   0.70587   0.76274   0.00000  Uiso   1.00
C292   C     0.06134   0.72371   0.70568   0.00000  Uiso   1.00
C293   C     0.02831   0.68105   0.66169   0.00000  Uiso   1.00
C294   C     0.10817   0.73339   0.89122   0.00000  Uiso   1.00
C295   C     0.07635   0.77437   0.94218   0.00000  Uiso   1.00
C296   C     0.05020   0.75487   0.00636   0.00000  Uiso   1.00
C297   C     0.21966   0.72270   0.81442   0.00000  Uiso   1.00
C298   C     0.28159   0.75470   0.80082   0.00000  Uiso   1.00
C299   C     0.34931   0.72621   0.80036   0.00000  Uiso   1.00
H300   H     0.15472   0.59227   0.85069   0.00000  Uiso   1.00
H301   H     0.07681   0.55962   0.74136   0.00000  Uiso   1.00
H302   H     0.09183   0.61026   0.97783   0.00000  Uiso   1.00
H303   H     0.29704   0.59060   0.83649   0.00000  Uiso   1.00
H304   H     0.98799   0.54917   0.61456   0.00000  Uiso   1.00
H305   H     0.01969   0.65596   0.11318   0.00000  Uiso   1.00
H306   H     0.45240   0.61450   0.81514   0.00000  Uiso   1.00
H307   H     0.13602   0.79066   0.80758   0.00000  Uiso   1.00
H308   H     0.05709   0.76890   0.69588   0.00000  Uiso   1.00
H309   H     0.07211   0.81954   0.93235   0.00000  Uiso   1.00
H310   H     0.27731   0.79988   0.79101   0.00000  Uiso   1.00
H311   H     0.97198   0.71903   0.57765   0.00000  Uiso   1.00
H312   H     0.00368   0.82582   0.07627   0.00000  Uiso   1.00
H313   H     0.43639   0.78436   0.77823   0.00000  Uiso   1.00
O314   O     0.92838   0.61620   0.52342   0.00000  Uiso   1.00
O315   O     0.96997   0.75631   0.17759   0.00000  Uiso   1.00
O316   O     0.53768   0.70191   0.78656   0.00000  Uiso   1.00
N317   N     0.99507   0.59213   0.62120   0.00000  Uiso   1.00
N318   N     0.02469   0.69197   0.08737   0.00000  Uiso   1.00
N319   N     0.42924   0.65321   0.80875   0.00000  Uiso   1.00
N320   N     0.98645   0.68353   0.60133   0.00000  Uiso   1.00
N321   N     0.01607   0.78337   0.06751   0.00000  Uiso   1.00
N322   N     0.42063   0.74461   0.78888   0.00000  Uiso   1.00
C323   C     0.47178   0.33254   0.82660   0.00000  Uiso   1.00
C324   C     0.47858   0.27029   0.79312   0.00000  Uiso   1.00
C325   C     0.46348   0.25135   0.72265   0.00000  Uiso   1.00
C326   C     0.47313   0.19268   0.70238   0.00000  Uiso   1.00
C327   C     0.48009   0.10185   0.64300   0.00000  Uiso   1.00
C328   C     0.54710   0.34754   0.85545   0.00000  Uiso   1.00
C329   C     0.58961   0.39355   0.83740   0.00000  Uiso   1.00
C330   C     0.65693   0.39991   0.86963   0.00000  Uiso   1.00
C331   C     0.77024   0.42903   0.90706   0.00000  Uiso   1.00
C332   C     0.41980   0.33148   0.89245   0.00000  Uiso   1.00
C333   C     0.35527   0.36401   0.90552   0.00000  Uiso   1.00
C334   C     0.31541   0.35686   0.96890   0.00000  Uiso   1.00
C335   C     0.23107   0.36105   0.06377   0.00000  Uiso   1.00
C336   C     0.51575   0.26203   0.91593   0.00000  Uiso   1.00
C337   C     0.50247   0.23200   0.84164   0.00000  Uiso   1.00
C338   C     0.51213   0.17334   0.82148   0.00000  Uiso   1.00
C339   C     0.49705   0.15431   0.75099   0.00000  Uiso   1.00
C340   C     0.57099   0.30924   0.90397   0.00000  Uiso   1.00
C341   C     0.63826   0.31554   0.93623   0.00000  Uiso   1.00
C342   C     0.68085   0.36154   0.91823   0.00000  Uiso   1.00
C343   C     0.44368   0.29318   0.94097   0.00000  Uiso   1.00
C344   C     0.40392   0.28599   0.00434   0.00000  Uiso   1.00
C345   C     0.33934   0.31850   0.01750   0.00000  Uiso   1.00
H346   H     0.45319   0.36236   0.78883   0.00000  Uiso   1.00
H347   H     0.44501   0.28101   0.68511   0.00000  Uiso   1.00
H348   H     0.57111   0.42318   0.79986   0.00000  Uiso   1.00
H349   H     0.33680   0.39364   0.86796   0.00000  Uiso   1.00
H350   H     0.44650   0.17392   0.59152   0.00000  Uiso   1.00
H351   H     0.71237   0.47372   0.83348   0.00000  Uiso   1.00
H352   H     0.21830   0.41143   0.97709   0.00000  Uiso   1.00
H353   H     0.53435   0.23222   0.95370   0.00000  Uiso   1.00
H354   H     0.53062   0.14371   0.85903   0.00000  Uiso   1.00
H355   H     0.65672   0.28589   0.97378   0.00000  Uiso   1.00
H356   H     0.42242   0.25635   0.04188   0.00000  Uiso   1.00
H357   H     0.51598   0.06249   0.73267   0.00000  Uiso   1.00
H358   H     0.78186   0.36229   0.97464   0.00000  Uiso   1.00
H359   H     0.28779   0.30000   0.11824   0.00000  Uiso   1.00
O360   O     0.47735   0.06233   0.59684   0.00000  Uiso   1.00
O361   O     0.82616   0.45567   0.91430   0.00000  Uiso   1.00
O362   O     0.17795   0.37394   0.10270   0.00000  Uiso   1.00
N363   N     0.46335   0.15984   0.63773   0.00000  Uiso   1.00
N364   N     0.71193   0.44013   0.86395   0.00000  Uiso   1.00
N365   N     0.25003   0.38190   0.99821   0.00000  Uiso   1.00
N366   N     0.50074   0.09988   0.71369   0.00000  Uiso   1.00
N367   N     0.74932   0.38017   0.93991   0.00000  Uiso   1.00
N368   N     0.28742   0.32194   0.07417   0.00000  Uiso   1.00
C369   C     0.56790   0.63532   0.59693   0.00000  Uiso   1.00
C370   C     0.54795   0.58516   0.54326   0.00000  Uiso   1.00
C371   C     0.48334   0.55429   0.54517   0.00000  Uiso   1.00
C372   C     0.47550   0.50995   0.49116   0.00000  Uiso   1.00
C373   C     0.43616   0.43406   0.41600   0.00000  Uiso   1.00
C374   C     0.58369   0.68607   0.55259   0.00000  Uiso   1.00
C375   C     0.54914   0.74003   0.56235   0.00000  Uiso   1.00
C376   C     0.57140   0.78064   0.51620   0.00000  Uiso   1.00
C377   C     0.58759   0.86142   0.45557   0.00000  Uiso   1.00
C378   C     0.64125   0.61839   0.62688   0.00000  Uiso   1.00
C379   C     0.65512   0.61548   0.69910   0.00000  Uiso   1.00
C380   C     0.72585   0.59912   0.71550   0.00000  Uiso   1.00
C381   C     0.83141   0.57483   0.77021   0.00000  Uiso   1.00
C382   C     0.66886   0.61148   0.49762   0.00000  Uiso   1.00
C383   C     0.60279   0.57222   0.48931   0.00000  Uiso   1.00
C384   C     0.59504   0.52791   0.43529   0.00000  Uiso   1.00
C385   C     0.53044   0.49698   0.43712   0.00000  Uiso   1.00
C386   C     0.63853   0.67312   0.49865   0.00000  Uiso   1.00
C387   C     0.66085   0.71366   0.45248   0.00000  Uiso   1.00
C388   C     0.62634   0.76767   0.46216   0.00000  Uiso   1.00
C389   C     0.69609   0.60545   0.57293   0.00000  Uiso   1.00
C390   C     0.76682   0.58910   0.58922   0.00000  Uiso   1.00
C391   C     0.78078   0.58615   0.66146   0.00000  Uiso   1.00
H392   H     0.52521   0.64540   0.63892   0.00000  Uiso   1.00
H393   H     0.44091   0.56432   0.58692   0.00000  Uiso   1.00
H394   H     0.50671   0.75004   0.60411   0.00000  Uiso   1.00
H395   H     0.61267   0.62550   0.74083   0.00000  Uiso   1.00
H396   H     0.37163   0.46874   0.50546   0.00000  Uiso   1.00
H397   H     0.51039   0.86034   0.54172   0.00000  Uiso   1.00
H398   H     0.73381   0.59772   0.83003   0.00000  Uiso   1.00
H399   H     0.71156   0.60140   0.45562   0.00000  Uiso   1.00
H400   H     0.63749   0.51791   0.39355   0.00000  Uiso   1.00
H401   H     0.70329   0.70363   0.41074   0.00000  Uiso   1.00
H402   H     0.80924   0.57908   0.54747   0.00000  Uiso   1.00
H403   H     0.53118   0.43106   0.34851   0.00000  Uiso   1.00
H404   H     0.66994   0.82267   0.38477   0.00000  Uiso   1.00
H405   H     0.89336   0.56005   0.67308   0.00000  Uiso   1.00
O406   O     0.39930   0.39578   0.38945   0.00000  Uiso   1.00
O407   O     0.58136   0.90956   0.43703   0.00000  Uiso   1.00
O408   O     0.87448   0.56500   0.81529   0.00000  Uiso   1.00
N409   N     0.41935   0.47132   0.47704   0.00000  Uiso   1.00
N410   N     0.54907   0.83745   0.51094   0.00000  Uiso   1.00
N411   N     0.75796   0.59193   0.78049   0.00000  Uiso   1.00
N412   N     0.50520   0.45105   0.39259   0.00000  Uiso   1.00
N413   N     0.63492   0.81718   0.42649   0.00000  Uiso   1.00
N414   N     0.84381   0.57166   0.69604   0.00000  Uiso   1.00
C415   C     0.80878   0.14143   0.23205   0.00000  Uiso   1.00
C416   C     0.76404   0.09000   0.25249   0.00000  Uiso   1.00
C417   C     0.74059   0.04523   0.20505   0.00000  Uiso   1.00
C418   C     0.70026   0.00224   0.23437   0.00000  Uiso   1.00
C419   C     0.63323   0.92213   0.25483   0.00000  Uiso   1.00
C420   C     0.76419   0.19523   0.26088   0.00000  Uiso   1.00
C421   C     0.74089   0.23894   0.22048   0.00000  Uiso   1.00
C422   C     0.70069   0.28453   0.25687   0.00000  Uiso   1.00
C423   C     0.63396   0.36782   0.29036   0.00000  Uiso   1.00
C424   C     0.87758   0.14127   0.27629   0.00000  Uiso   1.00
C425   C     0.94962   0.13963   0.24886   0.00000  Uiso   1.00
C426   C     0.00489   0.13980   0.29822   0.00000  Uiso   1.00
C427   C     0.11421   0.13931   0.35564   0.00000  Uiso   1.00
C428   C     0.77885   0.14467   0.36849   0.00000  Uiso   1.00
C429   C     0.74778   0.09177   0.32660   0.00000  Uiso   1.00
C430   C     0.70748   0.04883   0.35600   0.00000  Uiso   1.00
C431   C     0.68398   0.00400   0.30861   0.00000  Uiso   1.00
C432   C     0.74794   0.19700   0.33498   0.00000  Uiso   1.00
C433   C     0.70778   0.24253   0.37144   0.00000  Uiso   1.00
C434   C     0.68441   0.28630   0.33111   0.00000  Uiso   1.00
C435   C     0.86133   0.14304   0.35040   0.00000  Uiso   1.00
C436   C     0.91651   0.14322   0.39982   0.00000  Uiso   1.00
C437   C     0.98861   0.14157   0.37247   0.00000  Uiso   1.00
H438   H     0.82143   0.14006   0.17436   0.00000  Uiso   1.00
H439   H     0.75317   0.04389   0.14770   0.00000  Uiso   1.00
H440   H     0.75348   0.23757   0.16314   0.00000  Uiso   1.00
H441   H     0.96217   0.13826   0.19151   0.00000  Uiso   1.00
H442   H     0.67031   0.93805   0.15082   0.00000  Uiso   1.00
H443   H     0.67097   0.34645   0.18338   0.00000  Uiso   1.00
H444   H     0.11105   0.13705   0.24320   0.00000  Uiso   1.00
H445   H     0.76620   0.14605   0.42619   0.00000  Uiso   1.00
H446   H     0.69491   0.05020   0.41336   0.00000  Uiso   1.00
H447   H     0.69521   0.24389   0.42879   0.00000  Uiso   1.00
H448   H     0.90391   0.14458   0.45716   0.00000  Uiso   1.00
H449   H     0.62302   0.94318   0.36644   0.00000  Uiso   1.00
H450   H     0.62368   0.35158   0.39899   0.00000  Uiso   1.00
H451   H     0.06376   0.14218   0.45882   0.00000  Uiso   1.00
O452   O     0.60074   0.87747   0.24564   0.00000  Uiso   1.00
O453   O     0.60163   0.41327   0.28835   0.00000  Uiso   1.00
O454   O     0.17899   0.13854   0.36684   0.00000  Uiso   1.00
N455   N     0.66897   0.95241   0.20333   0.00000  Uiso   1.00
N456   N     0.66958   0.33423   0.23376   0.00000  Uiso   1.00
N457   N     0.08102   0.13847   0.28970   0.00000  Uiso   1.00
N458   N     0.64353   0.95517   0.31935   0.00000  Uiso   1.00
N459   N     0.64414   0.33699   0.34979   0.00000  Uiso   1.00
N460   N     0.05557   0.14123   0.40572   0.00000  Uiso   1.00
C461   C     0.95296   0.22220   0.03118   0.00000  Uiso   1.00
C462   C     0.89581   0.21144   0.97400   0.00000  Uiso   1.00
C463   C     0.84829   0.16527   0.96828   0.00000  Uiso   1.00
C464   C     0.80008   0.16316   0.91218   0.00000  Uiso   1.00
C465   C     0.71145   0.13996   0.83076   0.00000  Uiso   1.00
C466   C     0.02657   0.22642   0.99036   0.00000  Uiso   1.00
C467   C     0.08901   0.19286   0.99841   0.00000  Uiso   1.00
C468   C     0.15088   0.20338   0.95610   0.00000  Uiso   1.00
C469   C     0.26528   0.20347   0.90013   0.00000  Uiso   1.00
C470   C     0.93574   0.28243   0.06788   0.00000  Uiso   1.00
C471   C     0.92182   0.29596   0.14112   0.00000  Uiso   1.00
C472   C     0.90724   0.35364   0.16407   0.00000  Uiso   1.00
C473   C     0.88061   0.44070   0.22846   0.00000  Uiso   1.00
C474   C     0.95183   0.30057   0.94173   0.00000  Uiso   1.00
C475   C     0.89520   0.25401   0.92541   0.00000  Uiso   1.00
C476   C     0.84704   0.25197   0.86931   0.00000  Uiso   1.00
C477   C     0.79946   0.20581   0.86351   0.00000  Uiso   1.00
C478   C     0.02596   0.26899   0.94178   0.00000  Uiso   1.00
C479   C     0.08776   0.27957   0.89945   0.00000  Uiso   1.00
C480   C     0.15027   0.24602   0.90743   0.00000  Uiso   1.00
C481   C     0.93513   0.32500   0.01930   0.00000  Uiso   1.00
C482   C     0.92057   0.38267   0.04215   0.00000  Uiso   1.00
C483   C     0.90662   0.39629   0.11540   0.00000  Uiso   1.00
H484   H     0.95344   0.18906   0.06900   0.00000  Uiso   1.00
H485   H     0.84879   0.13233   0.00588   0.00000  Uiso   1.00
H486   H     0.08947   0.15992   0.03602   0.00000  Uiso   1.00
H487   H     0.92230   0.26301   0.17870   0.00000  Uiso   1.00
H488   H     0.73250   0.08820   0.91446   0.00000  Uiso   1.00
H489   H     0.24000   0.14639   0.97803   0.00000  Uiso   1.00
H490   H     0.88750   0.36378   0.27889   0.00000  Uiso   1.00
H491   H     0.95136   0.33371   0.90390   0.00000  Uiso   1.00
H492   H     0.84658   0.28492   0.83172   0.00000  Uiso   1.00
H493   H     0.08726   0.31251   0.86186   0.00000  Uiso   1.00
H494   H     0.92010   0.41560   0.00454   0.00000  Uiso   1.00
H495   H     0.73071   0.21204   0.77310   0.00000  Uiso   1.00
H496   H     0.23821   0.27024   0.83667   0.00000  Uiso   1.00
H497   H     0.88571   0.48762   0.13753   0.00000  Uiso   1.00
O498   O     0.66274   0.11540   0.79926   0.00000  Uiso   1.00
O499   O     0.32856   0.19176   0.88267   0.00000  Uiso   1.00
O500   O     0.86608   0.47696   0.27739   0.00000  Uiso   1.00
N501   N     0.74645   0.12405   0.89111   0.00000  Uiso   1.00
N502   N     0.22093   0.17845   0.95053   0.00000  Uiso   1.00
N503   N     0.89139   0.38169   0.23181   0.00000  Uiso   1.00
N504   N     0.74549   0.19069   0.81504   0.00000  Uiso   1.00
N505   N     0.21996   0.24509   0.87447   0.00000  Uiso   1.00
N506   N     0.89042   0.44833   0.15575   0.00000  Uiso   1.00
C507   C     0.15468   0.98176   0.40469   0.00000  Uiso   1.00
C508   C     0.09726   0.95127   0.35825   0.00000  Uiso   1.00
C509   C     0.03263   0.97618   0.33714   0.00000  Uiso   1.00
C510   C     0.98734   0.94103   0.29470   0.00000  Uiso   1.00
C511   C     0.89532   0.90249   0.22574   0.00000  Uiso   1.00
C512   C     0.16316   0.94626   0.46889   0.00000  Uiso   1.00
C513   C     0.15395   0.96697   0.54080   0.00000  Uiso   1.00
C514   C     0.16416   0.92760   0.59148   0.00000  Uiso   1.00
C515   C     0.17451   0.88131   0.69429   0.00000  Uiso   1.00
C516   C     0.22726   0.97461   0.36100   0.00000  Uiso   1.00
C517   C     0.27196   0.01915   0.34222   0.00000  Uiso   1.00
C518   C     0.33615   0.00365   0.30209   0.00000  Uiso   1.00
C519   C     0.44602   0.00137   0.23740   0.00000  Uiso   1.00
C520   C     0.18920   0.87504   0.36683   0.00000  Uiso   1.00
C521   C     0.11601   0.89330   0.33769   0.00000  Uiso   1.00
C522   C     0.07082   0.85810   0.29526   0.00000  Uiso   1.00
C523   C     0.00613   0.88296   0.27409   0.00000  Uiso   1.00
C524   C     0.18191   0.88829   0.44833   0.00000  Uiso   1.00
C525   C     0.19214   0.84889   0.49891   0.00000  Uiso   1.00
C526   C     0.18295   0.86953   0.57088   0.00000  Uiso   1.00
C527   C     0.24602   0.91664   0.34044   0.00000  Uiso   1.00
C528   C     0.31015   0.90107   0.30033   0.00000  Uiso   1.00
C529   C     0.35494   0.94558   0.28149   0.00000  Uiso   1.00
H530   H     0.14008   0.02689   0.42071   0.00000  Uiso   1.00
H531   H     0.01813   0.02104   0.35308   0.00000  Uiso   1.00
H532   H     0.13945   0.01183   0.55669   0.00000  Uiso   1.00
H533   H     0.25743   0.06400   0.35815   0.00000  Uiso   1.00
H534   H     0.89118   0.98898   0.26905   0.00000  Uiso   1.00
H535   H     0.14701   0.96957   0.69839   0.00000  Uiso   1.00
H536   H     0.39581   0.07959   0.27972   0.00000  Uiso   1.00
H537   H     0.20380   0.82990   0.35083   0.00000  Uiso   1.00
H538   H     0.08534   0.81324   0.27936   0.00000  Uiso   1.00
H539   H     0.20666   0.80404   0.48298   0.00000  Uiso   1.00
H540   H     0.32465   0.85621   0.28443   0.00000  Uiso   1.00
H541   H     0.94573   0.82033   0.20922   0.00000  Uiso   1.00
H542   H     0.20156   0.80092   0.63856   0.00000  Uiso   1.00
H543   H     0.45036   0.91094   0.21989   0.00000  Uiso   1.00
O544   O     0.83937   0.89725   0.19340   0.00000  Uiso   1.00
O545   O     0.17502   0.87178   0.75668   0.00000  Uiso   1.00
O546   O     0.50144   0.01613   0.20739   0.00000  Uiso   1.00
N547   N     0.92028   0.95158   0.26476   0.00000  Uiso   1.00
N548   N     0.15946   0.93343   0.66617   0.00000  Uiso   1.00
N549   N     0.39207   0.03629   0.27476   0.00000  Uiso   1.00
N550   N     0.94964   0.86083   0.23257   0.00000  Uiso   1.00
N551   N     0.18881   0.84268   0.63398   0.00000  Uiso   1.00
N552   N     0.42143   0.94554   0.24257   0.00000  Uiso   1.00
