data_job_04047
_audit_creation_date              2018-12-19
_audit_creation_method            'Materials Studio'
_symmetry_space_group_name_H-M    'P1'
_symmetry_Int_Tables_number       1
_symmetry_cell_setting            triclinic
loop_
_symmetry_equiv_pos_as_xyz
  x,y,z
_cell_length_a                    43.3496
_cell_length_b                    11.7101
_cell_length_c                    13.7262
_cell_angle_alpha                 90.0000
_cell_angle_beta                  96.8743
_cell_angle_gamma                 90.0000
loop_
_atom_site_label
_atom_site_type_symbol
_atom_site_fract_x
_atom_site_fract_y
_atom_site_fract_z
_atom_site_U_iso_or_equiv
_atom_site_adp_type
_atom_site_occupancy
C1     C     0.42053   0.27712   0.12136   0.00000  Uiso   1.00
C2     C     0.42773   0.20776   0.21536   0.00000  Uiso   1.00
C3     C     0.44828   0.11668   0.22870   0.00000  Uiso   1.00
C4     C     0.45161   0.06441   0.32014   0.00000  Uiso   1.00
C5     C     0.46530   0.95095   0.45462   0.00000  Uiso   1.00
C6     C     0.38545   0.26979   0.09389   0.00000  Uiso   1.00
C7     C     0.37045   0.23089   0.00508   0.00000  Uiso   1.00
C8     C     0.33820   0.23086   0.99427   0.00000  Uiso   1.00
C9     C     0.28625   0.21380   0.94013   0.00000  Uiso   1.00
C10    C     0.42743   0.40118   0.14988   0.00000  Uiso   1.00
C11    C     0.44773   0.47277   0.10813   0.00000  Uiso   1.00
C12    C     0.45081   0.58337   0.14445   0.00000  Uiso   1.00
C13    C     0.46405   0.77032   0.17725   0.00000  Uiso   1.00
C14    C     0.38990   0.34626   0.26005   0.00000  Uiso   1.00
C15    C     0.41109   0.24531   0.29069   0.00000  Uiso   1.00
C16    C     0.41439   0.19317   0.38214   0.00000  Uiso   1.00
C17    C     0.43495   0.10203   0.39561   0.00000  Uiso   1.00
C18    C     0.36881   0.30735   0.16921   0.00000  Uiso   1.00
C19    C     0.33657   0.30739   0.15852   0.00000  Uiso   1.00
C20    C     0.32153   0.26848   0.06973   0.00000  Uiso   1.00
C21    C     0.41079   0.43874   0.22521   0.00000  Uiso   1.00
C22    C     0.41384   0.54926   0.26158   0.00000  Uiso   1.00
C23    C     0.43414   0.62100   0.21991   0.00000  Uiso   1.00
H24    H     0.43348   0.24788   0.06271   0.00000  Uiso   1.00
H25    H     0.46115   0.08763   0.17038   0.00000  Uiso   1.00
H26    H     0.38334   0.20184   0.94680   0.00000  Uiso   1.00
H27    H     0.46060   0.44368   0.04984   0.00000  Uiso   1.00
H28    H     0.48448   0.92650   0.32296   0.00000  Uiso   1.00
H29    H     0.32040   0.16735   0.85151   0.00000  Uiso   1.00
H30    H     0.48333   0.67731   0.06880   0.00000  Uiso   1.00
H31    H     0.37695   0.37550   0.31870   0.00000  Uiso   1.00
H32    H     0.40151   0.22225   0.44042   0.00000  Uiso   1.00
H33    H     0.32370   0.33646   0.21683   0.00000  Uiso   1.00
H34    H     0.40096   0.57829   0.31988   0.00000  Uiso   1.00
H35    H     0.43607   0.03576   0.54213   0.00000  Uiso   1.00
H36    H     0.27200   0.27662   0.07068   0.00000  Uiso   1.00
H37    H     0.43492   0.78657   0.28797   0.00000  Uiso   1.00
O38    O     0.47745   0.87799   0.50798   0.00000  Uiso   1.00
O39    O     0.26219   0.19400   0.88946   0.00000  Uiso   1.00
O40    O     0.47594   0.86305   0.17454   0.00000  Uiso   1.00
N41    N     0.46972   0.97326   0.35784   0.00000  Uiso   1.00
N42    N     0.31632   0.19842   0.91707   0.00000  Uiso   1.00
N43    N     0.46863   0.67520   0.12020   0.00000  Uiso   1.00
N44    N     0.44367   0.03205   0.47578   0.00000  Uiso   1.00
N45    N     0.29028   0.25722   0.03501   0.00000  Uiso   1.00
N46    N     0.44259   0.73400   0.23813   0.00000  Uiso   1.00
C47    C     0.92053   0.77712   0.12136   0.00000  Uiso   1.00
C48    C     0.92773   0.70776   0.21536   0.00000  Uiso   1.00
C49    C     0.94828   0.61668   0.22870   0.00000  Uiso   1.00
C50    C     0.95161   0.56441   0.32014   0.00000  Uiso   1.00
C51    C     0.96530   0.45095   0.45462   0.00000  Uiso   1.00
C52    C     0.88545   0.76979   0.09389   0.00000  Uiso   1.00
C53    C     0.87045   0.73089   0.00508   0.00000  Uiso   1.00
C54    C     0.83820   0.73086   0.99427   0.00000  Uiso   1.00
C55    C     0.78625   0.71380   0.94013   0.00000  Uiso   1.00
C56    C     0.92743   0.90118   0.14988   0.00000  Uiso   1.00
C57    C     0.94773   0.97277   0.10813   0.00000  Uiso   1.00
C58    C     0.95081   0.08337   0.14445   0.00000  Uiso   1.00
C59    C     0.96405   0.27032   0.17725   0.00000  Uiso   1.00
C60    C     0.88990   0.84626   0.26005   0.00000  Uiso   1.00
C61    C     0.91109   0.74531   0.29069   0.00000  Uiso   1.00
C62    C     0.91439   0.69317   0.38214   0.00000  Uiso   1.00
C63    C     0.93495   0.60203   0.39561   0.00000  Uiso   1.00
C64    C     0.86881   0.80735   0.16921   0.00000  Uiso   1.00
C65    C     0.83657   0.80739   0.15852   0.00000  Uiso   1.00
C66    C     0.82153   0.76848   0.06973   0.00000  Uiso   1.00
C67    C     0.91079   0.93874   0.22521   0.00000  Uiso   1.00
C68    C     0.91384   0.04926   0.26158   0.00000  Uiso   1.00
C69    C     0.93414   0.12100   0.21991   0.00000  Uiso   1.00
H70    H     0.93348   0.74788   0.06271   0.00000  Uiso   1.00
H71    H     0.96115   0.58763   0.17038   0.00000  Uiso   1.00
H72    H     0.88334   0.70184   0.94680   0.00000  Uiso   1.00
H73    H     0.96060   0.94368   0.04984   0.00000  Uiso   1.00
H74    H     0.98448   0.42650   0.32296   0.00000  Uiso   1.00
H75    H     0.82040   0.66735   0.85151   0.00000  Uiso   1.00
H76    H     0.98333   0.17731   0.06880   0.00000  Uiso   1.00
H77    H     0.87695   0.87550   0.31870   0.00000  Uiso   1.00
H78    H     0.90151   0.72225   0.44042   0.00000  Uiso   1.00
H79    H     0.82370   0.83646   0.21683   0.00000  Uiso   1.00
H80    H     0.90096   0.07829   0.31988   0.00000  Uiso   1.00
H81    H     0.93607   0.53576   0.54213   0.00000  Uiso   1.00
H82    H     0.77200   0.77662   0.07068   0.00000  Uiso   1.00
H83    H     0.93492   0.28657   0.28797   0.00000  Uiso   1.00
O84    O     0.97745   0.37799   0.50798   0.00000  Uiso   1.00
O85    O     0.76219   0.69400   0.88946   0.00000  Uiso   1.00
O86    O     0.97594   0.36305   0.17454   0.00000  Uiso   1.00
N87    N     0.96972   0.47326   0.35784   0.00000  Uiso   1.00
N88    N     0.81632   0.69842   0.91707   0.00000  Uiso   1.00
N89    N     0.96863   0.17520   0.12020   0.00000  Uiso   1.00
N90    N     0.94367   0.53205   0.47578   0.00000  Uiso   1.00
N91    N     0.79028   0.75722   0.03501   0.00000  Uiso   1.00
N92    N     0.94259   0.23400   0.23813   0.00000  Uiso   1.00
C93    C     0.57947   0.27712   0.37864   0.00000  Uiso   1.00
C94    C     0.57227   0.20776   0.28464   0.00000  Uiso   1.00
C95    C     0.55172   0.11668   0.27130   0.00000  Uiso   1.00
C96    C     0.54839   0.06441   0.17986   0.00000  Uiso   1.00
C97    C     0.53470   0.95095   0.04538   0.00000  Uiso   1.00
C98    C     0.61455   0.26979   0.40611   0.00000  Uiso   1.00
C99    C     0.62955   0.23089   0.49492   0.00000  Uiso   1.00
C100   C     0.66180   0.23086   0.50573   0.00000  Uiso   1.00
C101   C     0.71375   0.21380   0.55987   0.00000  Uiso   1.00
C102   C     0.57257   0.40118   0.35012   0.00000  Uiso   1.00
C103   C     0.55227   0.47277   0.39187   0.00000  Uiso   1.00
C104   C     0.54919   0.58337   0.35555   0.00000  Uiso   1.00
C105   C     0.53595   0.77032   0.32275   0.00000  Uiso   1.00
C106   C     0.61010   0.34626   0.23995   0.00000  Uiso   1.00
C107   C     0.58891   0.24531   0.20931   0.00000  Uiso   1.00
C108   C     0.58561   0.19317   0.11786   0.00000  Uiso   1.00
C109   C     0.56505   0.10203   0.10439   0.00000  Uiso   1.00
C110   C     0.63119   0.30735   0.33079   0.00000  Uiso   1.00
C111   C     0.66343   0.30739   0.34148   0.00000  Uiso   1.00
C112   C     0.67847   0.26848   0.43027   0.00000  Uiso   1.00
C113   C     0.58921   0.43874   0.27479   0.00000  Uiso   1.00
C114   C     0.58616   0.54926   0.23842   0.00000  Uiso   1.00
C115   C     0.56586   0.62100   0.28009   0.00000  Uiso   1.00
H116   H     0.56652   0.24788   0.43729   0.00000  Uiso   1.00
H117   H     0.53885   0.08763   0.32962   0.00000  Uiso   1.00
H118   H     0.61666   0.20184   0.55320   0.00000  Uiso   1.00
H119   H     0.53940   0.44368   0.45016   0.00000  Uiso   1.00
H120   H     0.51552   0.92650   0.17704   0.00000  Uiso   1.00
H121   H     0.67960   0.16735   0.64849   0.00000  Uiso   1.00
H122   H     0.51667   0.67731   0.43120   0.00000  Uiso   1.00
H123   H     0.62305   0.37550   0.18130   0.00000  Uiso   1.00
H124   H     0.59849   0.22225   0.05958   0.00000  Uiso   1.00
H125   H     0.67630   0.33646   0.28317   0.00000  Uiso   1.00
H126   H     0.59904   0.57829   0.18012   0.00000  Uiso   1.00
H127   H     0.56393   0.03576   0.95787   0.00000  Uiso   1.00
H128   H     0.72800   0.27662   0.42932   0.00000  Uiso   1.00
H129   H     0.56508   0.78657   0.21203   0.00000  Uiso   1.00
O130   O     0.52255   0.87799   0.99202   0.00000  Uiso   1.00
O131   O     0.73781   0.19400   0.61054   0.00000  Uiso   1.00
O132   O     0.52406   0.86305   0.32546   0.00000  Uiso   1.00
N133   N     0.53028   0.97326   0.14216   0.00000  Uiso   1.00
N134   N     0.68368   0.19842   0.58293   0.00000  Uiso   1.00
N135   N     0.53137   0.67520   0.37980   0.00000  Uiso   1.00
N136   N     0.55633   0.03205   0.02422   0.00000  Uiso   1.00
N137   N     0.70972   0.25722   0.46499   0.00000  Uiso   1.00
N138   N     0.55741   0.73400   0.26187   0.00000  Uiso   1.00
C139   C     0.07947   0.77712   0.37864   0.00000  Uiso   1.00
C140   C     0.07227   0.70776   0.28464   0.00000  Uiso   1.00
C141   C     0.05172   0.61668   0.27130   0.00000  Uiso   1.00
C142   C     0.04839   0.56441   0.17986   0.00000  Uiso   1.00
C143   C     0.03470   0.45095   0.04538   0.00000  Uiso   1.00
C144   C     0.11455   0.76979   0.40611   0.00000  Uiso   1.00
C145   C     0.12955   0.73089   0.49492   0.00000  Uiso   1.00
C146   C     0.16180   0.73086   0.50573   0.00000  Uiso   1.00
C147   C     0.21375   0.71380   0.55987   0.00000  Uiso   1.00
C148   C     0.07257   0.90118   0.35012   0.00000  Uiso   1.00
C149   C     0.05227   0.97277   0.39187   0.00000  Uiso   1.00
C150   C     0.04919   0.08337   0.35555   0.00000  Uiso   1.00
C151   C     0.03595   0.27032   0.32275   0.00000  Uiso   1.00
C152   C     0.11010   0.84626   0.23995   0.00000  Uiso   1.00
C153   C     0.08891   0.74531   0.20931   0.00000  Uiso   1.00
C154   C     0.08561   0.69317   0.11786   0.00000  Uiso   1.00
C155   C     0.06505   0.60203   0.10439   0.00000  Uiso   1.00
C156   C     0.13119   0.80735   0.33079   0.00000  Uiso   1.00
C157   C     0.16343   0.80739   0.34148   0.00000  Uiso   1.00
C158   C     0.17847   0.76848   0.43027   0.00000  Uiso   1.00
C159   C     0.08921   0.93874   0.27479   0.00000  Uiso   1.00
C160   C     0.08616   0.04926   0.23842   0.00000  Uiso   1.00
C161   C     0.06586   0.12100   0.28009   0.00000  Uiso   1.00
H162   H     0.06652   0.74788   0.43729   0.00000  Uiso   1.00
H163   H     0.03885   0.58763   0.32962   0.00000  Uiso   1.00
H164   H     0.11666   0.70184   0.55320   0.00000  Uiso   1.00
H165   H     0.03940   0.94368   0.45016   0.00000  Uiso   1.00
H166   H     0.01552   0.42650   0.17704   0.00000  Uiso   1.00
H167   H     0.17960   0.66735   0.64849   0.00000  Uiso   1.00
H168   H     0.01667   0.17731   0.43120   0.00000  Uiso   1.00
H169   H     0.12305   0.87550   0.18130   0.00000  Uiso   1.00
H170   H     0.09849   0.72225   0.05958   0.00000  Uiso   1.00
H171   H     0.17630   0.83646   0.28317   0.00000  Uiso   1.00
H172   H     0.09904   0.07829   0.18012   0.00000  Uiso   1.00
H173   H     0.06393   0.53576   0.95787   0.00000  Uiso   1.00
H174   H     0.22800   0.77662   0.42932   0.00000  Uiso   1.00
H175   H     0.06508   0.28657   0.21203   0.00000  Uiso   1.00
O176   O     0.02255   0.37799   0.99202   0.00000  Uiso   1.00
O177   O     0.23781   0.69400   0.61054   0.00000  Uiso   1.00
O178   O     0.02406   0.36305   0.32546   0.00000  Uiso   1.00
N179   N     0.03028   0.47326   0.14216   0.00000  Uiso   1.00
N180   N     0.18368   0.69842   0.58293   0.00000  Uiso   1.00
N181   N     0.03137   0.17520   0.37980   0.00000  Uiso   1.00
N182   N     0.05633   0.53205   0.02422   0.00000  Uiso   1.00
N183   N     0.20972   0.75722   0.46499   0.00000  Uiso   1.00
N184   N     0.05741   0.23400   0.26187   0.00000  Uiso   1.00
C185   C     0.57947   0.72288   0.87864   0.00000  Uiso   1.00
C186   C     0.57227   0.79224   0.78464   0.00000  Uiso   1.00
C187   C     0.55172   0.88332   0.77130   0.00000  Uiso   1.00
C188   C     0.54839   0.93559   0.67986   0.00000  Uiso   1.00
C189   C     0.53470   0.04905   0.54538   0.00000  Uiso   1.00
C190   C     0.61455   0.73021   0.90611   0.00000  Uiso   1.00
C191   C     0.62955   0.76911   0.99492   0.00000  Uiso   1.00
C192   C     0.66180   0.76914   0.00573   0.00000  Uiso   1.00
C193   C     0.71375   0.78620   0.05987   0.00000  Uiso   1.00
C194   C     0.57257   0.59882   0.85012   0.00000  Uiso   1.00
C195   C     0.55227   0.52723   0.89187   0.00000  Uiso   1.00
C196   C     0.54919   0.41663   0.85555   0.00000  Uiso   1.00
C197   C     0.53595   0.22968   0.82275   0.00000  Uiso   1.00
C198   C     0.61010   0.65374   0.73995   0.00000  Uiso   1.00
C199   C     0.58891   0.75469   0.70931   0.00000  Uiso   1.00
C200   C     0.58561   0.80683   0.61786   0.00000  Uiso   1.00
C201   C     0.56505   0.89797   0.60439   0.00000  Uiso   1.00
C202   C     0.63119   0.69265   0.83079   0.00000  Uiso   1.00
C203   C     0.66343   0.69261   0.84148   0.00000  Uiso   1.00
C204   C     0.67847   0.73152   0.93027   0.00000  Uiso   1.00
C205   C     0.58921   0.56126   0.77479   0.00000  Uiso   1.00
C206   C     0.58616   0.45074   0.73842   0.00000  Uiso   1.00
C207   C     0.56586   0.37900   0.78009   0.00000  Uiso   1.00
H208   H     0.56652   0.75212   0.93729   0.00000  Uiso   1.00
H209   H     0.53885   0.91237   0.82962   0.00000  Uiso   1.00
H210   H     0.61666   0.79816   0.05320   0.00000  Uiso   1.00
H211   H     0.53940   0.55632   0.95016   0.00000  Uiso   1.00
H212   H     0.51552   0.07350   0.67704   0.00000  Uiso   1.00
H213   H     0.67960   0.83265   0.14849   0.00000  Uiso   1.00
H214   H     0.51667   0.32269   0.93120   0.00000  Uiso   1.00
H215   H     0.62305   0.62450   0.68130   0.00000  Uiso   1.00
H216   H     0.59849   0.77775   0.55958   0.00000  Uiso   1.00
H217   H     0.67630   0.66354   0.78317   0.00000  Uiso   1.00
H218   H     0.59904   0.42171   0.68012   0.00000  Uiso   1.00
H219   H     0.56393   0.96424   0.45787   0.00000  Uiso   1.00
H220   H     0.72800   0.72338   0.92932   0.00000  Uiso   1.00
H221   H     0.56508   0.21343   0.71203   0.00000  Uiso   1.00
O222   O     0.52255   0.12201   0.49202   0.00000  Uiso   1.00
O223   O     0.73781   0.80600   0.11054   0.00000  Uiso   1.00
O224   O     0.52406   0.13695   0.82546   0.00000  Uiso   1.00
N225   N     0.53028   0.02674   0.64216   0.00000  Uiso   1.00
N226   N     0.68368   0.80158   0.08293   0.00000  Uiso   1.00
N227   N     0.53137   0.32480   0.87980   0.00000  Uiso   1.00
N228   N     0.55633   0.96795   0.52422   0.00000  Uiso   1.00
N229   N     0.70972   0.74278   0.96499   0.00000  Uiso   1.00
N230   N     0.55741   0.26600   0.76187   0.00000  Uiso   1.00
C231   C     0.07947   0.22288   0.87864   0.00000  Uiso   1.00
C232   C     0.07227   0.29224   0.78464   0.00000  Uiso   1.00
C233   C     0.05172   0.38332   0.77130   0.00000  Uiso   1.00
C234   C     0.04839   0.43559   0.67986   0.00000  Uiso   1.00
C235   C     0.03470   0.54905   0.54538   0.00000  Uiso   1.00
C236   C     0.11455   0.23021   0.90611   0.00000  Uiso   1.00
C237   C     0.12955   0.26911   0.99492   0.00000  Uiso   1.00
C238   C     0.16180   0.26914   0.00573   0.00000  Uiso   1.00
C239   C     0.21375   0.28620   0.05987   0.00000  Uiso   1.00
C240   C     0.07257   0.09882   0.85012   0.00000  Uiso   1.00
C241   C     0.05227   0.02723   0.89187   0.00000  Uiso   1.00
C242   C     0.04919   0.91663   0.85555   0.00000  Uiso   1.00
C243   C     0.03595   0.72968   0.82275   0.00000  Uiso   1.00
C244   C     0.11010   0.15374   0.73995   0.00000  Uiso   1.00
C245   C     0.08891   0.25469   0.70931   0.00000  Uiso   1.00
C246   C     0.08561   0.30683   0.61786   0.00000  Uiso   1.00
C247   C     0.06505   0.39797   0.60439   0.00000  Uiso   1.00
C248   C     0.13119   0.19265   0.83079   0.00000  Uiso   1.00
C249   C     0.16343   0.19261   0.84148   0.00000  Uiso   1.00
C250   C     0.17847   0.23152   0.93027   0.00000  Uiso   1.00
C251   C     0.08921   0.06126   0.77479   0.00000  Uiso   1.00
C252   C     0.08616   0.95074   0.73842   0.00000  Uiso   1.00
C253   C     0.06586   0.87900   0.78009   0.00000  Uiso   1.00
H254   H     0.06652   0.25212   0.93729   0.00000  Uiso   1.00
H255   H     0.03885   0.41237   0.82962   0.00000  Uiso   1.00
H256   H     0.11666   0.29816   0.05320   0.00000  Uiso   1.00
H257   H     0.03940   0.05632   0.95016   0.00000  Uiso   1.00
H258   H     0.01552   0.57350   0.67704   0.00000  Uiso   1.00
H259   H     0.17960   0.33265   0.14849   0.00000  Uiso   1.00
H260   H     0.01667   0.82269   0.93120   0.00000  Uiso   1.00
H261   H     0.12305   0.12450   0.68130   0.00000  Uiso   1.00
H262   H     0.09849   0.27775   0.55958   0.00000  Uiso   1.00
H263   H     0.17630   0.16354   0.78317   0.00000  Uiso   1.00
H264   H     0.09904   0.92171   0.68012   0.00000  Uiso   1.00
H265   H     0.06393   0.46424   0.45787   0.00000  Uiso   1.00
H266   H     0.22800   0.22338   0.92932   0.00000  Uiso   1.00
H267   H     0.06508   0.71343   0.71203   0.00000  Uiso   1.00
O268   O     0.02255   0.62201   0.49202   0.00000  Uiso   1.00
O269   O     0.23781   0.30600   0.11054   0.00000  Uiso   1.00
O270   O     0.02406   0.63695   0.82546   0.00000  Uiso   1.00
N271   N     0.03028   0.52674   0.64216   0.00000  Uiso   1.00
N272   N     0.18368   0.30158   0.08293   0.00000  Uiso   1.00
N273   N     0.03137   0.82480   0.87980   0.00000  Uiso   1.00
N274   N     0.05633   0.46795   0.52422   0.00000  Uiso   1.00
N275   N     0.20972   0.24278   0.96499   0.00000  Uiso   1.00
N276   N     0.05741   0.76600   0.76187   0.00000  Uiso   1.00
C277   C     0.42053   0.72288   0.62136   0.00000  Uiso   1.00
C278   C     0.42773   0.79224   0.71536   0.00000  Uiso   1.00
C279   C     0.44828   0.88332   0.72870   0.00000  Uiso   1.00
C280   C     0.45161   0.93559   0.82014   0.00000  Uiso   1.00
C281   C     0.46530   0.04905   0.95462   0.00000  Uiso   1.00
C282   C     0.38545   0.73021   0.59389   0.00000  Uiso   1.00
C283   C     0.37045   0.76911   0.50508   0.00000  Uiso   1.00
C284   C     0.33820   0.76914   0.49427   0.00000  Uiso   1.00
C285   C     0.28625   0.78620   0.44013   0.00000  Uiso   1.00
C286   C     0.42743   0.59882   0.64988   0.00000  Uiso   1.00
C287   C     0.44773   0.52723   0.60813   0.00000  Uiso   1.00
C288   C     0.45081   0.41663   0.64445   0.00000  Uiso   1.00
C289   C     0.46405   0.22968   0.67725   0.00000  Uiso   1.00
C290   C     0.38990   0.65374   0.76005   0.00000  Uiso   1.00
C291   C     0.41109   0.75469   0.79069   0.00000  Uiso   1.00
C292   C     0.41439   0.80683   0.88214   0.00000  Uiso   1.00
C293   C     0.43495   0.89797   0.89561   0.00000  Uiso   1.00
C294   C     0.36881   0.69265   0.66921   0.00000  Uiso   1.00
C295   C     0.33657   0.69261   0.65852   0.00000  Uiso   1.00
C296   C     0.32153   0.73152   0.56973   0.00000  Uiso   1.00
C297   C     0.41079   0.56126   0.72521   0.00000  Uiso   1.00
C298   C     0.41384   0.45074   0.76158   0.00000  Uiso   1.00
C299   C     0.43414   0.37900   0.71991   0.00000  Uiso   1.00
H300   H     0.43348   0.75212   0.56271   0.00000  Uiso   1.00
H301   H     0.46115   0.91237   0.67038   0.00000  Uiso   1.00
H302   H     0.38334   0.79816   0.44680   0.00000  Uiso   1.00
H303   H     0.46060   0.55632   0.54984   0.00000  Uiso   1.00
H304   H     0.48448   0.07350   0.82296   0.00000  Uiso   1.00
H305   H     0.32040   0.83265   0.35151   0.00000  Uiso   1.00
H306   H     0.48333   0.32269   0.56880   0.00000  Uiso   1.00
H307   H     0.37695   0.62450   0.81870   0.00000  Uiso   1.00
H308   H     0.40151   0.77775   0.94042   0.00000  Uiso   1.00
H309   H     0.32370   0.66354   0.71683   0.00000  Uiso   1.00
H310   H     0.40096   0.42171   0.81988   0.00000  Uiso   1.00
H311   H     0.43607   0.96424   0.04213   0.00000  Uiso   1.00
H312   H     0.27200   0.72338   0.57068   0.00000  Uiso   1.00
H313   H     0.43492   0.21343   0.78797   0.00000  Uiso   1.00
O314   O     0.47745   0.12201   0.00798   0.00000  Uiso   1.00
O315   O     0.26219   0.80600   0.38946   0.00000  Uiso   1.00
O316   O     0.47594   0.13695   0.67454   0.00000  Uiso   1.00
N317   N     0.46972   0.02674   0.85784   0.00000  Uiso   1.00
N318   N     0.31632   0.80158   0.41707   0.00000  Uiso   1.00
N319   N     0.46863   0.32480   0.62020   0.00000  Uiso   1.00
N320   N     0.44367   0.96795   0.97578   0.00000  Uiso   1.00
N321   N     0.29028   0.74278   0.53501   0.00000  Uiso   1.00
N322   N     0.44259   0.26600   0.73813   0.00000  Uiso   1.00
C323   C     0.92053   0.22288   0.62136   0.00000  Uiso   1.00
C324   C     0.92773   0.29224   0.71536   0.00000  Uiso   1.00
C325   C     0.94828   0.38332   0.72870   0.00000  Uiso   1.00
C326   C     0.95161   0.43559   0.82014   0.00000  Uiso   1.00
C327   C     0.96530   0.54905   0.95462   0.00000  Uiso   1.00
C328   C     0.88545   0.23021   0.59389   0.00000  Uiso   1.00
C329   C     0.87045   0.26911   0.50508   0.00000  Uiso   1.00
C330   C     0.83820   0.26914   0.49427   0.00000  Uiso   1.00
C331   C     0.78625   0.28620   0.44013   0.00000  Uiso   1.00
C332   C     0.92743   0.09882   0.64988   0.00000  Uiso   1.00
C333   C     0.94773   0.02723   0.60813   0.00000  Uiso   1.00
C334   C     0.95081   0.91663   0.64445   0.00000  Uiso   1.00
C335   C     0.96405   0.72968   0.67725   0.00000  Uiso   1.00
C336   C     0.88990   0.15374   0.76005   0.00000  Uiso   1.00
C337   C     0.91109   0.25469   0.79069   0.00000  Uiso   1.00
C338   C     0.91439   0.30683   0.88214   0.00000  Uiso   1.00
C339   C     0.93495   0.39797   0.89561   0.00000  Uiso   1.00
C340   C     0.86881   0.19265   0.66921   0.00000  Uiso   1.00
C341   C     0.83657   0.19261   0.65852   0.00000  Uiso   1.00
C342   C     0.82153   0.23152   0.56973   0.00000  Uiso   1.00
C343   C     0.91079   0.06126   0.72521   0.00000  Uiso   1.00
C344   C     0.91384   0.95074   0.76158   0.00000  Uiso   1.00
C345   C     0.93414   0.87900   0.71991   0.00000  Uiso   1.00
H346   H     0.93348   0.25212   0.56271   0.00000  Uiso   1.00
H347   H     0.96115   0.41237   0.67038   0.00000  Uiso   1.00
H348   H     0.88334   0.29816   0.44680   0.00000  Uiso   1.00
H349   H     0.96060   0.05632   0.54984   0.00000  Uiso   1.00
H350   H     0.98448   0.57350   0.82296   0.00000  Uiso   1.00
H351   H     0.82040   0.33265   0.35151   0.00000  Uiso   1.00
H352   H     0.98333   0.82269   0.56880   0.00000  Uiso   1.00
H353   H     0.87695   0.12450   0.81870   0.00000  Uiso   1.00
H354   H     0.90151   0.27775   0.94042   0.00000  Uiso   1.00
H355   H     0.82370   0.16354   0.71683   0.00000  Uiso   1.00
H356   H     0.90096   0.92171   0.81988   0.00000  Uiso   1.00
H357   H     0.93607   0.46424   0.04213   0.00000  Uiso   1.00
H358   H     0.77200   0.22338   0.57068   0.00000  Uiso   1.00
H359   H     0.93492   0.71343   0.78797   0.00000  Uiso   1.00
O360   O     0.97745   0.62201   0.00798   0.00000  Uiso   1.00
O361   O     0.76219   0.30600   0.38946   0.00000  Uiso   1.00
O362   O     0.97594   0.63695   0.67454   0.00000  Uiso   1.00
N363   N     0.96972   0.52674   0.85784   0.00000  Uiso   1.00
N364   N     0.81632   0.30158   0.41707   0.00000  Uiso   1.00
N365   N     0.96863   0.82480   0.62020   0.00000  Uiso   1.00
N366   N     0.94367   0.46795   0.97578   0.00000  Uiso   1.00
N367   N     0.79028   0.24278   0.53501   0.00000  Uiso   1.00
N368   N     0.94259   0.76600   0.73813   0.00000  Uiso   1.00
