data_job_00179
_audit_creation_date              2018-12-19
_audit_creation_method            'Materials Studio'
_symmetry_space_group_name_H-M    'P1'
_symmetry_Int_Tables_number       1
_symmetry_cell_setting            triclinic
loop_
_symmetry_equiv_pos_as_xyz
  x,y,z
_cell_length_a                    14.6390
_cell_length_b                    15.3992
_cell_length_c                    10.2894
_cell_angle_alpha                 90.0000
_cell_angle_beta                  83.2355
_cell_angle_gamma                 90.0000
loop_
_atom_site_label
_atom_site_type_symbol
_atom_site_fract_x
_atom_site_fract_y
_atom_site_fract_z
_atom_site_U_iso_or_equiv
_atom_site_adp_type
_atom_site_occupancy
C1     C     0.21314   0.58022   0.31481   0.00000  Uiso   1.00
C2     C     0.20691   0.52813   0.44159   0.00000  Uiso   1.00
C3     C     0.16754   0.44651   0.46141   0.00000  Uiso   1.00
C4     C     0.16868   0.40975   0.58443   0.00000  Uiso   1.00
C5     C     0.15301   0.32230   0.76617   0.00000  Uiso   1.00
C6     C     0.16693   0.66715   0.35039   0.00000  Uiso   1.00
C7     C     0.09395   0.70242   0.29351   0.00000  Uiso   1.00
C8     C     0.06144   0.78270   0.33975   0.00000  Uiso   1.00
C9     C     0.98375   0.91110   0.37984   0.00000  Uiso   1.00
C10    C     0.31494   0.60011   0.27800   0.00000  Uiso   1.00
C11    C     0.36641   0.57903   0.16024   0.00000  Uiso   1.00
C12    C     0.45852   0.60289   0.14552   0.00000  Uiso   1.00
C13    C     0.61063   0.62721   0.07321   0.00000  Uiso   1.00
C14    C     0.28519   0.66009   0.49804   0.00000  Uiso   1.00
C15    C     0.24604   0.57152   0.54112   0.00000  Uiso   1.00
C16    C     0.24725   0.53487   0.66413   0.00000  Uiso   1.00
C17    C     0.20788   0.45321   0.68413   0.00000  Uiso   1.00
C18    C     0.20606   0.71053   0.44991   0.00000  Uiso   1.00
C19    C     0.17366   0.79078   0.49624   0.00000  Uiso   1.00
C20    C     0.10064   0.82616   0.43945   0.00000  Uiso   1.00
C21    C     0.35408   0.64349   0.37753   0.00000  Uiso   1.00
C22    C     0.44612   0.66740   0.36297   0.00000  Uiso   1.00
C23    C     0.49772   0.64636   0.24522   0.00000  Uiso   1.00
H24    H     0.18267   0.54645   0.23733   0.00000  Uiso   1.00
H25    H     0.13725   0.41296   0.38437   0.00000  Uiso   1.00
H26    H     0.06369   0.66883   0.21649   0.00000  Uiso   1.00
H27    H     0.33610   0.54546   0.08325   0.00000  Uiso   1.00
H28    H     0.10413   0.28411   0.59130   0.00000  Uiso   1.00
H29    H     0.94902   0.82364   0.23729   0.00000  Uiso   1.00
H30    H     0.52347   0.56350   0.95632   0.00000  Uiso   1.00
H31    H     0.31565   0.69387   0.57552   0.00000  Uiso   1.00
H32    H     0.27753   0.56846   0.74113   0.00000  Uiso   1.00
H33    H     0.20396   0.82434   0.57325   0.00000  Uiso   1.00
H34    H     0.47638   0.70097   0.44001   0.00000  Uiso   1.00
H35    H     0.21798   0.41032   0.88086   0.00000  Uiso   1.00
H36    H     0.06288   0.94986   0.52685   0.00000  Uiso   1.00
H37    H     0.63732   0.68971   0.24588   0.00000  Uiso   1.00
O38    O     0.13355   0.26208   0.83893   0.00000  Uiso   1.00
O39    O     0.93007   0.96993   0.37447   0.00000  Uiso   1.00
O40    O     0.68373   0.62862   0.00584   0.00000  Uiso   1.00
N41    N     0.13617   0.33102   0.63671   0.00000  Uiso   1.00
N42    N     0.99115   0.83544   0.30575   0.00000  Uiso   1.00
N43    N     0.52820   0.59225   0.04305   0.00000  Uiso   1.00
N44    N     0.19743   0.39893   0.79252   0.00000  Uiso   1.00
N45    N     0.05241   0.90336   0.46156   0.00000  Uiso   1.00
N46    N     0.58946   0.66016   0.19886   0.00000  Uiso   1.00
C47    C     0.78686   0.08022   0.18519   0.00000  Uiso   1.00
C48    C     0.79309   0.02813   0.05841   0.00000  Uiso   1.00
C49    C     0.83246   0.94651   0.03859   0.00000  Uiso   1.00
C50    C     0.83132   0.90975   0.91557   0.00000  Uiso   1.00
C51    C     0.84699   0.82230   0.73383   0.00000  Uiso   1.00
C52    C     0.83307   0.16715   0.14961   0.00000  Uiso   1.00
C53    C     0.90605   0.20242   0.20649   0.00000  Uiso   1.00
C54    C     0.93856   0.28270   0.16025   0.00000  Uiso   1.00
C55    C     0.01625   0.41110   0.12016   0.00000  Uiso   1.00
C56    C     0.68506   0.10011   0.22200   0.00000  Uiso   1.00
C57    C     0.63359   0.07903   0.33976   0.00000  Uiso   1.00
C58    C     0.54148   0.10289   0.35448   0.00000  Uiso   1.00
C59    C     0.38937   0.12721   0.42679   0.00000  Uiso   1.00
C60    C     0.71481   0.16009   0.00196   0.00000  Uiso   1.00
C61    C     0.75396   0.07152   0.95888   0.00000  Uiso   1.00
C62    C     0.75275   0.03487   0.83587   0.00000  Uiso   1.00
C63    C     0.79212   0.95321   0.81587   0.00000  Uiso   1.00
C64    C     0.79394   0.21053   0.05009   0.00000  Uiso   1.00
C65    C     0.82634   0.29078   0.00376   0.00000  Uiso   1.00
C66    C     0.89936   0.32616   0.06055   0.00000  Uiso   1.00
C67    C     0.64592   0.14349   0.12247   0.00000  Uiso   1.00
C68    C     0.55388   0.16740   0.13703   0.00000  Uiso   1.00
C69    C     0.50228   0.14636   0.25478   0.00000  Uiso   1.00
H70    H     0.81733   0.04645   0.26267   0.00000  Uiso   1.00
H71    H     0.86275   0.91296   0.11563   0.00000  Uiso   1.00
H72    H     0.93631   0.16883   0.28351   0.00000  Uiso   1.00
H73    H     0.66390   0.04546   0.41675   0.00000  Uiso   1.00
H74    H     0.89587   0.78411   0.90870   0.00000  Uiso   1.00
H75    H     0.05098   0.32364   0.26271   0.00000  Uiso   1.00
H76    H     0.47653   0.06350   0.54368   0.00000  Uiso   1.00
H77    H     0.68435   0.19387   0.92448   0.00000  Uiso   1.00
H78    H     0.72247   0.06846   0.75887   0.00000  Uiso   1.00
H79    H     0.79604   0.32434   0.92675   0.00000  Uiso   1.00
H80    H     0.52362   0.20097   0.05999   0.00000  Uiso   1.00
H81    H     0.78202   0.91032   0.61914   0.00000  Uiso   1.00
H82    H     0.93712   0.44986   0.97315   0.00000  Uiso   1.00
H83    H     0.36268   0.18971   0.25412   0.00000  Uiso   1.00
O84    O     0.86645   0.76208   0.66107   0.00000  Uiso   1.00
O85    O     0.06993   0.46993   0.12553   0.00000  Uiso   1.00
O86    O     0.31627   0.12862   0.49416   0.00000  Uiso   1.00
N87    N     0.86383   0.83102   0.86329   0.00000  Uiso   1.00
N88    N     0.00885   0.33544   0.19425   0.00000  Uiso   1.00
N89    N     0.47180   0.09225   0.45695   0.00000  Uiso   1.00
N90    N     0.80257   0.89893   0.70748   0.00000  Uiso   1.00
N91    N     0.94759   0.40336   0.03844   0.00000  Uiso   1.00
N92    N     0.41054   0.16016   0.30114   0.00000  Uiso   1.00
C93    C     0.78686   0.41978   0.68519   0.00000  Uiso   1.00
C94    C     0.79309   0.47187   0.55841   0.00000  Uiso   1.00
C95    C     0.83246   0.55349   0.53859   0.00000  Uiso   1.00
C96    C     0.83132   0.59025   0.41557   0.00000  Uiso   1.00
C97    C     0.84699   0.67770   0.23383   0.00000  Uiso   1.00
C98    C     0.83307   0.33285   0.64961   0.00000  Uiso   1.00
C99    C     0.90605   0.29758   0.70649   0.00000  Uiso   1.00
C100   C     0.93856   0.21730   0.66025   0.00000  Uiso   1.00
C101   C     0.01625   0.08890   0.62016   0.00000  Uiso   1.00
C102   C     0.68506   0.39989   0.72200   0.00000  Uiso   1.00
C103   C     0.63359   0.42097   0.83976   0.00000  Uiso   1.00
C104   C     0.54148   0.39711   0.85448   0.00000  Uiso   1.00
C105   C     0.38937   0.37279   0.92679   0.00000  Uiso   1.00
C106   C     0.71481   0.33991   0.50196   0.00000  Uiso   1.00
C107   C     0.75396   0.42848   0.45888   0.00000  Uiso   1.00
C108   C     0.75275   0.46513   0.33587   0.00000  Uiso   1.00
C109   C     0.79212   0.54679   0.31587   0.00000  Uiso   1.00
C110   C     0.79394   0.28947   0.55009   0.00000  Uiso   1.00
C111   C     0.82634   0.20922   0.50376   0.00000  Uiso   1.00
C112   C     0.89936   0.17384   0.56055   0.00000  Uiso   1.00
C113   C     0.64592   0.35651   0.62247   0.00000  Uiso   1.00
C114   C     0.55388   0.33260   0.63703   0.00000  Uiso   1.00
C115   C     0.50228   0.35364   0.75478   0.00000  Uiso   1.00
H116   H     0.81733   0.45355   0.76267   0.00000  Uiso   1.00
H117   H     0.86275   0.58704   0.61563   0.00000  Uiso   1.00
H118   H     0.93631   0.33117   0.78351   0.00000  Uiso   1.00
H119   H     0.66390   0.45454   0.91675   0.00000  Uiso   1.00
H120   H     0.89587   0.71589   0.40870   0.00000  Uiso   1.00
H121   H     0.05098   0.17636   0.76271   0.00000  Uiso   1.00
H122   H     0.47653   0.43650   0.04368   0.00000  Uiso   1.00
H123   H     0.68435   0.30613   0.42448   0.00000  Uiso   1.00
H124   H     0.72247   0.43154   0.25887   0.00000  Uiso   1.00
H125   H     0.79604   0.17566   0.42675   0.00000  Uiso   1.00
H126   H     0.52362   0.29903   0.55999   0.00000  Uiso   1.00
H127   H     0.78202   0.58968   0.11914   0.00000  Uiso   1.00
H128   H     0.93712   0.05014   0.47315   0.00000  Uiso   1.00
H129   H     0.36268   0.31029   0.75412   0.00000  Uiso   1.00
O130   O     0.86645   0.73792   0.16107   0.00000  Uiso   1.00
O131   O     0.06993   0.03007   0.62553   0.00000  Uiso   1.00
O132   O     0.31627   0.37138   0.99416   0.00000  Uiso   1.00
N133   N     0.86383   0.66898   0.36329   0.00000  Uiso   1.00
N134   N     0.00885   0.16456   0.69425   0.00000  Uiso   1.00
N135   N     0.47180   0.40775   0.95695   0.00000  Uiso   1.00
N136   N     0.80257   0.60107   0.20748   0.00000  Uiso   1.00
N137   N     0.94759   0.09664   0.53844   0.00000  Uiso   1.00
N138   N     0.41054   0.33984   0.80114   0.00000  Uiso   1.00
C139   C     0.21314   0.91978   0.81481   0.00000  Uiso   1.00
C140   C     0.20691   0.97187   0.94159   0.00000  Uiso   1.00
C141   C     0.16754   0.05349   0.96141   0.00000  Uiso   1.00
C142   C     0.16868   0.09025   0.08443   0.00000  Uiso   1.00
C143   C     0.15301   0.17770   0.26617   0.00000  Uiso   1.00
C144   C     0.16693   0.83285   0.85039   0.00000  Uiso   1.00
C145   C     0.09395   0.79758   0.79351   0.00000  Uiso   1.00
C146   C     0.06144   0.71730   0.83975   0.00000  Uiso   1.00
C147   C     0.98375   0.58890   0.87984   0.00000  Uiso   1.00
C148   C     0.31494   0.89989   0.77800   0.00000  Uiso   1.00
C149   C     0.36641   0.92097   0.66024   0.00000  Uiso   1.00
C150   C     0.45852   0.89711   0.64552   0.00000  Uiso   1.00
C151   C     0.61063   0.87279   0.57321   0.00000  Uiso   1.00
C152   C     0.28519   0.83991   0.99804   0.00000  Uiso   1.00
C153   C     0.24604   0.92848   0.04112   0.00000  Uiso   1.00
C154   C     0.24725   0.96513   0.16413   0.00000  Uiso   1.00
C155   C     0.20788   0.04679   0.18413   0.00000  Uiso   1.00
C156   C     0.20606   0.78947   0.94991   0.00000  Uiso   1.00
C157   C     0.17366   0.70922   0.99624   0.00000  Uiso   1.00
C158   C     0.10064   0.67384   0.93945   0.00000  Uiso   1.00
C159   C     0.35408   0.85651   0.87753   0.00000  Uiso   1.00
C160   C     0.44612   0.83260   0.86297   0.00000  Uiso   1.00
C161   C     0.49772   0.85364   0.74522   0.00000  Uiso   1.00
H162   H     0.18267   0.95355   0.73733   0.00000  Uiso   1.00
H163   H     0.13725   0.08704   0.88437   0.00000  Uiso   1.00
H164   H     0.06369   0.83117   0.71649   0.00000  Uiso   1.00
H165   H     0.33610   0.95454   0.58325   0.00000  Uiso   1.00
H166   H     0.10413   0.21589   0.09130   0.00000  Uiso   1.00
H167   H     0.94902   0.67636   0.73729   0.00000  Uiso   1.00
H168   H     0.52347   0.93650   0.45632   0.00000  Uiso   1.00
H169   H     0.31565   0.80613   0.07552   0.00000  Uiso   1.00
H170   H     0.27753   0.93154   0.24113   0.00000  Uiso   1.00
H171   H     0.20396   0.67566   0.07325   0.00000  Uiso   1.00
H172   H     0.47638   0.79903   0.94001   0.00000  Uiso   1.00
H173   H     0.21798   0.08968   0.38086   0.00000  Uiso   1.00
H174   H     0.06288   0.55014   0.02685   0.00000  Uiso   1.00
H175   H     0.63732   0.81029   0.74588   0.00000  Uiso   1.00
O176   O     0.13355   0.23792   0.33893   0.00000  Uiso   1.00
O177   O     0.93007   0.53007   0.87447   0.00000  Uiso   1.00
O178   O     0.68373   0.87138   0.50584   0.00000  Uiso   1.00
N179   N     0.13617   0.16898   0.13671   0.00000  Uiso   1.00
N180   N     0.99115   0.66456   0.80575   0.00000  Uiso   1.00
N181   N     0.52820   0.90775   0.54305   0.00000  Uiso   1.00
N182   N     0.19743   0.10107   0.29252   0.00000  Uiso   1.00
N183   N     0.05241   0.59664   0.96156   0.00000  Uiso   1.00
N184   N     0.58946   0.83984   0.69886   0.00000  Uiso   1.00
