data_job_07033
_audit_creation_date              2018-12-19
_audit_creation_method            'Materials Studio'
_symmetry_space_group_name_H-M    'P1'
_symmetry_Int_Tables_number       1
_symmetry_cell_setting            triclinic
loop_
_symmetry_equiv_pos_as_xyz
  x,y,z
_cell_length_a                    15.1955
_cell_length_b                    15.7572
_cell_length_c                    36.0385
_cell_angle_alpha                 79.8299
_cell_angle_beta                  93.3016
_cell_angle_gamma                 64.7562
loop_
_atom_site_label
_atom_site_type_symbol
_atom_site_fract_x
_atom_site_fract_y
_atom_site_fract_z
_atom_site_U_iso_or_equiv
_atom_site_adp_type
_atom_site_occupancy
C1     C     0.38816   0.70050   0.58210   0.00000  Uiso   1.00
C2     C     0.36473   0.61806   0.57679   0.00000  Uiso   1.00
C3     C     0.39334   0.56581   0.54876   0.00000  Uiso   1.00
C4     C     0.36455   0.49321   0.54870   0.00000  Uiso   1.00
C5     C     0.33656   0.36821   0.53632   0.00000  Uiso   1.00
C6     C     0.28934   0.78653   0.58069   0.00000  Uiso   1.00
C7     C     0.25458   0.87593   0.55594   0.00000  Uiso   1.00
C8     C     0.16232   0.94515   0.55917   0.00000  Uiso   1.00
C9     C     0.01732   0.08172   0.55286   0.00000  Uiso   1.00
C10    C     0.44048   0.67224   0.62291   0.00000  Uiso   1.00
C11    C     0.53279   0.66557   0.63367   0.00000  Uiso   1.00
C12    C     0.56778   0.63860   0.67244   0.00000  Uiso   1.00
C13    C     0.65745   0.59773   0.73170   0.00000  Uiso   1.00
C14    C     0.28615   0.66448   0.63183   0.00000  Uiso   1.00
C15    C     0.30932   0.59850   0.60380   0.00000  Uiso   1.00
C16    C     0.28048   0.52596   0.60378   0.00000  Uiso   1.00
C17    C     0.30904   0.47361   0.57576   0.00000  Uiso   1.00
C18    C     0.23393   0.76697   0.60769   0.00000  Uiso   1.00
C19    C     0.14171   0.83608   0.61096   0.00000  Uiso   1.00
C20    C     0.10681   0.92556   0.58622   0.00000  Uiso   1.00
C21    C     0.38508   0.65268   0.64992   0.00000  Uiso   1.00
C22    C     0.41993   0.62572   0.68868   0.00000  Uiso   1.00
C23    C     0.51227   0.61901   0.69950   0.00000  Uiso   1.00
H24    H     0.43129   0.71573   0.56107   0.00000  Uiso   1.00
H25    H     0.43622   0.58098   0.52786   0.00000  Uiso   1.00
H26    H     0.29748   0.89105   0.53505   0.00000  Uiso   1.00
H27    H     0.57565   0.68072   0.61276   0.00000  Uiso   1.00
H28    H     0.41721   0.42297   0.50294   0.00000  Uiso   1.00
H29    H     0.12468   0.07678   0.51810   0.00000  Uiso   1.00
H30    H     0.71126   0.63326   0.68197   0.00000  Uiso   1.00
H31    H     0.24300   0.64926   0.65286   0.00000  Uiso   1.00
H32    H     0.23760   0.51084   0.62468   0.00000  Uiso   1.00
H33    H     0.09886   0.82092   0.63186   0.00000  Uiso   1.00
H34    H     0.37703   0.61059   0.70958   0.00000  Uiso   1.00
H35    H     0.25600   0.36604   0.58152   0.00000  Uiso   1.00
H36    H     0.96348   0.01986   0.59668   0.00000  Uiso   1.00
H37    H     0.55005   0.57634   0.76055   0.00000  Uiso   1.00
O38    O     0.33641   0.30467   0.52203   0.00000  Uiso   1.00
O39    O     0.95265   0.16245   0.54192   0.00000  Uiso   1.00
O40    O     0.72222   0.58057   0.75692   0.00000  Uiso   1.00
N41    N     0.38003   0.42855   0.52531   0.00000  Uiso   1.00
N42    N     0.10653   0.03982   0.53947   0.00000  Uiso   1.00
N43    N     0.65492   0.62520   0.69268   0.00000  Uiso   1.00
N44    N     0.29328   0.39792   0.56759   0.00000  Uiso   1.00
N45    N     0.01978   0.00919   0.58176   0.00000  Uiso   1.00
N46    N     0.56817   0.59457   0.73497   0.00000  Uiso   1.00
C47    C     0.77532   0.67727   0.60253   0.00000  Uiso   1.00
C48    C     0.74614   0.75761   0.62429   0.00000  Uiso   1.00
C49    C     0.65311   0.83364   0.62033   0.00000  Uiso   1.00
C50    C     0.64139   0.89969   0.64281   0.00000  Uiso   1.00
C51    C     0.58414   0.02593   0.67270   0.00000  Uiso   1.00
C52    C     0.86098   0.67862   0.58280   0.00000  Uiso   1.00
C53    C     0.86450   0.68822   0.54395   0.00000  Uiso   1.00
C54    C     0.94946   0.68777   0.53151   0.00000  Uiso   1.00
C55    C     0.07053   0.69131   0.49698   0.00000  Uiso   1.00
C56    C     0.81795   0.58333   0.63270   0.00000  Uiso   1.00
C57    C     0.78531   0.51280   0.63580   0.00000  Uiso   1.00
C58    C     0.83406   0.43211   0.66537   0.00000  Uiso   1.00
C59    C     0.88832   0.28770   0.70831   0.00000  Uiso   1.00
C60    C     0.91994   0.65937   0.64950   0.00000  Uiso   1.00
C61    C     0.82469   0.74788   0.64980   0.00000  Uiso   1.00
C62    C     0.81311   0.81383   0.67229   0.00000  Uiso   1.00
C63    C     0.72008   0.88995   0.66837   0.00000  Uiso   1.00
C64    C     0.93953   0.66890   0.60830   0.00000  Uiso   1.00
C65    C     0.02450   0.66842   0.59591   0.00000  Uiso   1.00
C66    C     0.02815   0.67803   0.55706   0.00000  Uiso   1.00
C67    C     0.89650   0.57360   0.65821   0.00000  Uiso   1.00
C68    C     0.94531   0.49300   0.68777   0.00000  Uiso   1.00
C69    C     0.91275   0.42236   0.69092   0.00000  Uiso   1.00
H70    H     0.71417   0.68484   0.58267   0.00000  Uiso   1.00
H71    H     0.59234   0.84114   0.60058   0.00000  Uiso   1.00
H72    H     0.80371   0.69574   0.52422   0.00000  Uiso   1.00
H73    H     0.72453   0.52035   0.61606   0.00000  Uiso   1.00
H74    H     0.49192   0.01016   0.63168   0.00000  Uiso   1.00
H75    H     0.93761   0.70354   0.47066   0.00000  Uiso   1.00
H76    H     0.77065   0.33369   0.66432   0.00000  Uiso   1.00
H77    H     0.98109   0.65180   0.66936   0.00000  Uiso   1.00
H78    H     0.87391   0.80629   0.69203   0.00000  Uiso   1.00
H79    H     0.08528   0.66088   0.61566   0.00000  Uiso   1.00
H80    H     0.00609   0.48550   0.70750   0.00000  Uiso   1.00
H81    H     0.72045   0.98187   0.70590   0.00000  Uiso   1.00
H82    H     0.16615   0.67525   0.54488   0.00000  Uiso   1.00
H83    H     0.99918   0.30540   0.73854   0.00000  Uiso   1.00
O84    O     0.53087   0.09826   0.68213   0.00000  Uiso   1.00
O85    O     0.11561   0.69596   0.47088   0.00000  Uiso   1.00
O86    O     0.89654   0.21074   0.72496   0.00000  Uiso   1.00
N87    N     0.56041   0.98229   0.64604   0.00000  Uiso   1.00
N88    N     0.97710   0.69563   0.49550   0.00000  Uiso   1.00
N89    N     0.82102   0.34985   0.67655   0.00000  Uiso   1.00
N90    N     0.68338   0.96707   0.68598   0.00000  Uiso   1.00
N91    N     0.10007   0.68041   0.53544   0.00000  Uiso   1.00
N92    N     0.94399   0.33462   0.71649   0.00000  Uiso   1.00
C93    C     0.71518   0.26722   0.59983   0.00000  Uiso   1.00
C94    C     0.81741   0.26285   0.60529   0.00000  Uiso   1.00
C95    C     0.84462   0.33093   0.58672   0.00000  Uiso   1.00
C96    C     0.94170   0.31379   0.59565   0.00000  Uiso   1.00
C97    C     0.09020   0.31951   0.60007   0.00000  Uiso   1.00
C98    C     0.72903   0.17415   0.58838   0.00000  Uiso   1.00
C99    C     0.68193   0.16765   0.55560   0.00000  Uiso   1.00
C100   C     0.70461   0.07585   0.55030   0.00000  Uiso   1.00
C101   C     0.71585   0.94385   0.52849   0.00000  Uiso   1.00
C102   C     0.68409   0.26083   0.63931   0.00000  Uiso   1.00
C103   C     0.59918   0.32720   0.64936   0.00000  Uiso   1.00
C104   C     0.58402   0.30836   0.68694   0.00000  Uiso   1.00
C105   C     0.52548   0.31095   0.74421   0.00000  Uiso   1.00
C106   C     0.83921   0.11573   0.64870   0.00000  Uiso   1.00
C107   C     0.88477   0.18057   0.63183   0.00000  Uiso   1.00
C108   C     0.98184   0.16333   0.64079   0.00000  Uiso   1.00
C109   C     0.00919   0.23137   0.62224   0.00000  Uiso   1.00
C110   C     0.79640   0.09187   0.61493   0.00000  Uiso   1.00
C111   C     0.81915   0.00006   0.60968   0.00000  Uiso   1.00
C112   C     0.77210   0.99342   0.57690   0.00000  Uiso   1.00
C113   C     0.75146   0.17855   0.66586   0.00000  Uiso   1.00
C114   C     0.73641   0.15960   0.70343   0.00000  Uiso   1.00
C115   C     0.65150   0.22593   0.71353   0.00000  Uiso   1.00
H116   H     0.66273   0.33127   0.57916   0.00000  Uiso   1.00
H117   H     0.79246   0.39459   0.56618   0.00000  Uiso   1.00
H118   H     0.62979   0.23134   0.53507   0.00000  Uiso   1.00
H119   H     0.54707   0.39086   0.62881   0.00000  Uiso   1.00
H120   H     0.96601   0.42849   0.56348   0.00000  Uiso   1.00
H121   H     0.62299   0.08426   0.49789   0.00000  Uiso   1.00
H122   H     0.44854   0.42065   0.69556   0.00000  Uiso   1.00
H123   H     0.89166   0.05167   0.66937   0.00000  Uiso   1.00
H124   H     0.03396   0.09965   0.66134   0.00000  Uiso   1.00
H125   H     0.87128   0.93640   0.63023   0.00000  Uiso   1.00
H126   H     0.78856   0.09593   0.72397   0.00000  Uiso   1.00
H127   H     0.16202   0.18910   0.64071   0.00000  Uiso   1.00
H128   H     0.81899   0.84488   0.57512   0.00000  Uiso   1.00
H129   H     0.64455   0.18127   0.77279   0.00000  Uiso   1.00
O130   O     0.15350   0.34538   0.59517   0.00000  Uiso   1.00
O131   O     0.70345   0.89378   0.50912   0.00000  Uiso   1.00
O132   O     0.47459   0.33512   0.76846   0.00000  Uiso   1.00
N133   N     0.99261   0.36557   0.58276   0.00000  Uiso   1.00
N134   N     0.67191   0.04374   0.52144   0.00000  Uiso   1.00
N135   N     0.50881   0.35823   0.70624   0.00000  Uiso   1.00
N136   N     0.09808   0.23676   0.62432   0.00000  Uiso   1.00
N137   N     0.77738   0.91493   0.56299   0.00000  Uiso   1.00
N138   N     0.61428   0.22942   0.74780   0.00000  Uiso   1.00
C139   C     0.15116   0.89293   0.06613   0.00000  Uiso   1.00
C140   C     0.06907   0.86166   0.06798   0.00000  Uiso   1.00
C141   C     0.98060   0.90445   0.04339   0.00000  Uiso   1.00
C142   C     0.91514   0.86517   0.04985   0.00000  Uiso   1.00
C143   C     0.78430   0.82864   0.04816   0.00000  Uiso   1.00
C144   C     0.24346   0.80441   0.06316   0.00000  Uiso   1.00
C145   C     0.30161   0.79907   0.03451   0.00000  Uiso   1.00
C146   C     0.38296   0.71159   0.03691   0.00000  Uiso   1.00
C147   C     0.52290   0.58620   0.02774   0.00000  Uiso   1.00
C148   C     0.16911   0.91276   0.10508   0.00000  Uiso   1.00
C149   C     0.16478   0.99851   0.11168   0.00000  Uiso   1.00
C150   C     0.18356   0.00224   0.14937   0.00000  Uiso   1.00
C151   C     0.20807   0.04507   0.20528   0.00000  Uiso   1.00
C152   C     0.19223   0.74708   0.12133   0.00000  Uiso   1.00
C153   C     0.09138   0.78244   0.09797   0.00000  Uiso   1.00
C154   C     0.02604   0.74308   0.10446   0.00000  Uiso   1.00
C155   C     0.93749   0.78581   0.07989   0.00000  Uiso   1.00
C156   C     0.26577   0.72519   0.09314   0.00000  Uiso   1.00
C157   C     0.34705   0.63770   0.09558   0.00000  Uiso   1.00
C158   C     0.40531   0.63223   0.06695   0.00000  Uiso   1.00
C159   C     0.19142   0.83354   0.13506   0.00000  Uiso   1.00
C160   C     0.21022   0.83714   0.17275   0.00000  Uiso   1.00
C161   C     0.20591   0.92288   0.17940   0.00000  Uiso   1.00
H162   H     0.13380   0.95460   0.04279   0.00000  Uiso   1.00
H163   H     0.96337   0.96575   0.02019   0.00000  Uiso   1.00
H164   H     0.28434   0.86039   0.01132   0.00000  Uiso   1.00
H165   H     0.14752   0.05980   0.08847   0.00000  Uiso   1.00
H166   H     0.78427   0.94316   0.00835   0.00000  Uiso   1.00
H167   H     0.46106   0.72101   0.98965   0.00000  Uiso   1.00
H168   H     0.17256   0.14149   0.15233   0.00000  Uiso   1.00
H169   H     0.20960   0.68540   0.14467   0.00000  Uiso   1.00
H170   H     0.04332   0.68178   0.12767   0.00000  Uiso   1.00
H171   H     0.36430   0.57641   0.11879   0.00000  Uiso   1.00
H172   H     0.22748   0.77582   0.19594   0.00000  Uiso   1.00
H173   H     0.84916   0.71267   0.09558   0.00000  Uiso   1.00
H174   H     0.52597   0.49052   0.07688   0.00000  Uiso   1.00
H175   H     0.23746   0.91100   0.23956   0.00000  Uiso   1.00
O176   O     0.70598   0.83037   0.03893   0.00000  Uiso   1.00
O177   O     0.59392   0.53892   0.01440   0.00000  Uiso   1.00
O178   O     0.21540   0.09059   0.22783   0.00000  Uiso   1.00
N179   N     0.82235   0.88942   0.03122   0.00000  Uiso   1.00
N180   N     0.45511   0.68172   0.01373   0.00000  Uiso   1.00
N181   N     0.18541   0.07483   0.16582   0.00000  Uiso   1.00
N182   N     0.85727   0.76540   0.07816   0.00000  Uiso   1.00
N183   N     0.49003   0.55770   0.06067   0.00000  Uiso   1.00
N184   N     0.22033   0.95080   0.21276   0.00000  Uiso   1.00
C185   C     0.10352   0.34139   0.07574   0.00000  Uiso   1.00
C186   C     0.18928   0.25644   0.06639   0.00000  Uiso   1.00
C187   C     0.18141   0.19213   0.04618   0.00000  Uiso   1.00
C188   C     0.26859   0.11929   0.04061   0.00000  Uiso   1.00
C189   C     0.38780   0.98866   0.02392   0.00000  Uiso   1.00
C190   C     0.11769   0.43022   0.05970   0.00000  Uiso   1.00
C191   C     0.04962   0.51202   0.03386   0.00000  Uiso   1.00
C192   C     0.07654   0.58548   0.02267   0.00000  Uiso   1.00
C193   C     0.08458   0.72467   0.99561   0.00000  Uiso   1.00
C194   C     0.11930   0.32724   0.11899   0.00000  Uiso   1.00
C195   C     0.05258   0.32248   0.14301   0.00000  Uiso   1.00
C196   C     0.08085   0.30926   0.18174   0.00000  Uiso   1.00
C197   C     0.09139   0.28855   0.24674   0.00000  Uiso   1.00
C198   C     0.27236   0.32640   0.10180   0.00000  Uiso   1.00
C199   C     0.28098   0.24831   0.08054   0.00000  Uiso   1.00
C200   C     0.36821   0.17555   0.07501   0.00000  Uiso   1.00
C201   C     0.36047   0.11113   0.05480   0.00000  Uiso   1.00
C202   C     0.20939   0.42208   0.07385   0.00000  Uiso   1.00
C203   C     0.23642   0.49544   0.06270   0.00000  Uiso   1.00
C204   C     0.16841   0.57732   0.03685   0.00000  Uiso   1.00
C205   C     0.21101   0.31910   0.13315   0.00000  Uiso   1.00
C206   C     0.23939   0.30589   0.17184   0.00000  Uiso   1.00
C207   C     0.17272   0.30110   0.19592   0.00000  Uiso   1.00
H208   H     0.03212   0.34774   0.06472   0.00000  Uiso   1.00
H209   H     0.11042   0.19846   0.03522   0.00000  Uiso   1.00
H210   H     0.97865   0.51830   0.02292   0.00000  Uiso   1.00
H211   H     0.98162   0.32878   0.13204   0.00000  Uiso   1.00
H212   H     0.23767   0.02939   0.00876   0.00000  Uiso   1.00
H213   H     0.95982   0.70381   0.98281   0.00000  Uiso   1.00
H214   H     0.96606   0.30418   0.21293   0.00000  Uiso   1.00
H215   H     0.34376   0.32007   0.11282   0.00000  Uiso   1.00
H216   H     0.43917   0.16927   0.08597   0.00000  Uiso   1.00
H217   H     0.30739   0.48911   0.07366   0.00000  Uiso   1.00
H218   H     0.31036   0.29959   0.18279   0.00000  Uiso   1.00
H219   H     0.50449   0.00570   0.04994   0.00000  Uiso   1.00
H220   H     0.22663   0.68013   0.02400   0.00000  Uiso   1.00
H221   H     0.23289   0.28049   0.25412   0.00000  Uiso   1.00
O222   O     0.42822   0.91886   0.01080   0.00000  Uiso   1.00
O223   O     0.06367   0.80369   0.97678   0.00000  Uiso   1.00
O224   O     0.07187   0.27937   0.27869   0.00000  Uiso   1.00
N225   N     0.28738   0.04450   0.02214   0.00000  Uiso   1.00
N226   N     0.02760   0.67504   0.99788   0.00000  Uiso   1.00
N227   N     0.03343   0.30144   0.21302   0.00000  Uiso   1.00
N228   N     0.43095   0.03175   0.04430   0.00000  Uiso   1.00
N229   N     0.17118   0.66229   0.02004   0.00000  Uiso   1.00
N230   N     0.17701   0.28869   0.23518   0.00000  Uiso   1.00
C231   C     0.76895   0.26517   0.07165   0.00000  Uiso   1.00
C232   C     0.76314   0.34622   0.09062   0.00000  Uiso   1.00
C233   C     0.81538   0.39970   0.08330   0.00000  Uiso   1.00
C234   C     0.79977   0.47069   0.10363   0.00000  Uiso   1.00
C235   C     0.80068   0.59401   0.12902   0.00000  Uiso   1.00
C236   C     0.66395   0.29331   0.05404   0.00000  Uiso   1.00
C237   C     0.63280   0.30228   0.01597   0.00000  Uiso   1.00
C238   C     0.53369   0.32872   0.00552   0.00000  Uiso   1.00
C239   C     0.38062   0.36983   0.97413   0.00000  Uiso   1.00
C240   C     0.79710   0.17722   0.10394   0.00000  Uiso   1.00
C241   C     0.87788   0.08858   0.10781   0.00000  Uiso   1.00
C242   C     0.89085   0.01728   0.13936   0.00000  Uiso   1.00
C243   C     0.94450   0.87815   0.18544   0.00000  Uiso   1.00
C244   C     0.64834   0.29615   0.12077   0.00000  Uiso   1.00
C245   C     0.69763   0.36304   0.11730   0.00000  Uiso   1.00
C246   C     0.68193   0.43397   0.13765   0.00000  Uiso   1.00
C247   C     0.73414   0.48755   0.13036   0.00000  Uiso   1.00
C248   C     0.59844   0.31013   0.08072   0.00000  Uiso   1.00
C249   C     0.49935   0.33656   0.07032   0.00000  Uiso   1.00
C250   C     0.46805   0.34558   0.03225   0.00000  Uiso   1.00
C251   C     0.73158   0.19405   0.13062   0.00000  Uiso   1.00
C252   C     0.74443   0.12287   0.16217   0.00000  Uiso   1.00
C253   C     0.82521   0.03414   0.16609   0.00000  Uiso   1.00
H254   H     0.81995   0.25207   0.05087   0.00000  Uiso   1.00
H255   H     0.86607   0.38666   0.06264   0.00000  Uiso   1.00
H256   H     0.68352   0.28925   0.99533   0.00000  Uiso   1.00
H257   H     0.92856   0.07559   0.08716   0.00000  Uiso   1.00
H258   H     0.88828   0.54332   0.08745   0.00000  Uiso   1.00
H259   H     0.50337   0.33789   0.94552   0.00000  Uiso   1.00
H260   H     0.02008   0.88734   0.13916   0.00000  Uiso   1.00
H261   H     0.59733   0.30925   0.14154   0.00000  Uiso   1.00
H262   H     0.63123   0.44698   0.15830   0.00000  Uiso   1.00
H263   H     0.44868   0.34957   0.09098   0.00000  Uiso   1.00
H264   H     0.69371   0.13591   0.18281   0.00000  Uiso   1.00
H265   H     0.69767   0.59228   0.16509   0.00000  Uiso   1.00
H266   H     0.31276   0.38685   0.02315   0.00000  Uiso   1.00
H267   H     0.82947   0.93631   0.21679   0.00000  Uiso   1.00
O268   O     0.81927   0.65739   0.13564   0.00000  Uiso   1.00
O269   O     0.31429   0.38786   0.94944   0.00000  Uiso   1.00
O270   O     0.99220   0.79676   0.20348   0.00000  Uiso   1.00
N271   N     0.83878   0.53593   0.10343   0.00000  Uiso   1.00
N272   N     0.47891   0.34388   0.97073   0.00000  Uiso   1.00
N273   N     0.96198   0.92265   0.15176   0.00000  Uiso   1.00
N274   N     0.73621   0.56227   0.14521   0.00000  Uiso   1.00
N275   N     0.37634   0.37023   0.01251   0.00000  Uiso   1.00
N276   N     0.85941   0.94900   0.19353   0.00000  Uiso   1.00
C277   C     0.75433   0.39534   0.37541   0.00000  Uiso   1.00
C278   C     0.82911   0.43503   0.36867   0.00000  Uiso   1.00
C279   C     0.82690   0.51599   0.37959   0.00000  Uiso   1.00
C280   C     0.90206   0.54047   0.37082   0.00000  Uiso   1.00
C281   C     0.00684   0.61038   0.36326   0.00000  Uiso   1.00
C282   C     0.81310   0.29117   0.39730   0.00000  Uiso   1.00
C283   C     0.79743   0.25117   0.43229   0.00000  Uiso   1.00
C284   C     0.85911   0.15455   0.44761   0.00000  Uiso   1.00
C285   C     0.93899   0.00109   0.48449   0.00000  Uiso   1.00
C286   C     0.71496   0.39095   0.33627   0.00000  Uiso   1.00
C287   C     0.61675   0.43483   0.31994   0.00000  Uiso   1.00
C288   C     0.59580   0.42219   0.28388   0.00000  Uiso   1.00
C289   C     0.52330   0.42366   0.22600   0.00000  Uiso   1.00
C290   C     0.89174   0.29485   0.34040   0.00000  Uiso   1.00
C291   C     0.90374   0.38045   0.34965   0.00000  Uiso   1.00
C292   C     0.97892   0.40482   0.34086   0.00000  Uiso   1.00
C293   C     0.97683   0.48580   0.35176   0.00000  Uiso   1.00
C294   C     0.88773   0.23659   0.37828   0.00000  Uiso   1.00
C295   C     0.94945   0.14000   0.39356   0.00000  Uiso   1.00
C296   C     0.93388   0.09987   0.42856   0.00000  Uiso   1.00
C297   C     0.78959   0.33637   0.31725   0.00000  Uiso   1.00
C298   C     0.76878   0.32366   0.28121   0.00000  Uiso   1.00
C299   C     0.67057   0.36751   0.26483   0.00000  Uiso   1.00
H300   H     0.69623   0.43783   0.39022   0.00000  Uiso   1.00
H301   H     0.76914   0.55821   0.39431   0.00000  Uiso   1.00
H302   H     0.73966   0.29343   0.44700   0.00000  Uiso   1.00
H303   H     0.55902   0.47706   0.33467   0.00000  Uiso   1.00
H304   H     0.88290   0.66758   0.39048   0.00000  Uiso   1.00
H305   H     0.82073   0.10927   0.50157   0.00000  Uiso   1.00
H306   H     0.43981   0.49649   0.26470   0.00000  Uiso   1.00
H307   H     0.94984   0.25236   0.32559   0.00000  Uiso   1.00
H308   H     0.03667   0.36257   0.32614   0.00000  Uiso   1.00
H309   H     0.00719   0.09779   0.37883   0.00000  Uiso   1.00
H310   H     0.82655   0.28142   0.26650   0.00000  Uiso   1.00
H311   H     0.10004   0.50879   0.33515   0.00000  Uiso   1.00
H312   H     0.03786   0.95048   0.44624   0.00000  Uiso   1.00
H313   H     0.65695   0.33770   0.20937   0.00000  Uiso   1.00
O314   O     0.04403   0.66401   0.36436   0.00000  Uiso   1.00
O315   O     0.96244   0.93153   0.51009   0.00000  Uiso   1.00
O316   O     0.46269   0.43955   0.19932   0.00000  Uiso   1.00
N317   N     0.92208   0.61509   0.37738   0.00000  Uiso   1.00
N318   N     0.86396   0.09311   0.48124   0.00000  Uiso   1.00
N319   N     0.50783   0.45511   0.25979   0.00000  Uiso   1.00
N320   N     0.03892   0.52965   0.34760   0.00000  Uiso   1.00
N321   N     0.98080   0.00767   0.45147   0.00000  Uiso   1.00
N322   N     0.62467   0.36967   0.23002   0.00000  Uiso   1.00
C323   C     0.40282   0.37991   0.37613   0.00000  Uiso   1.00
C324   C     0.47528   0.31109   0.35517   0.00000  Uiso   1.00
C325   C     0.57708   0.27090   0.36322   0.00000  Uiso   1.00
C326   C     0.63042   0.20963   0.34077   0.00000  Uiso   1.00
C327   C     0.75007   0.10582   0.31272   0.00000  Uiso   1.00
C328   C     0.33766   0.33334   0.39030   0.00000  Uiso   1.00
C329   C     0.32374   0.31187   0.42789   0.00000  Uiso   1.00
C330   C     0.26122   0.26935   0.43501   0.00000  Uiso   1.00
C331   C     0.16715   0.20014   0.46150   0.00000  Uiso   1.00
C332   C     0.33639   0.46971   0.34579   0.00000  Uiso   1.00
C333   C     0.32136   0.56291   0.34594   0.00000  Uiso   1.00
C334   C     0.25775   0.63520   0.31558   0.00000  Uiso   1.00
C335   C     0.16169   0.77773   0.27295   0.00000  Uiso   1.00
C336   C     0.31653   0.34257   0.32195   0.00000  Uiso   1.00
C337   C     0.42841   0.29081   0.32574   0.00000  Uiso   1.00
C338   C     0.48161   0.22959   0.30327   0.00000  Uiso   1.00
C339   C     0.58347   0.18932   0.31129   0.00000  Uiso   1.00
C340   C     0.29079   0.31306   0.36088   0.00000  Uiso   1.00
C341   C     0.22827   0.27056   0.36794   0.00000  Uiso   1.00
C342   C     0.21427   0.24903   0.40553   0.00000  Uiso   1.00
C343   C     0.28951   0.44943   0.31635   0.00000  Uiso   1.00
C344   C     0.22590   0.52159   0.28599   0.00000  Uiso   1.00
C345   C     0.21079   0.61488   0.28610   0.00000  Uiso   1.00
H346   H     0.43931   0.39570   0.39905   0.00000  Uiso   1.00
H347   H     0.61333   0.28661   0.38600   0.00000  Uiso   1.00
H348   H     0.36002   0.32759   0.45066   0.00000  Uiso   1.00
H349   H     0.35765   0.57858   0.36872   0.00000  Uiso   1.00
H350   H     0.78559   0.15669   0.35857   0.00000  Uiso   1.00
H351   H     0.25145   0.24312   0.49490   0.00000  Uiso   1.00
H352   H     0.24644   0.77239   0.32212   0.00000  Uiso   1.00
H353   H     0.28004   0.32678   0.29903   0.00000  Uiso   1.00
H354   H     0.44532   0.21391   0.28050   0.00000  Uiso   1.00
H355   H     0.19201   0.25488   0.34516   0.00000  Uiso   1.00
H356   H     0.18964   0.50587   0.26322   0.00000  Uiso   1.00
H357   H     0.64923   0.09767   0.27294   0.00000  Uiso   1.00
H358   H     0.11508   0.18411   0.40928   0.00000  Uiso   1.00
H359   H     0.11009   0.71337   0.23649   0.00000  Uiso   1.00
O360   O     0.82901   0.05415   0.30538   0.00000  Uiso   1.00
O361   O     0.12823   0.16756   0.48424   0.00000  Uiso   1.00
O362   O     0.12167   0.86194   0.25756   0.00000  Uiso   1.00
N363   N     0.73081   0.15831   0.34096   0.00000  Uiso   1.00
N364   N     0.23144   0.23910   0.46842   0.00000  Uiso   1.00
N365   N     0.22674   0.73392   0.30689   0.00000  Uiso   1.00
N366   N     0.65744   0.12655   0.29488   0.00000  Uiso   1.00
N367   N     0.15806   0.20734   0.42234   0.00000  Uiso   1.00
N368   N     0.15336   0.70217   0.26081   0.00000  Uiso   1.00
C369   C     0.42909   0.79132   0.37747   0.00000  Uiso   1.00
C370   C     0.31791   0.82644   0.37248   0.00000  Uiso   1.00
C371   C     0.26830   0.78289   0.39328   0.00000  Uiso   1.00
C372   C     0.16647   0.82617   0.38441   0.00000  Uiso   1.00
C373   C     0.00147   0.86797   0.38104   0.00000  Uiso   1.00
C374   C     0.44657   0.87534   0.38528   0.00000  Uiso   1.00
C375   C     0.50516   0.87289   0.41684   0.00000  Uiso   1.00
C376   C     0.51164   0.95733   0.41874   0.00000  Uiso   1.00
C377   C     0.54647   0.07503   0.43522   0.00000  Uiso   1.00
C378   C     0.45932   0.77794   0.33849   0.00000  Uiso   1.00
C379   C     0.52864   0.69360   0.33070   0.00000  Uiso   1.00
C380   C     0.54588   0.69604   0.29320   0.00000  Uiso   1.00
C381   C     0.60049   0.66250   0.23703   0.00000  Uiso   1.00
C382   C     0.33647   0.94562   0.32471   0.00000  Uiso   1.00
C383   C     0.26760   0.91025   0.34383   0.00000  Uiso   1.00
C384   C     0.16582   0.95361   0.33492   0.00000  Uiso   1.00
C385   C     0.11606   0.91012   0.35570   0.00000  Uiso   1.00
C386   C     0.39626   0.95915   0.35663   0.00000  Uiso   1.00
C387   C     0.40268   0.04361   0.35847   0.00000  Uiso   1.00
C388   C     0.46124   0.04129   0.39003   0.00000  Uiso   1.00
C389   C     0.40901   0.86175   0.30983   0.00000  Uiso   1.00
C390   C     0.42615   0.86432   0.27233   0.00000  Uiso   1.00
C391   C     0.49548   0.78000   0.26449   0.00000  Uiso   1.00
H392   H     0.46826   0.72608   0.39978   0.00000  Uiso   1.00
H393   H     0.30726   0.71803   0.41546   0.00000  Uiso   1.00
H394   H     0.54409   0.80802   0.43901   0.00000  Uiso   1.00
H395   H     0.56756   0.62876   0.35288   0.00000  Uiso   1.00
H396   H     0.10656   0.74610   0.42022   0.00000  Uiso   1.00
H397   H     0.60596   0.93583   0.46987   0.00000  Uiso   1.00
H398   H     0.65546   0.55781   0.28826   0.00000  Uiso   1.00
H399   H     0.29730   0.01088   0.30240   0.00000  Uiso   1.00
H400   H     0.12690   0.01846   0.31274   0.00000  Uiso   1.00
H401   H     0.36374   0.10845   0.33629   0.00000  Uiso   1.00
H402   H     0.38721   0.92919   0.25017   0.00000  Uiso   1.00
H403   H     0.96018   0.98994   0.33685   0.00000  Uiso   1.00
H404   H     0.45958   0.17967   0.38650   0.00000  Uiso   1.00
H405   H     0.50908   0.80166   0.20489   0.00000  Uiso   1.00
O406   O     0.92436   0.86789   0.38710   0.00000  Uiso   1.00
O407   O     0.57957   0.11679   0.45224   0.00000  Uiso   1.00
O408   O     0.64450   0.62085   0.21397   0.00000  Uiso   1.00
N409   N     0.09550   0.80244   0.39918   0.00000  Uiso   1.00
N410   N     0.56239   0.97982   0.44560   0.00000  Uiso   1.00
N411   N     0.60869   0.62642   0.27581   0.00000  Uiso   1.00
N412   N     0.01673   0.93364   0.35432   0.00000  Uiso   1.00
N413   N     0.48362   0.11103   0.40074   0.00000  Uiso   1.00
N414   N     0.52992   0.75763   0.23095   0.00000  Uiso   1.00
C415   C     0.10055   0.97674   0.88471   0.00000  Uiso   1.00
C416   C     0.17600   0.01592   0.88816   0.00000  Uiso   1.00
C417   C     0.25905   0.97658   0.91558   0.00000  Uiso   1.00
C418   C     0.31888   0.02312   0.91389   0.00000  Uiso   1.00
C419   C     0.43944   0.07137   0.92353   0.00000  Uiso   1.00
C420   C     0.00127   0.05919   0.88607   0.00000  Uiso   1.00
C421   C     0.93739   0.05623   0.91173   0.00000  Uiso   1.00
C422   C     0.85013   0.13919   0.90828   0.00000  Uiso   1.00
C423   C     0.69937   0.25459   0.91466   0.00000  Uiso   1.00
C424   C     0.09600   0.95971   0.84444   0.00000  Uiso   1.00
C425   C     0.11175   0.87310   0.83509   0.00000  Uiso   1.00
C426   C     0.10422   0.87231   0.79659   0.00000  Uiso   1.00
C427   C     0.10055   0.83325   0.73833   0.00000  Uiso   1.00
C428   C     0.05914   0.12935   0.83295   0.00000  Uiso   1.00
C429   C     0.15351   0.09881   0.86005   0.00000  Uiso   1.00
C430   C     0.21324   0.14542   0.85831   0.00000  Uiso   1.00
C431   C     0.29636   0.10616   0.88572   0.00000  Uiso   1.00
C432   C     0.97877   0.14208   0.85796   0.00000  Uiso   1.00
C433   C     0.89158   0.22506   0.85447   0.00000  Uiso   1.00
C434   C     0.82759   0.22223   0.88011   0.00000  Uiso   1.00
C435   C     0.07351   0.04259   0.81633   0.00000  Uiso   1.00
C436   C     0.06595   0.04194   0.77783   0.00000  Uiso   1.00
C437   C     0.08169   0.95535   0.76842   0.00000  Uiso   1.00
H438   H     0.11805   0.91222   0.90660   0.00000  Uiso   1.00
H439   H     0.27642   0.91244   0.93733   0.00000  Uiso   1.00
H440   H     0.95481   0.99207   0.93348   0.00000  Uiso   1.00
H441   H     0.12915   0.80898   0.85685   0.00000  Uiso   1.00
H442   H     0.44207   0.94927   0.95901   0.00000  Uiso   1.00
H443   H     0.76392   0.11715   0.95088   0.00000  Uiso   1.00
H444   H     0.13154   0.73106   0.78930   0.00000  Uiso   1.00
H445   H     0.04163   0.19388   0.81107   0.00000  Uiso   1.00
H446   H     0.19582   0.20956   0.83656   0.00000  Uiso   1.00
H447   H     0.87420   0.28919   0.83271   0.00000  Uiso   1.00
H448   H     0.04854   0.10610   0.75608   0.00000  Uiso   1.00
H449   H     0.37664   0.19042   0.87722   0.00000  Uiso   1.00
H450   H     0.69849   0.35831   0.86909   0.00000  Uiso   1.00
H451   H     0.06612   0.97222   0.70751   0.00000  Uiso   1.00
O452   O     0.51214   0.07510   0.93662   0.00000  Uiso   1.00
O453   O     0.62243   0.29535   0.92595   0.00000  Uiso   1.00
O454   O     0.10475   0.78881   0.71396   0.00000  Uiso   1.00
N455   N     0.40552   0.00386   0.93626   0.00000  Uiso   1.00
N456   N     0.77150   0.16083   0.92867   0.00000  Uiso   1.00
N457   N     0.11517   0.79987   0.77760   0.00000  Uiso   1.00
N458   N     0.37032   0.13362   0.89225   0.00000  Uiso   1.00
N459   N     0.73629   0.29059   0.88465   0.00000  Uiso   1.00
N460   N     0.07997   0.92964   0.73359   0.00000  Uiso   1.00
C461   C     0.05297   0.62245   0.86086   0.00000  Uiso   1.00
C462   C     0.95983   0.71748   0.84886   0.00000  Uiso   1.00
C463   C     0.94463   0.80254   0.85953   0.00000  Uiso   1.00
C464   C     0.85437   0.88156   0.84555   0.00000  Uiso   1.00
C465   C     0.72074   0.03000   0.83055   0.00000  Uiso   1.00
C466   C     0.02039   0.54823   0.87967   0.00000  Uiso   1.00
C467   C     0.05612   0.49098   0.91625   0.00000  Uiso   1.00
C468   C     0.01685   0.42753   0.92821   0.00000  Uiso   1.00
C469   C     0.97728   0.31315   0.96105   0.00000  Uiso   1.00
C470   C     0.08737   0.59417   0.82401   0.00000  Uiso   1.00
C471   C     0.17944   0.57552   0.81379   0.00000  Uiso   1.00
C472   C     0.19658   0.55072   0.77888   0.00000  Uiso   1.00
C473   C     0.26102   0.50767   0.72529   0.00000  Uiso   1.00
C474   C     0.91971   0.61154   0.81704   0.00000  Uiso   1.00
C475   C     0.88745   0.71155   0.82506   0.00000  Uiso   1.00
C476   C     0.79719   0.79046   0.81105   0.00000  Uiso   1.00
C477   C     0.78187   0.87563   0.82170   0.00000  Uiso   1.00
C478   C     0.94801   0.54230   0.85588   0.00000  Uiso   1.00
C479   C     0.90868   0.47891   0.86778   0.00000  Uiso   1.00
C480   C     0.94434   0.42159   0.90436   0.00000  Uiso   1.00
C481   C     0.01499   0.58824   0.80021   0.00000  Uiso   1.00
C482   C     0.03200   0.56345   0.76531   0.00000  Uiso   1.00
C483   C     0.12407   0.54478   0.75504   0.00000  Uiso   1.00
H484   H     0.10932   0.62706   0.87938   0.00000  Uiso   1.00
H485   H     0.00066   0.80709   0.87795   0.00000  Uiso   1.00
H486   H     0.11213   0.49558   0.93466   0.00000  Uiso   1.00
H487   H     0.23543   0.58011   0.83221   0.00000  Uiso   1.00
H488   H     0.84825   0.00407   0.86588   0.00000  Uiso   1.00
H489   H     0.08333   0.34720   0.98545   0.00000  Uiso   1.00
H490   H     0.34333   0.52545   0.76942   0.00000  Uiso   1.00
H491   H     0.86336   0.60692   0.79851   0.00000  Uiso   1.00
H492   H     0.74120   0.78586   0.79264   0.00000  Uiso   1.00
H493   H     0.85268   0.47434   0.84935   0.00000  Uiso   1.00
H494   H     0.97597   0.55887   0.74690   0.00000  Uiso   1.00
H495   H     0.63766   0.98683   0.79664   0.00000  Uiso   1.00
H496   H     0.87275   0.32996   0.91621   0.00000  Uiso   1.00
H497   H     0.13274   0.50821   0.70018   0.00000  Uiso   1.00
O498   O     0.66702   0.11351   0.82886   0.00000  Uiso   1.00
O499   O     0.97545   0.25171   0.98574   0.00000  Uiso   1.00
O500   O     0.31656   0.48558   0.70231   0.00000  Uiso   1.00
N501   N     0.81546   0.97546   0.85038   0.00000  Uiso   1.00
N502   N     0.03524   0.36134   0.96218   0.00000  Uiso   1.00
N503   N     0.27832   0.52796   0.76021   0.00000  Uiso   1.00
N504   N     0.70214   0.96618   0.81312   0.00000  Uiso   1.00
N505   N     0.92192   0.35206   0.92492   0.00000  Uiso   1.00
N506   N     0.16501   0.51869   0.72295   0.00000  Uiso   1.00
C507   C     0.42970   0.74421   0.86336   0.00000  Uiso   1.00
C508   C     0.44383   0.64464   0.85933   0.00000  Uiso   1.00
C509   C     0.38953   0.59824   0.87408   0.00000  Uiso   1.00
C510   C     0.41384   0.50742   0.86729   0.00000  Uiso   1.00
C511   C     0.42427   0.35930   0.86421   0.00000  Uiso   1.00
C512   C     0.52915   0.73079   0.88163   0.00000  Uiso   1.00
C513   C     0.54657   0.75683   0.91512   0.00000  Uiso   1.00
C514   C     0.64271   0.73853   0.92710   0.00000  Uiso   1.00
C515   C     0.78558   0.72423   0.95862   0.00000  Uiso   1.00
C516   C     0.41190   0.80320   0.82290   0.00000  Uiso   1.00
C517   C     0.33075   0.89015   0.80701   0.00000  Uiso   1.00
C518   C     0.32818   0.93283   0.76954   0.00000  Uiso   1.00
C519   C     0.28901   0.03096   0.70988   0.00000  Uiso   1.00
C520   C     0.56945   0.66542   0.82508   0.00000  Uiso   1.00
C521   C     0.51974   0.60185   0.83854   0.00000  Uiso   1.00
C522   C     0.54414   0.51107   0.83173   0.00000  Uiso   1.00
C523   C     0.48988   0.46454   0.84646   0.00000  Uiso   1.00
C524   C     0.60506   0.68799   0.86084   0.00000  Uiso   1.00
C525   C     0.70119   0.66966   0.87277   0.00000  Uiso   1.00
C526   C     0.71876   0.69566   0.90627   0.00000  Uiso   1.00
C527   C     0.48781   0.76041   0.80211   0.00000  Uiso   1.00
C528   C     0.48537   0.80297   0.76466   0.00000  Uiso   1.00
C529   C     0.40423   0.88996   0.74871   0.00000  Uiso   1.00
H530   H     0.37061   0.77753   0.87955   0.00000  Uiso   1.00
H531   H     0.33079   0.63138   0.89017   0.00000  Uiso   1.00
H532   H     0.48782   0.78996   0.93120   0.00000  Uiso   1.00
H533   H     0.27203   0.92324   0.82311   0.00000  Uiso   1.00
H534   H     0.32015   0.45046   0.89279   0.00000  Uiso   1.00
H535   H     0.65123   0.78485   0.97930   0.00000  Uiso   1.00
H536   H     0.19620   0.06592   0.75136   0.00000  Uiso   1.00
H537   H     0.62856   0.63210   0.80890   0.00000  Uiso   1.00
H538   H     0.60289   0.47797   0.81564   0.00000  Uiso   1.00
H539   H     0.75991   0.63655   0.85667   0.00000  Uiso   1.00
H540   H     0.54412   0.76983   0.74858   0.00000  Uiso   1.00
H541   H     0.54100   0.32595   0.83229   0.00000  Uiso   1.00
H542   H     0.87208   0.66034   0.91881   0.00000  Uiso   1.00
H543   H     0.41704   0.94140   0.69087   0.00000  Uiso   1.00
O544   O     0.40906   0.28942   0.86826   0.00000  Uiso   1.00
O545   O     0.84342   0.72815   0.98176   0.00000  Uiso   1.00
O546   O     0.24642   0.09690   0.68271   0.00000  Uiso   1.00
N547   N     0.37563   0.44232   0.87762   0.00000  Uiso   1.00
N548   N     0.68518   0.75494   0.95851   0.00000  Uiso   1.00
N549   N     0.25977   0.01773   0.74540   0.00000  Uiso   1.00
N550   N     0.49447   0.37532   0.84507   0.00000  Uiso   1.00
N551   N     0.80401   0.68794   0.92596   0.00000  Uiso   1.00
N552   N     0.37861   0.95073   0.71285   0.00000  Uiso   1.00
