data_job_00760
_audit_creation_date              2018-12-19
_audit_creation_method            'Materials Studio'
_symmetry_space_group_name_H-M    'P1'
_symmetry_Int_Tables_number       1
_symmetry_cell_setting            triclinic
loop_
_symmetry_equiv_pos_as_xyz
  x,y,z
_cell_length_a                    18.5299
_cell_length_b                    7.9713
_cell_length_c                    19.2959
_cell_angle_alpha                 90.0000
_cell_angle_beta                  81.3651
_cell_angle_gamma                 90.0000
loop_
_atom_site_label
_atom_site_type_symbol
_atom_site_fract_x
_atom_site_fract_y
_atom_site_fract_z
_atom_site_U_iso_or_equiv
_atom_site_adp_type
_atom_site_occupancy
C1     C     0.67910   0.17861   0.69971   0.00000  Uiso   1.00
C2     C     0.63202   0.32099   0.67842   0.00000  Uiso   1.00
C3     C     0.57248   0.30298   0.64316   0.00000  Uiso   1.00
C4     C     0.53660   0.44866   0.62848   0.00000  Uiso   1.00
C5     C     0.46004   0.64573   0.59237   0.00000  Uiso   1.00
C6     C     0.75724   0.21940   0.66706   0.00000  Uiso   1.00
C7     C     0.80300   0.11595   0.62226   0.00000  Uiso   1.00
C8     C     0.87253   0.17612   0.59803   0.00000  Uiso   1.00
C9     C     0.99040   0.21540   0.54433   0.00000  Uiso   1.00
C10    C     0.67691   0.19472   0.77874   0.00000  Uiso   1.00
C11    C     0.65513   0.07049   0.82784   0.00000  Uiso   1.00
C12    C     0.65704   0.10986   0.89764   0.00000  Uiso   1.00
C13    C     0.65018   0.11082   0.01733   0.00000  Uiso   1.00
C14    C     0.72123   0.46939   0.73635   0.00000  Uiso   1.00
C15    C     0.65491   0.47893   0.69832   0.00000  Uiso   1.00
C16    C     0.61910   0.62469   0.68370   0.00000  Uiso   1.00
C17    C     0.55952   0.60689   0.64842   0.00000  Uiso   1.00
C18    C     0.78013   0.37733   0.68696   0.00000  Uiso   1.00
C19    C     0.84961   0.43766   0.66280   0.00000  Uiso   1.00
C20    C     0.89546   0.33434   0.61797   0.00000  Uiso   1.00
C21    C     0.69979   0.35266   0.79865   0.00000  Uiso   1.00
C22    C     0.70174   0.39222   0.86838   0.00000  Uiso   1.00
C23    C     0.67997   0.26809   0.91757   0.00000  Uiso   1.00
H24    H     0.66128   0.05565   0.68421   0.00000  Uiso   1.00
H25    H     0.55480   0.18073   0.62776   0.00000  Uiso   1.00
H26    H     0.78528   0.99373   0.60688   0.00000  Uiso   1.00
H27    H     0.63743   0.94829   0.81242   0.00000  Uiso   1.00
H28    H     0.44684   0.38905   0.57393   0.00000  Uiso   1.00
H29    H     0.93283   0.99473   0.52991   0.00000  Uiso   1.00
H30    H     0.62107   0.89891   0.96334   0.00000  Uiso   1.00
H31    H     0.73905   0.59236   0.75184   0.00000  Uiso   1.00
H32    H     0.63682   0.74689   0.69911   0.00000  Uiso   1.00
H33    H     0.86730   0.55989   0.67822   0.00000  Uiso   1.00
H34    H     0.71945   0.51445   0.88376   0.00000  Uiso   1.00
H35    H     0.51342   0.84858   0.63183   0.00000  Uiso   1.00
H36    H     0.99941   0.45424   0.58781   0.00000  Uiso   1.00
H37    H     0.68764   0.35843   0.02124   0.00000  Uiso   1.00
O38    O     0.41150   0.71079   0.56694   0.00000  Uiso   1.00
O39    O     0.04909   0.19344   0.50921   0.00000  Uiso   1.00
O40    O     0.64006   0.06772   0.07785   0.00000  Uiso   1.00
N41    N     0.47653   0.47599   0.59480   0.00000  Uiso   1.00
N42    N     0.93090   0.10733   0.55364   0.00000  Uiso   1.00
N43    N     0.63944   0.01773   0.95886   0.00000  Uiso   1.00
N44    N     0.51235   0.72326   0.62596   0.00000  Uiso   1.00
N45    N     0.96672   0.35460   0.58480   0.00000  Uiso   1.00
N46    N     0.67526   0.26499   0.99002   0.00000  Uiso   1.00
C47    C     0.32090   0.17861   0.80029   0.00000  Uiso   1.00
C48    C     0.36798   0.32099   0.82158   0.00000  Uiso   1.00
C49    C     0.42752   0.30298   0.85684   0.00000  Uiso   1.00
C50    C     0.46340   0.44866   0.87152   0.00000  Uiso   1.00
C51    C     0.53996   0.64573   0.90763   0.00000  Uiso   1.00
C52    C     0.24276   0.21940   0.83294   0.00000  Uiso   1.00
C53    C     0.19700   0.11595   0.87774   0.00000  Uiso   1.00
C54    C     0.12747   0.17612   0.90197   0.00000  Uiso   1.00
C55    C     0.00960   0.21540   0.95567   0.00000  Uiso   1.00
C56    C     0.32309   0.19472   0.72126   0.00000  Uiso   1.00
C57    C     0.34487   0.07049   0.67216   0.00000  Uiso   1.00
C58    C     0.34296   0.10986   0.60236   0.00000  Uiso   1.00
C59    C     0.34982   0.11082   0.48267   0.00000  Uiso   1.00
C60    C     0.27877   0.46939   0.76365   0.00000  Uiso   1.00
C61    C     0.34509   0.47893   0.80168   0.00000  Uiso   1.00
C62    C     0.38090   0.62469   0.81630   0.00000  Uiso   1.00
C63    C     0.44048   0.60689   0.85158   0.00000  Uiso   1.00
C64    C     0.21987   0.37733   0.81304   0.00000  Uiso   1.00
C65    C     0.15039   0.43766   0.83720   0.00000  Uiso   1.00
C66    C     0.10454   0.33434   0.88203   0.00000  Uiso   1.00
C67    C     0.30021   0.35266   0.70135   0.00000  Uiso   1.00
C68    C     0.29826   0.39222   0.63162   0.00000  Uiso   1.00
C69    C     0.32003   0.26809   0.58243   0.00000  Uiso   1.00
H70    H     0.33872   0.05565   0.81579   0.00000  Uiso   1.00
H71    H     0.44520   0.18073   0.87224   0.00000  Uiso   1.00
H72    H     0.21472   0.99373   0.89312   0.00000  Uiso   1.00
H73    H     0.36257   0.94829   0.68758   0.00000  Uiso   1.00
H74    H     0.55316   0.38905   0.92607   0.00000  Uiso   1.00
H75    H     0.06717   0.99473   0.97009   0.00000  Uiso   1.00
H76    H     0.37893   0.89891   0.53666   0.00000  Uiso   1.00
H77    H     0.26095   0.59236   0.74816   0.00000  Uiso   1.00
H78    H     0.36318   0.74689   0.80089   0.00000  Uiso   1.00
H79    H     0.13270   0.55989   0.82178   0.00000  Uiso   1.00
H80    H     0.28055   0.51445   0.61624   0.00000  Uiso   1.00
H81    H     0.48658   0.84858   0.86817   0.00000  Uiso   1.00
H82    H     0.00059   0.45424   0.91219   0.00000  Uiso   1.00
H83    H     0.31236   0.35843   0.47876   0.00000  Uiso   1.00
O84    O     0.58850   0.71079   0.93306   0.00000  Uiso   1.00
O85    O     0.95091   0.19344   0.99079   0.00000  Uiso   1.00
O86    O     0.35994   0.06772   0.42215   0.00000  Uiso   1.00
N87    N     0.52347   0.47599   0.90520   0.00000  Uiso   1.00
N88    N     0.06910   0.10733   0.94636   0.00000  Uiso   1.00
N89    N     0.36056   0.01773   0.54114   0.00000  Uiso   1.00
N90    N     0.48765   0.72326   0.87404   0.00000  Uiso   1.00
N91    N     0.03328   0.35460   0.91520   0.00000  Uiso   1.00
N92    N     0.32474   0.26499   0.50998   0.00000  Uiso   1.00
C93    C     0.32090   0.82139   0.30029   0.00000  Uiso   1.00
C94    C     0.36798   0.67901   0.32158   0.00000  Uiso   1.00
C95    C     0.42752   0.69702   0.35684   0.00000  Uiso   1.00
C96    C     0.46340   0.55134   0.37152   0.00000  Uiso   1.00
C97    C     0.53996   0.35427   0.40763   0.00000  Uiso   1.00
C98    C     0.24276   0.78060   0.33294   0.00000  Uiso   1.00
C99    C     0.19700   0.88405   0.37774   0.00000  Uiso   1.00
C100   C     0.12747   0.82388   0.40197   0.00000  Uiso   1.00
C101   C     0.00960   0.78460   0.45567   0.00000  Uiso   1.00
C102   C     0.32309   0.80528   0.22126   0.00000  Uiso   1.00
C103   C     0.34487   0.92951   0.17216   0.00000  Uiso   1.00
C104   C     0.34296   0.89014   0.10236   0.00000  Uiso   1.00
C105   C     0.34982   0.88918   0.98267   0.00000  Uiso   1.00
C106   C     0.27877   0.53061   0.26365   0.00000  Uiso   1.00
C107   C     0.34509   0.52107   0.30168   0.00000  Uiso   1.00
C108   C     0.38090   0.37531   0.31630   0.00000  Uiso   1.00
C109   C     0.44048   0.39311   0.35158   0.00000  Uiso   1.00
C110   C     0.21987   0.62267   0.31304   0.00000  Uiso   1.00
C111   C     0.15039   0.56234   0.33720   0.00000  Uiso   1.00
C112   C     0.10454   0.66566   0.38203   0.00000  Uiso   1.00
C113   C     0.30021   0.64734   0.20135   0.00000  Uiso   1.00
C114   C     0.29826   0.60778   0.13162   0.00000  Uiso   1.00
C115   C     0.32003   0.73191   0.08243   0.00000  Uiso   1.00
H116   H     0.33872   0.94435   0.31579   0.00000  Uiso   1.00
H117   H     0.44520   0.81927   0.37224   0.00000  Uiso   1.00
H118   H     0.21472   0.00627   0.39312   0.00000  Uiso   1.00
H119   H     0.36257   0.05171   0.18758   0.00000  Uiso   1.00
H120   H     0.55316   0.61095   0.42607   0.00000  Uiso   1.00
H121   H     0.06717   0.00527   0.47009   0.00000  Uiso   1.00
H122   H     0.37893   0.10109   0.03666   0.00000  Uiso   1.00
H123   H     0.26095   0.40764   0.24816   0.00000  Uiso   1.00
H124   H     0.36318   0.25311   0.30089   0.00000  Uiso   1.00
H125   H     0.13270   0.44011   0.32178   0.00000  Uiso   1.00
H126   H     0.28055   0.48555   0.11624   0.00000  Uiso   1.00
H127   H     0.48658   0.15142   0.36817   0.00000  Uiso   1.00
H128   H     0.00059   0.54576   0.41219   0.00000  Uiso   1.00
H129   H     0.31236   0.64157   0.97876   0.00000  Uiso   1.00
O130   O     0.58850   0.28921   0.43306   0.00000  Uiso   1.00
O131   O     0.95091   0.80656   0.49079   0.00000  Uiso   1.00
O132   O     0.35994   0.93228   0.92215   0.00000  Uiso   1.00
N133   N     0.52347   0.52401   0.40520   0.00000  Uiso   1.00
N134   N     0.06910   0.89267   0.44636   0.00000  Uiso   1.00
N135   N     0.36056   0.98227   0.04114   0.00000  Uiso   1.00
N136   N     0.48765   0.27674   0.37404   0.00000  Uiso   1.00
N137   N     0.03328   0.64540   0.41520   0.00000  Uiso   1.00
N138   N     0.32474   0.73501   0.00998   0.00000  Uiso   1.00
C139   C     0.67910   0.82139   0.19971   0.00000  Uiso   1.00
C140   C     0.63202   0.67901   0.17842   0.00000  Uiso   1.00
C141   C     0.57248   0.69702   0.14316   0.00000  Uiso   1.00
C142   C     0.53660   0.55134   0.12848   0.00000  Uiso   1.00
C143   C     0.46004   0.35427   0.09237   0.00000  Uiso   1.00
C144   C     0.75724   0.78060   0.16706   0.00000  Uiso   1.00
C145   C     0.80300   0.88405   0.12226   0.00000  Uiso   1.00
C146   C     0.87253   0.82388   0.09803   0.00000  Uiso   1.00
C147   C     0.99040   0.78460   0.04433   0.00000  Uiso   1.00
C148   C     0.67691   0.80528   0.27874   0.00000  Uiso   1.00
C149   C     0.65513   0.92951   0.32784   0.00000  Uiso   1.00
C150   C     0.65704   0.89014   0.39764   0.00000  Uiso   1.00
C151   C     0.65018   0.88918   0.51733   0.00000  Uiso   1.00
C152   C     0.72123   0.53061   0.23635   0.00000  Uiso   1.00
C153   C     0.65491   0.52107   0.19832   0.00000  Uiso   1.00
C154   C     0.61910   0.37531   0.18370   0.00000  Uiso   1.00
C155   C     0.55952   0.39311   0.14842   0.00000  Uiso   1.00
C156   C     0.78013   0.62267   0.18696   0.00000  Uiso   1.00
C157   C     0.84961   0.56234   0.16280   0.00000  Uiso   1.00
C158   C     0.89546   0.66566   0.11797   0.00000  Uiso   1.00
C159   C     0.69979   0.64734   0.29865   0.00000  Uiso   1.00
C160   C     0.70174   0.60778   0.36838   0.00000  Uiso   1.00
C161   C     0.67997   0.73191   0.41757   0.00000  Uiso   1.00
H162   H     0.66128   0.94435   0.18421   0.00000  Uiso   1.00
H163   H     0.55480   0.81927   0.12776   0.00000  Uiso   1.00
H164   H     0.78528   0.00627   0.10688   0.00000  Uiso   1.00
H165   H     0.63743   0.05171   0.31242   0.00000  Uiso   1.00
H166   H     0.44684   0.61095   0.07393   0.00000  Uiso   1.00
H167   H     0.93283   0.00527   0.02991   0.00000  Uiso   1.00
H168   H     0.62107   0.10109   0.46334   0.00000  Uiso   1.00
H169   H     0.73905   0.40764   0.25184   0.00000  Uiso   1.00
H170   H     0.63682   0.25311   0.19911   0.00000  Uiso   1.00
H171   H     0.86730   0.44011   0.17822   0.00000  Uiso   1.00
H172   H     0.71945   0.48555   0.38376   0.00000  Uiso   1.00
H173   H     0.51342   0.15142   0.13183   0.00000  Uiso   1.00
H174   H     0.99941   0.54576   0.08781   0.00000  Uiso   1.00
H175   H     0.68764   0.64157   0.52124   0.00000  Uiso   1.00
O176   O     0.41150   0.28921   0.06694   0.00000  Uiso   1.00
O177   O     0.04909   0.80656   0.00921   0.00000  Uiso   1.00
O178   O     0.64006   0.93228   0.57785   0.00000  Uiso   1.00
N179   N     0.47653   0.52401   0.09480   0.00000  Uiso   1.00
N180   N     0.93090   0.89267   0.05364   0.00000  Uiso   1.00
N181   N     0.63944   0.98227   0.45886   0.00000  Uiso   1.00
N182   N     0.51235   0.27674   0.12596   0.00000  Uiso   1.00
N183   N     0.96672   0.64540   0.08480   0.00000  Uiso   1.00
N184   N     0.67526   0.73501   0.49002   0.00000  Uiso   1.00
