data_job_03721
_audit_creation_date              2018-12-19
_audit_creation_method            'Materials Studio'
_symmetry_space_group_name_H-M    'P1'
_symmetry_Int_Tables_number       1
_symmetry_cell_setting            triclinic
loop_
_symmetry_equiv_pos_as_xyz
  x,y,z
_cell_length_a                    22.4824
_cell_length_b                    12.2993
_cell_length_c                    21.9494
_cell_angle_alpha                 90.0000
_cell_angle_beta                  90.0000
_cell_angle_gamma                 90.0000
loop_
_atom_site_label
_atom_site_type_symbol
_atom_site_fract_x
_atom_site_fract_y
_atom_site_fract_z
_atom_site_U_iso_or_equiv
_atom_site_adp_type
_atom_site_occupancy
C1     C     0.21193   0.76569   0.81674   0.00000  Uiso   1.00
C2     C     0.25557   0.79391   0.86751   0.00000  Uiso   1.00
C3     C     0.31710   0.78816   0.86356   0.00000  Uiso   1.00
C4     C     0.34919   0.81742   0.91505   0.00000  Uiso   1.00
C5     C     0.42129   0.85604   0.98576   0.00000  Uiso   1.00
C6     C     0.17062   0.67910   0.84285   0.00000  Uiso   1.00
C7     C     0.16071   0.57681   0.81815   0.00000  Uiso   1.00
C8     C     0.12127   0.50943   0.84888   0.00000  Uiso   1.00
C9     C     0.06144   0.36984   0.88127   0.00000  Uiso   1.00
C10    C     0.17367   0.86669   0.80735   0.00000  Uiso   1.00
C11    C     0.16631   0.92212   0.75280   0.00000  Uiso   1.00
C12    C     0.12944   0.01267   0.75364   0.00000  Uiso   1.00
C13    C     0.07435   0.16433   0.73092   0.00000  Uiso   1.00
C14    C     0.15951   0.82790   0.91523   0.00000  Uiso   1.00
C15    C     0.22710   0.82769   0.92101   0.00000  Uiso   1.00
C16    C     0.25911   0.85698   0.97253   0.00000  Uiso   1.00
C17    C     0.32067   0.85127   0.96864   0.00000  Uiso   1.00
C18    C     0.14215   0.71288   0.89635   0.00000  Uiso   1.00
C19    C     0.10271   0.64564   0.92712   0.00000  Uiso   1.00
C20    C     0.09275   0.54328   0.90247   0.00000  Uiso   1.00
C21    C     0.14520   0.90048   0.86085   0.00000  Uiso   1.00
C22    C     0.10832   0.99095   0.86177   0.00000  Uiso   1.00
C23    C     0.10091   0.04651   0.80723   0.00000  Uiso   1.00
H24    H     0.23409   0.73938   0.77509   0.00000  Uiso   1.00
H25    H     0.33912   0.76199   0.82215   0.00000  Uiso   1.00
H26    H     0.18274   0.55070   0.77674   0.00000  Uiso   1.00
H27    H     0.18835   0.89595   0.71141   0.00000  Uiso   1.00
H28    H     0.44300   0.80193   0.89792   0.00000  Uiso   1.00
H29    H     0.11326   0.35640   0.80217   0.00000  Uiso   1.00
H30    H     0.12509   0.08444   0.66440   0.00000  Uiso   1.00
H31    H     0.13734   0.85420   0.95688   0.00000  Uiso   1.00
H32    H     0.23706   0.88312   0.01392   0.00000  Uiso   1.00
H33    H     0.08069   0.67181   0.96851   0.00000  Uiso   1.00
H34    H     0.08630   0.01707   0.90318   0.00000  Uiso   1.00
H35    H     0.36017   0.90023   0.05357   0.00000  Uiso   1.00
H36    H     0.03043   0.45470   0.95782   0.00000  Uiso   1.00
H37    H     0.04225   0.18274   0.82004   0.00000  Uiso   1.00
O38    O     0.46893   0.86800   0.00999   0.00000  Uiso   1.00
O39    O     0.03632   0.28349   0.88436   0.00000  Uiso   1.00
O40    O     0.05183   0.23866   0.70361   0.00000  Uiso   1.00
N41    N     0.40982   0.82112   0.92672   0.00000  Uiso   1.00
N42    N     0.10154   0.40457   0.83721   0.00000  Uiso   1.00
N43    N     0.11258   0.08521   0.70839   0.00000  Uiso   1.00
N44    N     0.36525   0.87401   0.01048   0.00000  Uiso   1.00
N45    N     0.05697   0.45747   0.92096   0.00000  Uiso   1.00
N46    N     0.06801   0.13810   0.79215   0.00000  Uiso   1.00
C47    C     0.71193   0.26569   0.81674   0.00000  Uiso   1.00
C48    C     0.75557   0.29391   0.86751   0.00000  Uiso   1.00
C49    C     0.81710   0.28816   0.86356   0.00000  Uiso   1.00
C50    C     0.84919   0.31742   0.91505   0.00000  Uiso   1.00
C51    C     0.92129   0.35604   0.98576   0.00000  Uiso   1.00
C52    C     0.67062   0.17910   0.84285   0.00000  Uiso   1.00
C53    C     0.66071   0.07681   0.81815   0.00000  Uiso   1.00
C54    C     0.62127   0.00943   0.84888   0.00000  Uiso   1.00
C55    C     0.56144   0.86984   0.88127   0.00000  Uiso   1.00
C56    C     0.67367   0.36669   0.80735   0.00000  Uiso   1.00
C57    C     0.66631   0.42212   0.75280   0.00000  Uiso   1.00
C58    C     0.62944   0.51267   0.75364   0.00000  Uiso   1.00
C59    C     0.57435   0.66433   0.73092   0.00000  Uiso   1.00
C60    C     0.65951   0.32790   0.91523   0.00000  Uiso   1.00
C61    C     0.72710   0.32769   0.92101   0.00000  Uiso   1.00
C62    C     0.75911   0.35698   0.97253   0.00000  Uiso   1.00
C63    C     0.82067   0.35127   0.96864   0.00000  Uiso   1.00
C64    C     0.64215   0.21288   0.89635   0.00000  Uiso   1.00
C65    C     0.60271   0.14564   0.92712   0.00000  Uiso   1.00
C66    C     0.59275   0.04328   0.90247   0.00000  Uiso   1.00
C67    C     0.64520   0.40048   0.86085   0.00000  Uiso   1.00
C68    C     0.60832   0.49095   0.86177   0.00000  Uiso   1.00
C69    C     0.60091   0.54651   0.80723   0.00000  Uiso   1.00
H70    H     0.73409   0.23938   0.77509   0.00000  Uiso   1.00
H71    H     0.83912   0.26199   0.82215   0.00000  Uiso   1.00
H72    H     0.68274   0.05070   0.77674   0.00000  Uiso   1.00
H73    H     0.68835   0.39595   0.71141   0.00000  Uiso   1.00
H74    H     0.94300   0.30193   0.89792   0.00000  Uiso   1.00
H75    H     0.61326   0.85640   0.80217   0.00000  Uiso   1.00
H76    H     0.62509   0.58444   0.66440   0.00000  Uiso   1.00
H77    H     0.63734   0.35420   0.95688   0.00000  Uiso   1.00
H78    H     0.73706   0.38312   0.01392   0.00000  Uiso   1.00
H79    H     0.58069   0.17181   0.96851   0.00000  Uiso   1.00
H80    H     0.58630   0.51707   0.90318   0.00000  Uiso   1.00
H81    H     0.86017   0.40023   0.05357   0.00000  Uiso   1.00
H82    H     0.53043   0.95470   0.95782   0.00000  Uiso   1.00
H83    H     0.54225   0.68274   0.82004   0.00000  Uiso   1.00
O84    O     0.96893   0.36800   0.00999   0.00000  Uiso   1.00
O85    O     0.53632   0.78349   0.88436   0.00000  Uiso   1.00
O86    O     0.55183   0.73866   0.70361   0.00000  Uiso   1.00
N87    N     0.90982   0.32112   0.92672   0.00000  Uiso   1.00
N88    N     0.60154   0.90457   0.83721   0.00000  Uiso   1.00
N89    N     0.61258   0.58521   0.70839   0.00000  Uiso   1.00
N90    N     0.86525   0.37401   0.01048   0.00000  Uiso   1.00
N91    N     0.55697   0.95747   0.92096   0.00000  Uiso   1.00
N92    N     0.56801   0.63810   0.79215   0.00000  Uiso   1.00
C93    C     0.78807   0.23431   0.31674   0.00000  Uiso   1.00
C94    C     0.74443   0.20609   0.36751   0.00000  Uiso   1.00
C95    C     0.68290   0.21184   0.36356   0.00000  Uiso   1.00
C96    C     0.65081   0.18258   0.41505   0.00000  Uiso   1.00
C97    C     0.57871   0.14396   0.48576   0.00000  Uiso   1.00
C98    C     0.82938   0.32090   0.34285   0.00000  Uiso   1.00
C99    C     0.83929   0.42319   0.31815   0.00000  Uiso   1.00
C100   C     0.87873   0.49057   0.34888   0.00000  Uiso   1.00
C101   C     0.93856   0.63016   0.38127   0.00000  Uiso   1.00
C102   C     0.82633   0.13331   0.30735   0.00000  Uiso   1.00
C103   C     0.83369   0.07788   0.25280   0.00000  Uiso   1.00
C104   C     0.87056   0.98733   0.25364   0.00000  Uiso   1.00
C105   C     0.92565   0.83567   0.23092   0.00000  Uiso   1.00
C106   C     0.84049   0.17210   0.41523   0.00000  Uiso   1.00
C107   C     0.77290   0.17231   0.42101   0.00000  Uiso   1.00
C108   C     0.74089   0.14302   0.47253   0.00000  Uiso   1.00
C109   C     0.67933   0.14873   0.46864   0.00000  Uiso   1.00
C110   C     0.85785   0.28712   0.39635   0.00000  Uiso   1.00
C111   C     0.89729   0.35436   0.42712   0.00000  Uiso   1.00
C112   C     0.90725   0.45672   0.40247   0.00000  Uiso   1.00
C113   C     0.85480   0.09952   0.36085   0.00000  Uiso   1.00
C114   C     0.89168   0.00905   0.36177   0.00000  Uiso   1.00
C115   C     0.89909   0.95349   0.30723   0.00000  Uiso   1.00
H116   H     0.76591   0.26062   0.27509   0.00000  Uiso   1.00
H117   H     0.66088   0.23801   0.32215   0.00000  Uiso   1.00
H118   H     0.81726   0.44930   0.27674   0.00000  Uiso   1.00
H119   H     0.81165   0.10405   0.21141   0.00000  Uiso   1.00
H120   H     0.55700   0.19807   0.39792   0.00000  Uiso   1.00
H121   H     0.88674   0.64360   0.30217   0.00000  Uiso   1.00
H122   H     0.87491   0.91556   0.16440   0.00000  Uiso   1.00
H123   H     0.86266   0.14580   0.45688   0.00000  Uiso   1.00
H124   H     0.76294   0.11688   0.51392   0.00000  Uiso   1.00
H125   H     0.91931   0.32819   0.46851   0.00000  Uiso   1.00
H126   H     0.91370   0.98293   0.40318   0.00000  Uiso   1.00
H127   H     0.63983   0.09977   0.55357   0.00000  Uiso   1.00
H128   H     0.96957   0.54530   0.45782   0.00000  Uiso   1.00
H129   H     0.95775   0.81726   0.32004   0.00000  Uiso   1.00
O130   O     0.53107   0.13200   0.50999   0.00000  Uiso   1.00
O131   O     0.96368   0.71651   0.38436   0.00000  Uiso   1.00
O132   O     0.94817   0.76134   0.20361   0.00000  Uiso   1.00
N133   N     0.59018   0.17888   0.42672   0.00000  Uiso   1.00
N134   N     0.89846   0.59543   0.33721   0.00000  Uiso   1.00
N135   N     0.88742   0.91479   0.20839   0.00000  Uiso   1.00
N136   N     0.63475   0.12599   0.51048   0.00000  Uiso   1.00
N137   N     0.94303   0.54253   0.42096   0.00000  Uiso   1.00
N138   N     0.93199   0.86190   0.29215   0.00000  Uiso   1.00
C139   C     0.28807   0.73431   0.31674   0.00000  Uiso   1.00
C140   C     0.24443   0.70609   0.36751   0.00000  Uiso   1.00
C141   C     0.18290   0.71184   0.36356   0.00000  Uiso   1.00
C142   C     0.15081   0.68258   0.41505   0.00000  Uiso   1.00
C143   C     0.07871   0.64396   0.48576   0.00000  Uiso   1.00
C144   C     0.32938   0.82090   0.34285   0.00000  Uiso   1.00
C145   C     0.33929   0.92319   0.31815   0.00000  Uiso   1.00
C146   C     0.37873   0.99057   0.34888   0.00000  Uiso   1.00
C147   C     0.43856   0.13016   0.38127   0.00000  Uiso   1.00
C148   C     0.32633   0.63331   0.30735   0.00000  Uiso   1.00
C149   C     0.33369   0.57788   0.25280   0.00000  Uiso   1.00
C150   C     0.37056   0.48733   0.25364   0.00000  Uiso   1.00
C151   C     0.42565   0.33567   0.23092   0.00000  Uiso   1.00
C152   C     0.34049   0.67210   0.41523   0.00000  Uiso   1.00
C153   C     0.27290   0.67231   0.42101   0.00000  Uiso   1.00
C154   C     0.24089   0.64302   0.47253   0.00000  Uiso   1.00
C155   C     0.17933   0.64873   0.46864   0.00000  Uiso   1.00
C156   C     0.35785   0.78712   0.39635   0.00000  Uiso   1.00
C157   C     0.39729   0.85436   0.42712   0.00000  Uiso   1.00
C158   C     0.40725   0.95672   0.40247   0.00000  Uiso   1.00
C159   C     0.35480   0.59952   0.36085   0.00000  Uiso   1.00
C160   C     0.39168   0.50905   0.36177   0.00000  Uiso   1.00
C161   C     0.39909   0.45349   0.30723   0.00000  Uiso   1.00
H162   H     0.26591   0.76062   0.27509   0.00000  Uiso   1.00
H163   H     0.16088   0.73801   0.32215   0.00000  Uiso   1.00
H164   H     0.31726   0.94930   0.27674   0.00000  Uiso   1.00
H165   H     0.31165   0.60405   0.21141   0.00000  Uiso   1.00
H166   H     0.05700   0.69807   0.39792   0.00000  Uiso   1.00
H167   H     0.38674   0.14360   0.30217   0.00000  Uiso   1.00
H168   H     0.37491   0.41556   0.16440   0.00000  Uiso   1.00
H169   H     0.36266   0.64580   0.45688   0.00000  Uiso   1.00
H170   H     0.26294   0.61688   0.51392   0.00000  Uiso   1.00
H171   H     0.41931   0.82819   0.46851   0.00000  Uiso   1.00
H172   H     0.41370   0.48293   0.40318   0.00000  Uiso   1.00
H173   H     0.13983   0.59977   0.55357   0.00000  Uiso   1.00
H174   H     0.46957   0.04530   0.45782   0.00000  Uiso   1.00
H175   H     0.45775   0.31726   0.32004   0.00000  Uiso   1.00
O176   O     0.03107   0.63200   0.50999   0.00000  Uiso   1.00
O177   O     0.46368   0.21651   0.38436   0.00000  Uiso   1.00
O178   O     0.44817   0.26134   0.20361   0.00000  Uiso   1.00
N179   N     0.09018   0.67888   0.42672   0.00000  Uiso   1.00
N180   N     0.39846   0.09543   0.33721   0.00000  Uiso   1.00
N181   N     0.38742   0.41479   0.20839   0.00000  Uiso   1.00
N182   N     0.13475   0.62599   0.51048   0.00000  Uiso   1.00
N183   N     0.44303   0.04253   0.42096   0.00000  Uiso   1.00
N184   N     0.43199   0.36190   0.29215   0.00000  Uiso   1.00
C185   C     0.78807   0.76569   0.68326   0.00000  Uiso   1.00
C186   C     0.74443   0.79391   0.63249   0.00000  Uiso   1.00
C187   C     0.68290   0.78816   0.63644   0.00000  Uiso   1.00
C188   C     0.65081   0.81742   0.58495   0.00000  Uiso   1.00
C189   C     0.57871   0.85604   0.51424   0.00000  Uiso   1.00
C190   C     0.82938   0.67910   0.65715   0.00000  Uiso   1.00
C191   C     0.83929   0.57681   0.68185   0.00000  Uiso   1.00
C192   C     0.87873   0.50943   0.65112   0.00000  Uiso   1.00
C193   C     0.93856   0.36984   0.61873   0.00000  Uiso   1.00
C194   C     0.82633   0.86669   0.69265   0.00000  Uiso   1.00
C195   C     0.83369   0.92212   0.74720   0.00000  Uiso   1.00
C196   C     0.87056   0.01267   0.74636   0.00000  Uiso   1.00
C197   C     0.92565   0.16433   0.76908   0.00000  Uiso   1.00
C198   C     0.84049   0.82790   0.58477   0.00000  Uiso   1.00
C199   C     0.77290   0.82769   0.57899   0.00000  Uiso   1.00
C200   C     0.74089   0.85698   0.52747   0.00000  Uiso   1.00
C201   C     0.67933   0.85127   0.53136   0.00000  Uiso   1.00
C202   C     0.85785   0.71288   0.60365   0.00000  Uiso   1.00
C203   C     0.89729   0.64564   0.57288   0.00000  Uiso   1.00
C204   C     0.90725   0.54328   0.59753   0.00000  Uiso   1.00
C205   C     0.85480   0.90048   0.63915   0.00000  Uiso   1.00
C206   C     0.89168   0.99095   0.63823   0.00000  Uiso   1.00
C207   C     0.89909   0.04651   0.69277   0.00000  Uiso   1.00
H208   H     0.76591   0.73938   0.72491   0.00000  Uiso   1.00
H209   H     0.66088   0.76199   0.67785   0.00000  Uiso   1.00
H210   H     0.81726   0.55070   0.72326   0.00000  Uiso   1.00
H211   H     0.81165   0.89595   0.78859   0.00000  Uiso   1.00
H212   H     0.55700   0.80193   0.60208   0.00000  Uiso   1.00
H213   H     0.88674   0.35640   0.69783   0.00000  Uiso   1.00
H214   H     0.87491   0.08444   0.83560   0.00000  Uiso   1.00
H215   H     0.86266   0.85420   0.54312   0.00000  Uiso   1.00
H216   H     0.76294   0.88312   0.48608   0.00000  Uiso   1.00
H217   H     0.91931   0.67181   0.53149   0.00000  Uiso   1.00
H218   H     0.91370   0.01707   0.59682   0.00000  Uiso   1.00
H219   H     0.63983   0.90023   0.44643   0.00000  Uiso   1.00
H220   H     0.96957   0.45470   0.54218   0.00000  Uiso   1.00
H221   H     0.95775   0.18274   0.67996   0.00000  Uiso   1.00
O222   O     0.53107   0.86800   0.49001   0.00000  Uiso   1.00
O223   O     0.96368   0.28349   0.61564   0.00000  Uiso   1.00
O224   O     0.94817   0.23866   0.79639   0.00000  Uiso   1.00
N225   N     0.59018   0.82112   0.57328   0.00000  Uiso   1.00
N226   N     0.89846   0.40457   0.66279   0.00000  Uiso   1.00
N227   N     0.88742   0.08521   0.79161   0.00000  Uiso   1.00
N228   N     0.63475   0.87401   0.48952   0.00000  Uiso   1.00
N229   N     0.94303   0.45747   0.57904   0.00000  Uiso   1.00
N230   N     0.93199   0.13810   0.70785   0.00000  Uiso   1.00
C231   C     0.28807   0.26569   0.68326   0.00000  Uiso   1.00
C232   C     0.24443   0.29391   0.63249   0.00000  Uiso   1.00
C233   C     0.18290   0.28816   0.63644   0.00000  Uiso   1.00
C234   C     0.15081   0.31742   0.58495   0.00000  Uiso   1.00
C235   C     0.07871   0.35604   0.51424   0.00000  Uiso   1.00
C236   C     0.32938   0.17910   0.65715   0.00000  Uiso   1.00
C237   C     0.33929   0.07681   0.68185   0.00000  Uiso   1.00
C238   C     0.37873   0.00943   0.65112   0.00000  Uiso   1.00
C239   C     0.43856   0.86984   0.61873   0.00000  Uiso   1.00
C240   C     0.32633   0.36669   0.69265   0.00000  Uiso   1.00
C241   C     0.33369   0.42212   0.74720   0.00000  Uiso   1.00
C242   C     0.37056   0.51267   0.74636   0.00000  Uiso   1.00
C243   C     0.42565   0.66433   0.76908   0.00000  Uiso   1.00
C244   C     0.34049   0.32790   0.58477   0.00000  Uiso   1.00
C245   C     0.27290   0.32769   0.57899   0.00000  Uiso   1.00
C246   C     0.24089   0.35698   0.52747   0.00000  Uiso   1.00
C247   C     0.17933   0.35127   0.53136   0.00000  Uiso   1.00
C248   C     0.35785   0.21288   0.60365   0.00000  Uiso   1.00
C249   C     0.39729   0.14564   0.57288   0.00000  Uiso   1.00
C250   C     0.40725   0.04328   0.59753   0.00000  Uiso   1.00
C251   C     0.35480   0.40048   0.63915   0.00000  Uiso   1.00
C252   C     0.39168   0.49095   0.63823   0.00000  Uiso   1.00
C253   C     0.39909   0.54651   0.69277   0.00000  Uiso   1.00
H254   H     0.26591   0.23938   0.72491   0.00000  Uiso   1.00
H255   H     0.16088   0.26199   0.67785   0.00000  Uiso   1.00
H256   H     0.31726   0.05070   0.72326   0.00000  Uiso   1.00
H257   H     0.31165   0.39595   0.78859   0.00000  Uiso   1.00
H258   H     0.05700   0.30193   0.60208   0.00000  Uiso   1.00
H259   H     0.38674   0.85640   0.69783   0.00000  Uiso   1.00
H260   H     0.37491   0.58444   0.83560   0.00000  Uiso   1.00
H261   H     0.36266   0.35420   0.54312   0.00000  Uiso   1.00
H262   H     0.26294   0.38312   0.48608   0.00000  Uiso   1.00
H263   H     0.41931   0.17181   0.53149   0.00000  Uiso   1.00
H264   H     0.41370   0.51707   0.59682   0.00000  Uiso   1.00
H265   H     0.13983   0.40023   0.44643   0.00000  Uiso   1.00
H266   H     0.46957   0.95470   0.54218   0.00000  Uiso   1.00
H267   H     0.45775   0.68274   0.67996   0.00000  Uiso   1.00
O268   O     0.03107   0.36800   0.49001   0.00000  Uiso   1.00
O269   O     0.46368   0.78349   0.61564   0.00000  Uiso   1.00
O270   O     0.44817   0.73866   0.79639   0.00000  Uiso   1.00
N271   N     0.09018   0.32112   0.57328   0.00000  Uiso   1.00
N272   N     0.39846   0.90457   0.66279   0.00000  Uiso   1.00
N273   N     0.38742   0.58521   0.79161   0.00000  Uiso   1.00
N274   N     0.13475   0.37401   0.48952   0.00000  Uiso   1.00
N275   N     0.44303   0.95747   0.57904   0.00000  Uiso   1.00
N276   N     0.43199   0.63810   0.70785   0.00000  Uiso   1.00
C277   C     0.21193   0.23431   0.18326   0.00000  Uiso   1.00
C278   C     0.25557   0.20609   0.13249   0.00000  Uiso   1.00
C279   C     0.31710   0.21184   0.13644   0.00000  Uiso   1.00
C280   C     0.34919   0.18258   0.08495   0.00000  Uiso   1.00
C281   C     0.42129   0.14396   0.01424   0.00000  Uiso   1.00
C282   C     0.17062   0.32090   0.15715   0.00000  Uiso   1.00
C283   C     0.16071   0.42319   0.18185   0.00000  Uiso   1.00
C284   C     0.12127   0.49057   0.15112   0.00000  Uiso   1.00
C285   C     0.06144   0.63016   0.11873   0.00000  Uiso   1.00
C286   C     0.17367   0.13331   0.19265   0.00000  Uiso   1.00
C287   C     0.16631   0.07788   0.24720   0.00000  Uiso   1.00
C288   C     0.12944   0.98733   0.24636   0.00000  Uiso   1.00
C289   C     0.07435   0.83567   0.26908   0.00000  Uiso   1.00
C290   C     0.15951   0.17210   0.08477   0.00000  Uiso   1.00
C291   C     0.22710   0.17231   0.07899   0.00000  Uiso   1.00
C292   C     0.25911   0.14302   0.02747   0.00000  Uiso   1.00
C293   C     0.32067   0.14873   0.03136   0.00000  Uiso   1.00
C294   C     0.14215   0.28712   0.10365   0.00000  Uiso   1.00
C295   C     0.10271   0.35436   0.07288   0.00000  Uiso   1.00
C296   C     0.09275   0.45672   0.09753   0.00000  Uiso   1.00
C297   C     0.14520   0.09952   0.13915   0.00000  Uiso   1.00
C298   C     0.10832   0.00905   0.13823   0.00000  Uiso   1.00
C299   C     0.10091   0.95349   0.19277   0.00000  Uiso   1.00
H300   H     0.23409   0.26062   0.22491   0.00000  Uiso   1.00
H301   H     0.33912   0.23801   0.17785   0.00000  Uiso   1.00
H302   H     0.18274   0.44930   0.22326   0.00000  Uiso   1.00
H303   H     0.18835   0.10405   0.28859   0.00000  Uiso   1.00
H304   H     0.44300   0.19807   0.10208   0.00000  Uiso   1.00
H305   H     0.11326   0.64360   0.19783   0.00000  Uiso   1.00
H306   H     0.12509   0.91556   0.33560   0.00000  Uiso   1.00
H307   H     0.13734   0.14580   0.04312   0.00000  Uiso   1.00
H308   H     0.23706   0.11688   0.98608   0.00000  Uiso   1.00
H309   H     0.08069   0.32819   0.03149   0.00000  Uiso   1.00
H310   H     0.08630   0.98293   0.09682   0.00000  Uiso   1.00
H311   H     0.36017   0.09977   0.94643   0.00000  Uiso   1.00
H312   H     0.03043   0.54530   0.04218   0.00000  Uiso   1.00
H313   H     0.04225   0.81726   0.17996   0.00000  Uiso   1.00
O314   O     0.46893   0.13200   0.99001   0.00000  Uiso   1.00
O315   O     0.03632   0.71651   0.11564   0.00000  Uiso   1.00
O316   O     0.05183   0.76134   0.29639   0.00000  Uiso   1.00
N317   N     0.40982   0.17888   0.07328   0.00000  Uiso   1.00
N318   N     0.10154   0.59543   0.16279   0.00000  Uiso   1.00
N319   N     0.11258   0.91479   0.29161   0.00000  Uiso   1.00
N320   N     0.36525   0.12599   0.98952   0.00000  Uiso   1.00
N321   N     0.05697   0.54253   0.07904   0.00000  Uiso   1.00
N322   N     0.06801   0.86190   0.20785   0.00000  Uiso   1.00
C323   C     0.71193   0.73431   0.18326   0.00000  Uiso   1.00
C324   C     0.75557   0.70609   0.13249   0.00000  Uiso   1.00
C325   C     0.81710   0.71184   0.13644   0.00000  Uiso   1.00
C326   C     0.84919   0.68258   0.08495   0.00000  Uiso   1.00
C327   C     0.92129   0.64396   0.01424   0.00000  Uiso   1.00
C328   C     0.67062   0.82090   0.15715   0.00000  Uiso   1.00
C329   C     0.66071   0.92319   0.18185   0.00000  Uiso   1.00
C330   C     0.62127   0.99057   0.15112   0.00000  Uiso   1.00
C331   C     0.56144   0.13016   0.11873   0.00000  Uiso   1.00
C332   C     0.67367   0.63331   0.19265   0.00000  Uiso   1.00
C333   C     0.66631   0.57788   0.24720   0.00000  Uiso   1.00
C334   C     0.62944   0.48733   0.24636   0.00000  Uiso   1.00
C335   C     0.57435   0.33567   0.26908   0.00000  Uiso   1.00
C336   C     0.65951   0.67210   0.08477   0.00000  Uiso   1.00
C337   C     0.72710   0.67231   0.07899   0.00000  Uiso   1.00
C338   C     0.75911   0.64302   0.02747   0.00000  Uiso   1.00
C339   C     0.82067   0.64873   0.03136   0.00000  Uiso   1.00
C340   C     0.64215   0.78712   0.10365   0.00000  Uiso   1.00
C341   C     0.60271   0.85436   0.07288   0.00000  Uiso   1.00
C342   C     0.59275   0.95672   0.09753   0.00000  Uiso   1.00
C343   C     0.64520   0.59952   0.13915   0.00000  Uiso   1.00
C344   C     0.60832   0.50905   0.13823   0.00000  Uiso   1.00
C345   C     0.60091   0.45349   0.19277   0.00000  Uiso   1.00
H346   H     0.73409   0.76062   0.22491   0.00000  Uiso   1.00
H347   H     0.83912   0.73801   0.17785   0.00000  Uiso   1.00
H348   H     0.68274   0.94930   0.22326   0.00000  Uiso   1.00
H349   H     0.68835   0.60405   0.28859   0.00000  Uiso   1.00
H350   H     0.94300   0.69807   0.10208   0.00000  Uiso   1.00
H351   H     0.61326   0.14360   0.19783   0.00000  Uiso   1.00
H352   H     0.62509   0.41556   0.33560   0.00000  Uiso   1.00
H353   H     0.63734   0.64580   0.04312   0.00000  Uiso   1.00
H354   H     0.73706   0.61688   0.98608   0.00000  Uiso   1.00
H355   H     0.58069   0.82819   0.03149   0.00000  Uiso   1.00
H356   H     0.58630   0.48293   0.09682   0.00000  Uiso   1.00
H357   H     0.86017   0.59977   0.94643   0.00000  Uiso   1.00
H358   H     0.53043   0.04530   0.04218   0.00000  Uiso   1.00
H359   H     0.54225   0.31726   0.17996   0.00000  Uiso   1.00
O360   O     0.96893   0.63200   0.99001   0.00000  Uiso   1.00
O361   O     0.53632   0.21651   0.11564   0.00000  Uiso   1.00
O362   O     0.55183   0.26134   0.29639   0.00000  Uiso   1.00
N363   N     0.90982   0.67888   0.07328   0.00000  Uiso   1.00
N364   N     0.60154   0.09543   0.16279   0.00000  Uiso   1.00
N365   N     0.61258   0.41479   0.29161   0.00000  Uiso   1.00
N366   N     0.86525   0.62599   0.98952   0.00000  Uiso   1.00
N367   N     0.55697   0.04253   0.07904   0.00000  Uiso   1.00
N368   N     0.56801   0.36190   0.20785   0.00000  Uiso   1.00
