data_job_06031
_audit_creation_date              2018-12-19
_audit_creation_method            'Materials Studio'
_symmetry_space_group_name_H-M    'P1'
_symmetry_Int_Tables_number       1
_symmetry_cell_setting            triclinic
loop_
_symmetry_equiv_pos_as_xyz
  x,y,z
_cell_length_a                    17.1844
_cell_length_b                    17.0003
_cell_length_c                    16.9171
_cell_angle_alpha                 103.6670
_cell_angle_beta                  103.6060
_cell_angle_gamma                 103.7950
loop_
_atom_site_label
_atom_site_type_symbol
_atom_site_fract_x
_atom_site_fract_y
_atom_site_fract_z
_atom_site_U_iso_or_equiv
_atom_site_adp_type
_atom_site_occupancy
C1     C     0.09056   0.69544   0.19843   0.00000  Uiso   1.00
C2     C     0.03199   0.67956   0.25208   0.00000  Uiso   1.00
C3     C     0.95256   0.68961   0.23743   0.00000  Uiso   1.00
C4     C     0.90893   0.67187   0.29381   0.00000  Uiso   1.00
C5     C     0.81275   0.65134   0.36672   0.00000  Uiso   1.00
C6     C     0.17287   0.76035   0.26017   0.00000  Uiso   1.00
C7     C     0.21189   0.83834   0.25231   0.00000  Uiso   1.00
C8     C     0.28685   0.88860   0.31550   0.00000  Uiso   1.00
C9     C     0.40941   0.99348   0.40093   0.00000  Uiso   1.00
C10    C     0.11050   0.61256   0.16952   0.00000  Uiso   1.00
C11    C     0.09710   0.56628   0.08543   0.00000  Uiso   1.00
C12    C     0.11957   0.49213   0.07229   0.00000  Uiso   1.00
C13    C     0.14529   0.36753   0.01697   0.00000  Uiso   1.00
C14    C     0.15431   0.64604   0.32462   0.00000  Uiso   1.00
C15    C     0.06663   0.65273   0.32063   0.00000  Uiso   1.00
C16    C     0.02310   0.63497   0.37704   0.00000  Uiso   1.00
C17    C     0.94361   0.64499   0.36248   0.00000  Uiso   1.00
C18    C     0.20750   0.73353   0.32871   0.00000  Uiso   1.00
C19    C     0.28242   0.78369   0.39192   0.00000  Uiso   1.00
C20    C     0.32154   0.86173   0.38416   0.00000  Uiso   1.00
C21    C     0.14512   0.58573   0.23806   0.00000  Uiso   1.00
C22    C     0.16763   0.51164   0.22504   0.00000  Uiso   1.00
C23    C     0.15426   0.46525   0.14096   0.00000  Uiso   1.00
H24    H     0.06360   0.71633   0.14507   0.00000  Uiso   1.00
H25    H     0.92579   0.71038   0.18439   0.00000  Uiso   1.00
H26    H     0.18508   0.85907   0.19926   0.00000  Uiso   1.00
H27    H     0.07030   0.58706   0.03241   0.00000  Uiso   1.00
H28    H     0.78829   0.69199   0.25822   0.00000  Uiso   1.00
H29    H     0.33502   0.00551   0.28957   0.00000  Uiso   1.00
H30    H     0.09300   0.43192   0.93772   0.00000  Uiso   1.00
H31    H     0.18127   0.62516   0.37798   0.00000  Uiso   1.00
H32    H     0.04991   0.61421   0.43008   0.00000  Uiso   1.00
H33    H     0.30920   0.76291   0.44495   0.00000  Uiso   1.00
H34    H     0.19442   0.49090   0.27810   0.00000  Uiso   1.00
H35    H     0.88903   0.61394   0.45763   0.00000  Uiso   1.00
H36    H     0.43577   0.92745   0.48898   0.00000  Uiso   1.00
H37    H     0.19374   0.35387   0.13714   0.00000  Uiso   1.00
O38    O     0.75013   0.64743   0.38801   0.00000  Uiso   1.00
O39    O     0.46744   0.05874   0.42912   0.00000  Uiso   1.00
O40    O     0.14990   0.30621   0.96752   0.00000  Uiso   1.00
N41    N     0.83001   0.67511   0.29799   0.00000  Uiso   1.00
N42    N     0.34117   0.96823   0.32731   0.00000  Uiso   1.00
N43    N     0.11492   0.43199   0.99836   0.00000  Uiso   1.00
N44    N     0.88422   0.63311   0.40529   0.00000  Uiso   1.00
N45    N     0.39538   0.92623   0.43461   0.00000  Uiso   1.00
N46    N     0.16913   0.38999   0.10566   0.00000  Uiso   1.00
C47    C     0.19885   0.08966   0.69542   0.00000  Uiso   1.00
C48    C     0.25120   0.03020   0.67913   0.00000  Uiso   1.00
C49    C     0.23635   0.94980   0.68918   0.00000  Uiso   1.00
C50    C     0.29147   0.90545   0.67104   0.00000  Uiso   1.00
C51    C     0.36250   0.80785   0.64993   0.00000  Uiso   1.00
C52    C     0.26012   0.17270   0.76052   0.00000  Uiso   1.00
C53    C     0.25277   0.21213   0.83898   0.00000  Uiso   1.00
C54    C     0.31539   0.28774   0.88934   0.00000  Uiso   1.00
C55    C     0.40024   0.41141   0.99455   0.00000  Uiso   1.00
C56    C     0.17040   0.11007   0.61229   0.00000  Uiso   1.00
C57    C     0.08762   0.09685   0.56613   0.00000  Uiso   1.00
C58    C     0.07470   0.11975   0.49170   0.00000  Uiso   1.00
C59    C     0.02026   0.14616   0.36676   0.00000  Uiso   1.00
C60    C     0.32313   0.15386   0.64532   0.00000  Uiso   1.00
C61    C     0.31870   0.06508   0.65192   0.00000  Uiso   1.00
C62    C     0.37385   0.02084   0.63375   0.00000  Uiso   1.00
C63    C     0.35909   0.94039   0.64377   0.00000  Uiso   1.00
C64    C     0.32762   0.20757   0.73331   0.00000  Uiso   1.00
C65    C     0.39026   0.28316   0.78355   0.00000  Uiso   1.00
C66    C     0.38301   0.32268   0.86208   0.00000  Uiso   1.00
C67    C     0.23791   0.14494   0.58507   0.00000  Uiso   1.00
C68    C     0.22512   0.16787   0.51070   0.00000  Uiso   1.00
C69    C     0.14233   0.15469   0.46444   0.00000  Uiso   1.00
H70    H     0.14630   0.06251   0.71661   0.00000  Uiso   1.00
H71    H     0.18411   0.92284   0.71025   0.00000  Uiso   1.00
H72    H     0.20052   0.18513   0.86002   0.00000  Uiso   1.00
H73    H     0.03540   0.06986   0.58721   0.00000  Uiso   1.00
H74    H     0.25582   0.78338   0.69123   0.00000  Uiso   1.00
H75    H     0.29040   0.33644   0.00702   0.00000  Uiso   1.00
H76    H     0.94221   0.09338   0.43174   0.00000  Uiso   1.00
H77    H     0.37568   0.18101   0.62414   0.00000  Uiso   1.00
H78    H     0.42608   0.04784   0.61270   0.00000  Uiso   1.00
H79    H     0.44249   0.31013   0.76247   0.00000  Uiso   1.00
H80    H     0.27737   0.19486   0.48966   0.00000  Uiso   1.00
H81    H     0.45221   0.88484   0.61206   0.00000  Uiso   1.00
H82    H     0.48679   0.43790   0.92785   0.00000  Uiso   1.00
H83    H     0.13860   0.19484   0.35257   0.00000  Uiso   1.00
O84    O     0.38305   0.74438   0.64581   0.00000  Uiso   1.00
O85    O     0.42840   0.46998   0.06011   0.00000  Uiso   1.00
O86    O     0.97159   0.15108   0.30536   0.00000  Uiso   1.00
N87    N     0.29511   0.82553   0.67415   0.00000  Uiso   1.00
N88    N     0.32745   0.34260   0.96940   0.00000  Uiso   1.00
N89    N     0.00192   0.11538   0.43158   0.00000  Uiso   1.00
N90    N     0.40079   0.88012   0.63154   0.00000  Uiso   1.00
N91    N     0.43313   0.39719   0.92680   0.00000  Uiso   1.00
N92    N     0.10760   0.16997   0.38897   0.00000  Uiso   1.00
C93    C     0.69515   0.19841   0.08937   0.00000  Uiso   1.00
C94    C     0.67935   0.25155   0.02977   0.00000  Uiso   1.00
C95    C     0.68899   0.23660   0.94891   0.00000  Uiso   1.00
C96    C     0.67140   0.29254   0.90450   0.00000  Uiso   1.00
C97    C     0.65090   0.36468   0.80661   0.00000  Uiso   1.00
C98    C     0.75963   0.26011   0.17264   0.00000  Uiso   1.00
C99    C     0.83676   0.25234   0.21191   0.00000  Uiso   1.00
C100   C     0.88675   0.31547   0.28778   0.00000  Uiso   1.00
C101   C     0.99085   0.40086   0.41172   0.00000  Uiso   1.00
C102   C     0.61334   0.16985   0.11021   0.00000  Uiso   1.00
C103   C     0.56747   0.08620   0.09700   0.00000  Uiso   1.00
C104   C     0.49430   0.07334   0.12033   0.00000  Uiso   1.00
C105   C     0.37126   0.01860   0.14734   0.00000  Uiso   1.00
C106   C     0.64677   0.32432   0.15431   0.00000  Uiso   1.00
C107   C     0.65307   0.31995   0.06505   0.00000  Uiso   1.00
C108   C     0.63546   0.37592   0.02075   0.00000  Uiso   1.00
C109   C     0.64507   0.36105   0.93983   0.00000  Uiso   1.00
C110   C     0.73335   0.32850   0.20791   0.00000  Uiso   1.00
C111   C     0.78323   0.39165   0.28375   0.00000  Uiso   1.00
C112   C     0.86042   0.38399   0.32311   0.00000  Uiso   1.00
C113   C     0.58705   0.23825   0.14548   0.00000  Uiso   1.00
C114   C     0.51394   0.22551   0.16884   0.00000  Uiso   1.00
C115   C     0.46797   0.14186   0.15567   0.00000  Uiso   1.00
H116   H     0.71562   0.14516   0.06192   0.00000  Uiso   1.00
H117   H     0.70934   0.18367   0.92164   0.00000  Uiso   1.00
H118   H     0.85708   0.19940   0.18460   0.00000  Uiso   1.00
H119   H     0.58783   0.03329   0.06971   0.00000  Uiso   1.00
H120   H     0.69081   0.25655   0.78168   0.00000  Uiso   1.00
H121   H     0.00232   0.28970   0.33616   0.00000  Uiso   1.00
H122   H     0.43456   0.93941   0.09389   0.00000  Uiso   1.00
H123   H     0.62631   0.37757   0.18177   0.00000  Uiso   1.00
H124   H     0.61513   0.42884   0.04806   0.00000  Uiso   1.00
H125   H     0.76287   0.44457   0.31103   0.00000  Uiso   1.00
H126   H     0.49363   0.27846   0.19614   0.00000  Uiso   1.00
H127   H     0.61436   0.45554   0.88429   0.00000  Uiso   1.00
H128   H     0.92586   0.48869   0.43878   0.00000  Uiso   1.00
H129   H     0.35810   0.13840   0.19650   0.00000  Uiso   1.00
O130   O     0.64686   0.38559   0.74287   0.00000  Uiso   1.00
O131   O     0.05554   0.42907   0.47034   0.00000  Uiso   1.00
O132   O     0.31065   0.96951   0.15248   0.00000  Uiso   1.00
N133   N     0.67434   0.29633   0.82417   0.00000  Uiso   1.00
N134   N     0.96558   0.32734   0.34257   0.00000  Uiso   1.00
N135   N     0.43479   0.99985   0.11609   0.00000  Uiso   1.00
N136   N     0.63319   0.40341   0.87938   0.00000  Uiso   1.00
N137   N     0.92444   0.43441   0.39779   0.00000  Uiso   1.00
N138   N     0.39365   0.10692   0.17131   0.00000  Uiso   1.00
C139   C     0.90944   0.30456   0.80157   0.00000  Uiso   1.00
C140   C     0.96801   0.32044   0.74792   0.00000  Uiso   1.00
C141   C     0.04744   0.31039   0.76257   0.00000  Uiso   1.00
C142   C     0.09107   0.32813   0.70619   0.00000  Uiso   1.00
C143   C     0.18725   0.34866   0.63328   0.00000  Uiso   1.00
C144   C     0.82713   0.23965   0.73983   0.00000  Uiso   1.00
C145   C     0.78811   0.16166   0.74769   0.00000  Uiso   1.00
C146   C     0.71315   0.11140   0.68450   0.00000  Uiso   1.00
C147   C     0.59059   0.00652   0.59907   0.00000  Uiso   1.00
C148   C     0.88950   0.38744   0.83048   0.00000  Uiso   1.00
C149   C     0.90290   0.43372   0.91457   0.00000  Uiso   1.00
C150   C     0.88043   0.50787   0.92771   0.00000  Uiso   1.00
C151   C     0.85471   0.63247   0.98303   0.00000  Uiso   1.00
C152   C     0.84569   0.35396   0.67538   0.00000  Uiso   1.00
C153   C     0.93337   0.34727   0.67937   0.00000  Uiso   1.00
C154   C     0.97690   0.36503   0.62296   0.00000  Uiso   1.00
C155   C     0.05639   0.35501   0.63752   0.00000  Uiso   1.00
C156   C     0.79250   0.26647   0.67129   0.00000  Uiso   1.00
C157   C     0.71758   0.21631   0.60808   0.00000  Uiso   1.00
C158   C     0.67846   0.13827   0.61584   0.00000  Uiso   1.00
C159   C     0.85488   0.41427   0.76194   0.00000  Uiso   1.00
C160   C     0.83237   0.48836   0.77496   0.00000  Uiso   1.00
C161   C     0.84574   0.53475   0.85904   0.00000  Uiso   1.00
H162   H     0.93640   0.28367   0.85493   0.00000  Uiso   1.00
H163   H     0.07421   0.28962   0.81561   0.00000  Uiso   1.00
H164   H     0.81492   0.14093   0.80074   0.00000  Uiso   1.00
H165   H     0.92970   0.41294   0.96759   0.00000  Uiso   1.00
H166   H     0.21171   0.30801   0.74178   0.00000  Uiso   1.00
H167   H     0.66498   0.99449   0.71043   0.00000  Uiso   1.00
H168   H     0.90700   0.56808   0.06228   0.00000  Uiso   1.00
H169   H     0.81873   0.37484   0.62202   0.00000  Uiso   1.00
H170   H     0.95009   0.38579   0.56992   0.00000  Uiso   1.00
H171   H     0.69080   0.23709   0.55505   0.00000  Uiso   1.00
H172   H     0.80558   0.50911   0.72190   0.00000  Uiso   1.00
H173   H     0.11097   0.38606   0.54237   0.00000  Uiso   1.00
H174   H     0.56423   0.07255   0.51102   0.00000  Uiso   1.00
H175   H     0.80626   0.64613   0.86286   0.00000  Uiso   1.00
O176   O     0.24987   0.35257   0.61199   0.00000  Uiso   1.00
O177   O     0.53256   0.94126   0.57088   0.00000  Uiso   1.00
O178   O     0.85010   0.69379   0.03248   0.00000  Uiso   1.00
N179   N     0.16999   0.32489   0.70201   0.00000  Uiso   1.00
N180   N     0.65883   0.03177   0.67269   0.00000  Uiso   1.00
N181   N     0.88508   0.56801   0.00164   0.00000  Uiso   1.00
N182   N     0.11578   0.36690   0.59471   0.00000  Uiso   1.00
N183   N     0.60462   0.07377   0.56539   0.00000  Uiso   1.00
N184   N     0.83087   0.61001   0.89434   0.00000  Uiso   1.00
C185   C     0.80115   0.91035   0.30458   0.00000  Uiso   1.00
C186   C     0.74880   0.96980   0.32087   0.00000  Uiso   1.00
C187   C     0.76365   0.05020   0.31082   0.00000  Uiso   1.00
C188   C     0.70853   0.09455   0.32896   0.00000  Uiso   1.00
C189   C     0.63750   0.19215   0.35007   0.00000  Uiso   1.00
C190   C     0.73988   0.82730   0.23948   0.00000  Uiso   1.00
C191   C     0.74724   0.78787   0.16102   0.00000  Uiso   1.00
C192   C     0.68461   0.71226   0.11066   0.00000  Uiso   1.00
C193   C     0.59976   0.58859   0.00545   0.00000  Uiso   1.00
C194   C     0.82960   0.88993   0.38771   0.00000  Uiso   1.00
C195   C     0.91238   0.90315   0.43387   0.00000  Uiso   1.00
C196   C     0.92530   0.88025   0.50830   0.00000  Uiso   1.00
C197   C     0.97974   0.85384   0.63324   0.00000  Uiso   1.00
C198   C     0.67687   0.84614   0.35468   0.00000  Uiso   1.00
C199   C     0.68130   0.93493   0.34808   0.00000  Uiso   1.00
C200   C     0.62615   0.97916   0.36625   0.00000  Uiso   1.00
C201   C     0.64091   0.05961   0.35623   0.00000  Uiso   1.00
C202   C     0.67238   0.79243   0.26669   0.00000  Uiso   1.00
C203   C     0.60974   0.71684   0.21645   0.00000  Uiso   1.00
C204   C     0.61699   0.67732   0.13792   0.00000  Uiso   1.00
C205   C     0.76210   0.85506   0.41493   0.00000  Uiso   1.00
C206   C     0.77488   0.83213   0.48930   0.00000  Uiso   1.00
C207   C     0.85767   0.84531   0.53556   0.00000  Uiso   1.00
H208   H     0.85370   0.93749   0.28339   0.00000  Uiso   1.00
H209   H     0.81589   0.07716   0.28975   0.00000  Uiso   1.00
H210   H     0.79948   0.81487   0.13998   0.00000  Uiso   1.00
H211   H     0.96460   0.93014   0.41279   0.00000  Uiso   1.00
H212   H     0.74418   0.21662   0.30877   0.00000  Uiso   1.00
H213   H     0.70960   0.66356   0.99298   0.00000  Uiso   1.00
H214   H     0.05779   0.90662   0.56826   0.00000  Uiso   1.00
H215   H     0.62432   0.81899   0.37586   0.00000  Uiso   1.00
H216   H     0.57392   0.95216   0.38730   0.00000  Uiso   1.00
H217   H     0.55751   0.68987   0.23753   0.00000  Uiso   1.00
H218   H     0.72263   0.80514   0.51034   0.00000  Uiso   1.00
H219   H     0.54779   0.11516   0.38794   0.00000  Uiso   1.00
H220   H     0.51321   0.56210   0.07215   0.00000  Uiso   1.00
H221   H     0.86140   0.80516   0.64743   0.00000  Uiso   1.00
O222   O     0.61695   0.25562   0.35419   0.00000  Uiso   1.00
O223   O     0.57160   0.53002   0.93989   0.00000  Uiso   1.00
O224   O     0.02841   0.84892   0.69464   0.00000  Uiso   1.00
N225   N     0.70489   0.17447   0.32585   0.00000  Uiso   1.00
N226   N     0.67255   0.65740   0.03060   0.00000  Uiso   1.00
N227   N     0.99808   0.88462   0.56842   0.00000  Uiso   1.00
N228   N     0.59921   0.11988   0.36846   0.00000  Uiso   1.00
N229   N     0.56687   0.60281   0.07321   0.00000  Uiso   1.00
N230   N     0.89240   0.83003   0.61103   0.00000  Uiso   1.00
C231   C     0.30485   0.80159   0.91063   0.00000  Uiso   1.00
C232   C     0.32065   0.74845   0.97023   0.00000  Uiso   1.00
C233   C     0.31101   0.76340   0.05109   0.00000  Uiso   1.00
C234   C     0.32860   0.70746   0.09550   0.00000  Uiso   1.00
C235   C     0.34910   0.63532   0.19339   0.00000  Uiso   1.00
C236   C     0.24037   0.73989   0.82736   0.00000  Uiso   1.00
C237   C     0.16324   0.74766   0.78810   0.00000  Uiso   1.00
C238   C     0.11325   0.68453   0.71222   0.00000  Uiso   1.00
C239   C     0.00915   0.59914   0.58828   0.00000  Uiso   1.00
C240   C     0.38666   0.83015   0.88979   0.00000  Uiso   1.00
C241   C     0.43253   0.91380   0.90300   0.00000  Uiso   1.00
C242   C     0.50570   0.92666   0.87967   0.00000  Uiso   1.00
C243   C     0.62874   0.98140   0.85266   0.00000  Uiso   1.00
C244   C     0.35323   0.67568   0.84569   0.00000  Uiso   1.00
C245   C     0.34693   0.68005   0.93495   0.00000  Uiso   1.00
C246   C     0.36454   0.62408   0.97925   0.00000  Uiso   1.00
C247   C     0.35493   0.63895   0.06017   0.00000  Uiso   1.00
C248   C     0.26665   0.67150   0.79209   0.00000  Uiso   1.00
C249   C     0.21677   0.60835   0.71625   0.00000  Uiso   1.00
C250   C     0.13958   0.61601   0.67689   0.00000  Uiso   1.00
C251   C     0.41295   0.76175   0.85452   0.00000  Uiso   1.00
C252   C     0.48606   0.77449   0.83116   0.00000  Uiso   1.00
C253   C     0.53203   0.85814   0.84434   0.00000  Uiso   1.00
H254   H     0.28438   0.85484   0.93808   0.00000  Uiso   1.00
H255   H     0.29066   0.81633   0.07836   0.00000  Uiso   1.00
H256   H     0.14292   0.80060   0.81540   0.00000  Uiso   1.00
H257   H     0.41217   0.96671   0.93029   0.00000  Uiso   1.00
H258   H     0.30919   0.74345   0.21832   0.00000  Uiso   1.00
H259   H     0.99768   0.71030   0.66384   0.00000  Uiso   1.00
H260   H     0.56544   0.06059   0.90611   0.00000  Uiso   1.00
H261   H     0.37369   0.62243   0.81823   0.00000  Uiso   1.00
H262   H     0.38487   0.57116   0.95194   0.00000  Uiso   1.00
H263   H     0.23713   0.55543   0.68897   0.00000  Uiso   1.00
H264   H     0.50637   0.72154   0.80387   0.00000  Uiso   1.00
H265   H     0.38564   0.54446   0.11571   0.00000  Uiso   1.00
H266   H     0.07414   0.51131   0.56122   0.00000  Uiso   1.00
H267   H     0.64190   0.86160   0.80350   0.00000  Uiso   1.00
O268   O     0.35314   0.61441   0.25713   0.00000  Uiso   1.00
O269   O     0.94446   0.57093   0.52966   0.00000  Uiso   1.00
O270   O     0.68935   0.03049   0.84752   0.00000  Uiso   1.00
N271   N     0.32566   0.70367   0.17583   0.00000  Uiso   1.00
N272   N     0.03442   0.67266   0.65743   0.00000  Uiso   1.00
N273   N     0.56521   0.00015   0.88391   0.00000  Uiso   1.00
N274   N     0.36681   0.59659   0.12062   0.00000  Uiso   1.00
N275   N     0.07556   0.56559   0.60221   0.00000  Uiso   1.00
N276   N     0.60636   0.89308   0.82869   0.00000  Uiso   1.00
