data_job_03145
_audit_creation_date              2018-12-19
_audit_creation_method            'Materials Studio'
_symmetry_space_group_name_H-M    'P1'
_symmetry_Int_Tables_number       1
_symmetry_cell_setting            triclinic
loop_
_symmetry_equiv_pos_as_xyz
  x,y,z
_cell_length_a                    21.2853
_cell_length_b                    19.1726
_cell_length_c                    13.1945
_cell_angle_alpha                 90.0000
_cell_angle_beta                  90.0000
_cell_angle_gamma                 90.0000
loop_
_atom_site_label
_atom_site_type_symbol
_atom_site_fract_x
_atom_site_fract_y
_atom_site_fract_z
_atom_site_U_iso_or_equiv
_atom_site_adp_type
_atom_site_occupancy
C1     C     0.22719   0.05902   0.71739   0.00000  Uiso   1.00
C2     C     0.18931   0.00227   0.77052   0.00000  Uiso   1.00
C3     C     0.16849   0.94069   0.72662   0.00000  Uiso   1.00
C4     C     0.13452   0.89552   0.78794   0.00000  Uiso   1.00
C5     C     0.07760   0.80499   0.85498   0.00000  Uiso   1.00
C6     C     0.18957   0.12619   0.72964   0.00000  Uiso   1.00
C7     C     0.16898   0.16880   0.65136   0.00000  Uiso   1.00
C8     C     0.13524   0.22794   0.67828   0.00000  Uiso   1.00
C9     C     0.07877   0.32983   0.68185   0.00000  Uiso   1.00
C10    C     0.28671   0.06868   0.78014   0.00000  Uiso   1.00
C11    C     0.34780   0.06296   0.74433   0.00000  Uiso   1.00
C12    C     0.39585   0.07370   0.81376   0.00000  Uiso   1.00
C13    C     0.49021   0.08629   0.89574   0.00000  Uiso   1.00
C14    C     0.20389   0.08830   0.90437   0.00000  Uiso   1.00
C15    C     0.17666   0.01818   0.87208   0.00000  Uiso   1.00
C16    C     0.14271   0.97308   0.93349   0.00000  Uiso   1.00
C17    C     0.12185   0.91144   0.88969   0.00000  Uiso   1.00
C18    C     0.17692   0.14209   0.83119   0.00000  Uiso   1.00
C19    C     0.14321   0.20119   0.85823   0.00000  Uiso   1.00
C20    C     0.12256   0.24388   0.78003   0.00000  Uiso   1.00
C21    C     0.27406   0.08458   0.88170   0.00000  Uiso   1.00
C22    C     0.32203   0.09534   0.95120   0.00000  Uiso   1.00
C23    C     0.38318   0.08963   0.91550   0.00000  Uiso   1.00
H24    H     0.23703   0.04664   0.63832   0.00000  Uiso   1.00
H25    H     0.17828   0.92840   0.64802   0.00000  Uiso   1.00
H26    H     0.17878   0.15648   0.57278   0.00000  Uiso   1.00
H27    H     0.35757   0.05065   0.66573   0.00000  Uiso   1.00
H28    H     0.10754   0.80434   0.70355   0.00000  Uiso   1.00
H29    H     0.10861   0.28526   0.54491   0.00000  Uiso   1.00
H30    H     0.48564   0.06210   0.74091   0.00000  Uiso   1.00
H31    H     0.19404   0.10069   0.98344   0.00000  Uiso   1.00
H32    H     0.13293   0.98540   0.01208   0.00000  Uiso   1.00
H33    H     0.13343   0.21348   0.93684   0.00000  Uiso   1.00
H34    H     0.31222   0.10765   0.02979   0.00000  Uiso   1.00
H35    H     0.07073   0.85060   0.99903   0.00000  Uiso   1.00
H36    H     0.07180   0.33153   0.84039   0.00000  Uiso   1.00
H37    H     0.44883   0.10836   0.03639   0.00000  Uiso   1.00
O38    O     0.04969   0.75067   0.86389   0.00000  Uiso   1.00
O39    O     0.05111   0.38163   0.65576   0.00000  Uiso   1.00
O40    O     0.54575   0.08884   0.91291   0.00000  Uiso   1.00
N41    N     0.10728   0.83104   0.76917   0.00000  Uiso   1.00
N42    N     0.10827   0.28067   0.62084   0.00000  Uiso   1.00
N43    N     0.46075   0.07205   0.80408   0.00000  Uiso   1.00
N44    N     0.08747   0.85593   0.92816   0.00000  Uiso   1.00
N45    N     0.08846   0.30556   0.77984   0.00000  Uiso   1.00
N46    N     0.44095   0.09694   0.96308   0.00000  Uiso   1.00
C47    C     0.72719   0.55902   0.21739   0.00000  Uiso   1.00
C48    C     0.68931   0.50227   0.27052   0.00000  Uiso   1.00
C49    C     0.66849   0.44069   0.22662   0.00000  Uiso   1.00
C50    C     0.63452   0.39552   0.28794   0.00000  Uiso   1.00
C51    C     0.57760   0.30499   0.35498   0.00000  Uiso   1.00
C52    C     0.68957   0.62619   0.22964   0.00000  Uiso   1.00
C53    C     0.66898   0.66880   0.15136   0.00000  Uiso   1.00
C54    C     0.63524   0.72794   0.17828   0.00000  Uiso   1.00
C55    C     0.57877   0.82983   0.18185   0.00000  Uiso   1.00
C56    C     0.78671   0.56868   0.28014   0.00000  Uiso   1.00
C57    C     0.84780   0.56296   0.24433   0.00000  Uiso   1.00
C58    C     0.89585   0.57370   0.31376   0.00000  Uiso   1.00
C59    C     0.99021   0.58629   0.39574   0.00000  Uiso   1.00
C60    C     0.70389   0.58830   0.40437   0.00000  Uiso   1.00
C61    C     0.67666   0.51818   0.37208   0.00000  Uiso   1.00
C62    C     0.64271   0.47308   0.43349   0.00000  Uiso   1.00
C63    C     0.62185   0.41144   0.38969   0.00000  Uiso   1.00
C64    C     0.67692   0.64209   0.33119   0.00000  Uiso   1.00
C65    C     0.64321   0.70119   0.35823   0.00000  Uiso   1.00
C66    C     0.62256   0.74388   0.28003   0.00000  Uiso   1.00
C67    C     0.77406   0.58458   0.38170   0.00000  Uiso   1.00
C68    C     0.82203   0.59534   0.45120   0.00000  Uiso   1.00
C69    C     0.88318   0.58963   0.41550   0.00000  Uiso   1.00
H70    H     0.73703   0.54664   0.13832   0.00000  Uiso   1.00
H71    H     0.67828   0.42840   0.14802   0.00000  Uiso   1.00
H72    H     0.67878   0.65648   0.07278   0.00000  Uiso   1.00
H73    H     0.85757   0.55065   0.16573   0.00000  Uiso   1.00
H74    H     0.60754   0.30434   0.20355   0.00000  Uiso   1.00
H75    H     0.60861   0.78526   0.04491   0.00000  Uiso   1.00
H76    H     0.98564   0.56210   0.24091   0.00000  Uiso   1.00
H77    H     0.69404   0.60069   0.48344   0.00000  Uiso   1.00
H78    H     0.63293   0.48540   0.51208   0.00000  Uiso   1.00
H79    H     0.63343   0.71348   0.43684   0.00000  Uiso   1.00
H80    H     0.81222   0.60765   0.52979   0.00000  Uiso   1.00
H81    H     0.57073   0.35060   0.49903   0.00000  Uiso   1.00
H82    H     0.57180   0.83153   0.34039   0.00000  Uiso   1.00
H83    H     0.94883   0.60836   0.53639   0.00000  Uiso   1.00
O84    O     0.54969   0.25067   0.36389   0.00000  Uiso   1.00
O85    O     0.55111   0.88163   0.15576   0.00000  Uiso   1.00
O86    O     0.04575   0.58884   0.41291   0.00000  Uiso   1.00
N87    N     0.60728   0.33104   0.26917   0.00000  Uiso   1.00
N88    N     0.60827   0.78067   0.12084   0.00000  Uiso   1.00
N89    N     0.96075   0.57205   0.30408   0.00000  Uiso   1.00
N90    N     0.58747   0.35593   0.42816   0.00000  Uiso   1.00
N91    N     0.58846   0.80556   0.27984   0.00000  Uiso   1.00
N92    N     0.94095   0.59694   0.46308   0.00000  Uiso   1.00
C93    C     0.77281   0.94098   0.71739   0.00000  Uiso   1.00
C94    C     0.81069   0.99773   0.77052   0.00000  Uiso   1.00
C95    C     0.83151   0.05931   0.72662   0.00000  Uiso   1.00
C96    C     0.86548   0.10448   0.78794   0.00000  Uiso   1.00
C97    C     0.92240   0.19501   0.85498   0.00000  Uiso   1.00
C98    C     0.81043   0.87381   0.72964   0.00000  Uiso   1.00
C99    C     0.83102   0.83120   0.65136   0.00000  Uiso   1.00
C100   C     0.86476   0.77206   0.67828   0.00000  Uiso   1.00
C101   C     0.92123   0.67017   0.68185   0.00000  Uiso   1.00
C102   C     0.71329   0.93132   0.78014   0.00000  Uiso   1.00
C103   C     0.65220   0.93704   0.74433   0.00000  Uiso   1.00
C104   C     0.60415   0.92630   0.81376   0.00000  Uiso   1.00
C105   C     0.50979   0.91371   0.89574   0.00000  Uiso   1.00
C106   C     0.79611   0.91170   0.90437   0.00000  Uiso   1.00
C107   C     0.82334   0.98182   0.87208   0.00000  Uiso   1.00
C108   C     0.85729   0.02692   0.93349   0.00000  Uiso   1.00
C109   C     0.87815   0.08856   0.88969   0.00000  Uiso   1.00
C110   C     0.82308   0.85791   0.83119   0.00000  Uiso   1.00
C111   C     0.85679   0.79881   0.85823   0.00000  Uiso   1.00
C112   C     0.87744   0.75612   0.78003   0.00000  Uiso   1.00
C113   C     0.72594   0.91542   0.88170   0.00000  Uiso   1.00
C114   C     0.67797   0.90466   0.95120   0.00000  Uiso   1.00
C115   C     0.61682   0.91037   0.91550   0.00000  Uiso   1.00
H116   H     0.76297   0.95336   0.63832   0.00000  Uiso   1.00
H117   H     0.82172   0.07160   0.64802   0.00000  Uiso   1.00
H118   H     0.82122   0.84352   0.57278   0.00000  Uiso   1.00
H119   H     0.64243   0.94935   0.66573   0.00000  Uiso   1.00
H120   H     0.89246   0.19566   0.70355   0.00000  Uiso   1.00
H121   H     0.89139   0.71474   0.54491   0.00000  Uiso   1.00
H122   H     0.51436   0.93790   0.74091   0.00000  Uiso   1.00
H123   H     0.80596   0.89931   0.98344   0.00000  Uiso   1.00
H124   H     0.86707   0.01460   0.01208   0.00000  Uiso   1.00
H125   H     0.86657   0.78652   0.93684   0.00000  Uiso   1.00
H126   H     0.68778   0.89235   0.02979   0.00000  Uiso   1.00
H127   H     0.92927   0.14940   0.99903   0.00000  Uiso   1.00
H128   H     0.92820   0.66847   0.84039   0.00000  Uiso   1.00
H129   H     0.55117   0.89164   0.03639   0.00000  Uiso   1.00
O130   O     0.95031   0.24933   0.86389   0.00000  Uiso   1.00
O131   O     0.94889   0.61837   0.65576   0.00000  Uiso   1.00
O132   O     0.45425   0.91116   0.91291   0.00000  Uiso   1.00
N133   N     0.89272   0.16896   0.76917   0.00000  Uiso   1.00
N134   N     0.89173   0.71933   0.62084   0.00000  Uiso   1.00
N135   N     0.53925   0.92795   0.80408   0.00000  Uiso   1.00
N136   N     0.91253   0.14407   0.92816   0.00000  Uiso   1.00
N137   N     0.91154   0.69444   0.77984   0.00000  Uiso   1.00
N138   N     0.55905   0.90306   0.96308   0.00000  Uiso   1.00
C139   C     0.27281   0.44098   0.21739   0.00000  Uiso   1.00
C140   C     0.31069   0.49773   0.27052   0.00000  Uiso   1.00
C141   C     0.33151   0.55931   0.22662   0.00000  Uiso   1.00
C142   C     0.36548   0.60448   0.28794   0.00000  Uiso   1.00
C143   C     0.42240   0.69501   0.35498   0.00000  Uiso   1.00
C144   C     0.31043   0.37381   0.22964   0.00000  Uiso   1.00
C145   C     0.33102   0.33120   0.15136   0.00000  Uiso   1.00
C146   C     0.36476   0.27206   0.17828   0.00000  Uiso   1.00
C147   C     0.42123   0.17017   0.18185   0.00000  Uiso   1.00
C148   C     0.21329   0.43132   0.28014   0.00000  Uiso   1.00
C149   C     0.15220   0.43704   0.24433   0.00000  Uiso   1.00
C150   C     0.10415   0.42630   0.31376   0.00000  Uiso   1.00
C151   C     0.00979   0.41371   0.39574   0.00000  Uiso   1.00
C152   C     0.29611   0.41170   0.40437   0.00000  Uiso   1.00
C153   C     0.32334   0.48182   0.37208   0.00000  Uiso   1.00
C154   C     0.35729   0.52692   0.43349   0.00000  Uiso   1.00
C155   C     0.37815   0.58856   0.38969   0.00000  Uiso   1.00
C156   C     0.32308   0.35791   0.33119   0.00000  Uiso   1.00
C157   C     0.35679   0.29881   0.35823   0.00000  Uiso   1.00
C158   C     0.37744   0.25612   0.28003   0.00000  Uiso   1.00
C159   C     0.22594   0.41542   0.38170   0.00000  Uiso   1.00
C160   C     0.17797   0.40466   0.45120   0.00000  Uiso   1.00
C161   C     0.11682   0.41037   0.41550   0.00000  Uiso   1.00
H162   H     0.26297   0.45336   0.13832   0.00000  Uiso   1.00
H163   H     0.32172   0.57160   0.14802   0.00000  Uiso   1.00
H164   H     0.32122   0.34352   0.07278   0.00000  Uiso   1.00
H165   H     0.14243   0.44935   0.16573   0.00000  Uiso   1.00
H166   H     0.39246   0.69566   0.20355   0.00000  Uiso   1.00
H167   H     0.39139   0.21474   0.04491   0.00000  Uiso   1.00
H168   H     0.01436   0.43790   0.24091   0.00000  Uiso   1.00
H169   H     0.30596   0.39931   0.48344   0.00000  Uiso   1.00
H170   H     0.36707   0.51460   0.51208   0.00000  Uiso   1.00
H171   H     0.36657   0.28652   0.43684   0.00000  Uiso   1.00
H172   H     0.18778   0.39235   0.52979   0.00000  Uiso   1.00
H173   H     0.42927   0.64940   0.49903   0.00000  Uiso   1.00
H174   H     0.42820   0.16847   0.34039   0.00000  Uiso   1.00
H175   H     0.05117   0.39164   0.53639   0.00000  Uiso   1.00
O176   O     0.45031   0.74933   0.36389   0.00000  Uiso   1.00
O177   O     0.44889   0.11837   0.15576   0.00000  Uiso   1.00
O178   O     0.95425   0.41116   0.41291   0.00000  Uiso   1.00
N179   N     0.39272   0.66896   0.26917   0.00000  Uiso   1.00
N180   N     0.39173   0.21933   0.12084   0.00000  Uiso   1.00
N181   N     0.03925   0.42795   0.30408   0.00000  Uiso   1.00
N182   N     0.41253   0.64407   0.42816   0.00000  Uiso   1.00
N183   N     0.41154   0.19444   0.27984   0.00000  Uiso   1.00
N184   N     0.05905   0.40306   0.46308   0.00000  Uiso   1.00
C185   C     0.72719   0.44098   0.71739   0.00000  Uiso   1.00
C186   C     0.68931   0.49773   0.77052   0.00000  Uiso   1.00
C187   C     0.66849   0.55931   0.72662   0.00000  Uiso   1.00
C188   C     0.63452   0.60448   0.78794   0.00000  Uiso   1.00
C189   C     0.57760   0.69501   0.85498   0.00000  Uiso   1.00
C190   C     0.68957   0.37381   0.72964   0.00000  Uiso   1.00
C191   C     0.66898   0.33120   0.65136   0.00000  Uiso   1.00
C192   C     0.63524   0.27206   0.67828   0.00000  Uiso   1.00
C193   C     0.57877   0.17017   0.68185   0.00000  Uiso   1.00
C194   C     0.78671   0.43132   0.78014   0.00000  Uiso   1.00
C195   C     0.84780   0.43704   0.74433   0.00000  Uiso   1.00
C196   C     0.89585   0.42630   0.81376   0.00000  Uiso   1.00
C197   C     0.99021   0.41371   0.89574   0.00000  Uiso   1.00
C198   C     0.70389   0.41170   0.90437   0.00000  Uiso   1.00
C199   C     0.67666   0.48182   0.87208   0.00000  Uiso   1.00
C200   C     0.64271   0.52692   0.93349   0.00000  Uiso   1.00
C201   C     0.62185   0.58856   0.88969   0.00000  Uiso   1.00
C202   C     0.67692   0.35791   0.83119   0.00000  Uiso   1.00
C203   C     0.64321   0.29881   0.85823   0.00000  Uiso   1.00
C204   C     0.62256   0.25612   0.78003   0.00000  Uiso   1.00
C205   C     0.77406   0.41542   0.88170   0.00000  Uiso   1.00
C206   C     0.82203   0.40466   0.95120   0.00000  Uiso   1.00
C207   C     0.88318   0.41037   0.91550   0.00000  Uiso   1.00
H208   H     0.73703   0.45336   0.63832   0.00000  Uiso   1.00
H209   H     0.67828   0.57160   0.64802   0.00000  Uiso   1.00
H210   H     0.67878   0.34352   0.57278   0.00000  Uiso   1.00
H211   H     0.85757   0.44935   0.66573   0.00000  Uiso   1.00
H212   H     0.60754   0.69566   0.70355   0.00000  Uiso   1.00
H213   H     0.60861   0.21474   0.54491   0.00000  Uiso   1.00
H214   H     0.98564   0.43790   0.74091   0.00000  Uiso   1.00
H215   H     0.69404   0.39931   0.98344   0.00000  Uiso   1.00
H216   H     0.63293   0.51460   0.01208   0.00000  Uiso   1.00
H217   H     0.63343   0.28652   0.93684   0.00000  Uiso   1.00
H218   H     0.81222   0.39235   0.02979   0.00000  Uiso   1.00
H219   H     0.57073   0.64940   0.99903   0.00000  Uiso   1.00
H220   H     0.57180   0.16847   0.84039   0.00000  Uiso   1.00
H221   H     0.94883   0.39164   0.03639   0.00000  Uiso   1.00
O222   O     0.54969   0.74933   0.86389   0.00000  Uiso   1.00
O223   O     0.55111   0.11837   0.65576   0.00000  Uiso   1.00
O224   O     0.04575   0.41116   0.91291   0.00000  Uiso   1.00
N225   N     0.60728   0.66896   0.76917   0.00000  Uiso   1.00
N226   N     0.60827   0.21933   0.62084   0.00000  Uiso   1.00
N227   N     0.96075   0.42795   0.80408   0.00000  Uiso   1.00
N228   N     0.58747   0.64407   0.92816   0.00000  Uiso   1.00
N229   N     0.58846   0.19444   0.77984   0.00000  Uiso   1.00
N230   N     0.94095   0.40306   0.96308   0.00000  Uiso   1.00
C231   C     0.22719   0.94098   0.21739   0.00000  Uiso   1.00
C232   C     0.18931   0.99773   0.27052   0.00000  Uiso   1.00
C233   C     0.16849   0.05931   0.22662   0.00000  Uiso   1.00
C234   C     0.13452   0.10448   0.28794   0.00000  Uiso   1.00
C235   C     0.07760   0.19501   0.35498   0.00000  Uiso   1.00
C236   C     0.18957   0.87381   0.22964   0.00000  Uiso   1.00
C237   C     0.16898   0.83120   0.15136   0.00000  Uiso   1.00
C238   C     0.13524   0.77206   0.17828   0.00000  Uiso   1.00
C239   C     0.07877   0.67017   0.18185   0.00000  Uiso   1.00
C240   C     0.28671   0.93132   0.28014   0.00000  Uiso   1.00
C241   C     0.34780   0.93704   0.24433   0.00000  Uiso   1.00
C242   C     0.39585   0.92630   0.31376   0.00000  Uiso   1.00
C243   C     0.49021   0.91371   0.39574   0.00000  Uiso   1.00
C244   C     0.20389   0.91170   0.40437   0.00000  Uiso   1.00
C245   C     0.17666   0.98182   0.37208   0.00000  Uiso   1.00
C246   C     0.14271   0.02692   0.43349   0.00000  Uiso   1.00
C247   C     0.12185   0.08856   0.38969   0.00000  Uiso   1.00
C248   C     0.17692   0.85791   0.33119   0.00000  Uiso   1.00
C249   C     0.14321   0.79881   0.35823   0.00000  Uiso   1.00
C250   C     0.12256   0.75612   0.28003   0.00000  Uiso   1.00
C251   C     0.27406   0.91542   0.38170   0.00000  Uiso   1.00
C252   C     0.32203   0.90466   0.45120   0.00000  Uiso   1.00
C253   C     0.38318   0.91037   0.41550   0.00000  Uiso   1.00
H254   H     0.23703   0.95336   0.13832   0.00000  Uiso   1.00
H255   H     0.17828   0.07160   0.14802   0.00000  Uiso   1.00
H256   H     0.17878   0.84352   0.07278   0.00000  Uiso   1.00
H257   H     0.35757   0.94935   0.16573   0.00000  Uiso   1.00
H258   H     0.10754   0.19566   0.20355   0.00000  Uiso   1.00
H259   H     0.10861   0.71474   0.04491   0.00000  Uiso   1.00
H260   H     0.48564   0.93790   0.24091   0.00000  Uiso   1.00
H261   H     0.19404   0.89931   0.48344   0.00000  Uiso   1.00
H262   H     0.13293   0.01460   0.51208   0.00000  Uiso   1.00
H263   H     0.13343   0.78652   0.43684   0.00000  Uiso   1.00
H264   H     0.31222   0.89235   0.52979   0.00000  Uiso   1.00
H265   H     0.07073   0.14940   0.49903   0.00000  Uiso   1.00
H266   H     0.07180   0.66847   0.34039   0.00000  Uiso   1.00
H267   H     0.44883   0.89164   0.53639   0.00000  Uiso   1.00
O268   O     0.04969   0.24933   0.36389   0.00000  Uiso   1.00
O269   O     0.05111   0.61837   0.15576   0.00000  Uiso   1.00
O270   O     0.54575   0.91116   0.41291   0.00000  Uiso   1.00
N271   N     0.10728   0.16896   0.26917   0.00000  Uiso   1.00
N272   N     0.10827   0.71933   0.12084   0.00000  Uiso   1.00
N273   N     0.46075   0.92795   0.30408   0.00000  Uiso   1.00
N274   N     0.08747   0.14407   0.42816   0.00000  Uiso   1.00
N275   N     0.08846   0.69444   0.27984   0.00000  Uiso   1.00
N276   N     0.44095   0.90306   0.46308   0.00000  Uiso   1.00
C277   C     0.27281   0.55902   0.71739   0.00000  Uiso   1.00
C278   C     0.31069   0.50227   0.77052   0.00000  Uiso   1.00
C279   C     0.33151   0.44069   0.72662   0.00000  Uiso   1.00
C280   C     0.36548   0.39552   0.78794   0.00000  Uiso   1.00
C281   C     0.42240   0.30499   0.85498   0.00000  Uiso   1.00
C282   C     0.31043   0.62619   0.72964   0.00000  Uiso   1.00
C283   C     0.33102   0.66880   0.65136   0.00000  Uiso   1.00
C284   C     0.36476   0.72794   0.67828   0.00000  Uiso   1.00
C285   C     0.42123   0.82983   0.68185   0.00000  Uiso   1.00
C286   C     0.21329   0.56868   0.78014   0.00000  Uiso   1.00
C287   C     0.15220   0.56296   0.74433   0.00000  Uiso   1.00
C288   C     0.10415   0.57370   0.81376   0.00000  Uiso   1.00
C289   C     0.00979   0.58629   0.89574   0.00000  Uiso   1.00
C290   C     0.29611   0.58830   0.90437   0.00000  Uiso   1.00
C291   C     0.32334   0.51818   0.87208   0.00000  Uiso   1.00
C292   C     0.35729   0.47308   0.93349   0.00000  Uiso   1.00
C293   C     0.37815   0.41144   0.88969   0.00000  Uiso   1.00
C294   C     0.32308   0.64209   0.83119   0.00000  Uiso   1.00
C295   C     0.35679   0.70119   0.85823   0.00000  Uiso   1.00
C296   C     0.37744   0.74388   0.78003   0.00000  Uiso   1.00
C297   C     0.22594   0.58458   0.88170   0.00000  Uiso   1.00
C298   C     0.17797   0.59534   0.95120   0.00000  Uiso   1.00
C299   C     0.11682   0.58963   0.91550   0.00000  Uiso   1.00
H300   H     0.26297   0.54664   0.63832   0.00000  Uiso   1.00
H301   H     0.32172   0.42840   0.64802   0.00000  Uiso   1.00
H302   H     0.32122   0.65648   0.57278   0.00000  Uiso   1.00
H303   H     0.14243   0.55065   0.66573   0.00000  Uiso   1.00
H304   H     0.39246   0.30434   0.70355   0.00000  Uiso   1.00
H305   H     0.39139   0.78526   0.54491   0.00000  Uiso   1.00
H306   H     0.01436   0.56210   0.74091   0.00000  Uiso   1.00
H307   H     0.30596   0.60069   0.98344   0.00000  Uiso   1.00
H308   H     0.36707   0.48540   0.01208   0.00000  Uiso   1.00
H309   H     0.36657   0.71348   0.93684   0.00000  Uiso   1.00
H310   H     0.18778   0.60765   0.02979   0.00000  Uiso   1.00
H311   H     0.42927   0.35060   0.99903   0.00000  Uiso   1.00
H312   H     0.42820   0.83153   0.84039   0.00000  Uiso   1.00
H313   H     0.05117   0.60836   0.03639   0.00000  Uiso   1.00
O314   O     0.45031   0.25067   0.86389   0.00000  Uiso   1.00
O315   O     0.44889   0.88163   0.65576   0.00000  Uiso   1.00
O316   O     0.95425   0.58884   0.91291   0.00000  Uiso   1.00
N317   N     0.39272   0.33104   0.76917   0.00000  Uiso   1.00
N318   N     0.39173   0.78067   0.62084   0.00000  Uiso   1.00
N319   N     0.03925   0.57205   0.80408   0.00000  Uiso   1.00
N320   N     0.41253   0.35593   0.92816   0.00000  Uiso   1.00
N321   N     0.41154   0.80556   0.77984   0.00000  Uiso   1.00
N322   N     0.05905   0.59694   0.96308   0.00000  Uiso   1.00
C323   C     0.77281   0.05902   0.21739   0.00000  Uiso   1.00
C324   C     0.81069   0.00227   0.27052   0.00000  Uiso   1.00
C325   C     0.83151   0.94069   0.22662   0.00000  Uiso   1.00
C326   C     0.86548   0.89552   0.28794   0.00000  Uiso   1.00
C327   C     0.92240   0.80499   0.35498   0.00000  Uiso   1.00
C328   C     0.81043   0.12619   0.22964   0.00000  Uiso   1.00
C329   C     0.83102   0.16880   0.15136   0.00000  Uiso   1.00
C330   C     0.86476   0.22794   0.17828   0.00000  Uiso   1.00
C331   C     0.92123   0.32983   0.18185   0.00000  Uiso   1.00
C332   C     0.71329   0.06868   0.28014   0.00000  Uiso   1.00
C333   C     0.65220   0.06296   0.24433   0.00000  Uiso   1.00
C334   C     0.60415   0.07370   0.31376   0.00000  Uiso   1.00
C335   C     0.50979   0.08629   0.39574   0.00000  Uiso   1.00
C336   C     0.79611   0.08830   0.40437   0.00000  Uiso   1.00
C337   C     0.82334   0.01818   0.37208   0.00000  Uiso   1.00
C338   C     0.85729   0.97308   0.43349   0.00000  Uiso   1.00
C339   C     0.87815   0.91144   0.38969   0.00000  Uiso   1.00
C340   C     0.82308   0.14209   0.33119   0.00000  Uiso   1.00
C341   C     0.85679   0.20119   0.35823   0.00000  Uiso   1.00
C342   C     0.87744   0.24388   0.28003   0.00000  Uiso   1.00
C343   C     0.72594   0.08458   0.38170   0.00000  Uiso   1.00
C344   C     0.67797   0.09534   0.45120   0.00000  Uiso   1.00
C345   C     0.61682   0.08963   0.41550   0.00000  Uiso   1.00
H346   H     0.76297   0.04664   0.13832   0.00000  Uiso   1.00
H347   H     0.82172   0.92840   0.14802   0.00000  Uiso   1.00
H348   H     0.82122   0.15648   0.07278   0.00000  Uiso   1.00
H349   H     0.64243   0.05065   0.16573   0.00000  Uiso   1.00
H350   H     0.89246   0.80434   0.20355   0.00000  Uiso   1.00
H351   H     0.89139   0.28526   0.04491   0.00000  Uiso   1.00
H352   H     0.51436   0.06210   0.24091   0.00000  Uiso   1.00
H353   H     0.80596   0.10069   0.48344   0.00000  Uiso   1.00
H354   H     0.86707   0.98540   0.51208   0.00000  Uiso   1.00
H355   H     0.86657   0.21348   0.43684   0.00000  Uiso   1.00
H356   H     0.68778   0.10765   0.52979   0.00000  Uiso   1.00
H357   H     0.92927   0.85060   0.49903   0.00000  Uiso   1.00
H358   H     0.92820   0.33153   0.34039   0.00000  Uiso   1.00
H359   H     0.55117   0.10836   0.53639   0.00000  Uiso   1.00
O360   O     0.95031   0.75067   0.36389   0.00000  Uiso   1.00
O361   O     0.94889   0.38163   0.15576   0.00000  Uiso   1.00
O362   O     0.45425   0.08884   0.41291   0.00000  Uiso   1.00
N363   N     0.89272   0.83104   0.26917   0.00000  Uiso   1.00
N364   N     0.89173   0.28067   0.12084   0.00000  Uiso   1.00
N365   N     0.53925   0.07205   0.30408   0.00000  Uiso   1.00
N366   N     0.91253   0.85593   0.42816   0.00000  Uiso   1.00
N367   N     0.91154   0.30556   0.27984   0.00000  Uiso   1.00
N368   N     0.55905   0.09694   0.46308   0.00000  Uiso   1.00
