data_job_02954
_audit_creation_date              2018-12-19
_audit_creation_method            'Materials Studio'
_symmetry_space_group_name_H-M    'P1'
_symmetry_Int_Tables_number       1
_symmetry_cell_setting            triclinic
loop_
_symmetry_equiv_pos_as_xyz
  x,y,z
_cell_length_a                    22.3537
_cell_length_b                    17.6926
_cell_length_c                    15.9029
_cell_angle_alpha                 90.0000
_cell_angle_beta                  147.0148
_cell_angle_gamma                 90.0000
loop_
_atom_site_label
_atom_site_type_symbol
_atom_site_fract_x
_atom_site_fract_y
_atom_site_fract_z
_atom_site_U_iso_or_equiv
_atom_site_adp_type
_atom_site_occupancy
C1     C     0.29021   0.20884   0.09789   0.00000  Uiso   1.00
C2     C     0.22625   0.26814   0.07194   0.00000  Uiso   1.00
C3     C     0.12430   0.29734   0.93000   0.00000  Uiso   1.00
C4     C     0.07948   0.35114   0.93068   0.00000  Uiso   1.00
C5     C     0.97178   0.43963   0.86944   0.00000  Uiso   1.00
C6     C     0.40185   0.24405   0.21047   0.00000  Uiso   1.00
C7     C     0.44754   0.25299   0.18501   0.00000  Uiso   1.00
C8     C     0.55055   0.28651   0.30231   0.00000  Uiso   1.00
C9     C     0.71550   0.33756   0.45619   0.00000  Uiso   1.00
C10    C     0.31225   0.14423   0.18506   0.00000  Uiso   1.00
C11    C     0.28265   0.06924   0.13825   0.00000  Uiso   1.00
C12    C     0.31026   0.01871   0.23418   0.00000  Uiso   1.00
C13    C     0.33611   0.91478   0.34860   0.00000  Uiso   1.00
C14    C     0.39193   0.25245   0.35151   0.00000  Uiso   1.00
C15    C     0.28150   0.29182   0.20970   0.00000  Uiso   1.00
C16    C     0.23683   0.34559   0.21059   0.00000  Uiso   1.00
C17    C     0.13483   0.37487   0.06867   0.00000  Uiso   1.00
C18    C     0.45709   0.26774   0.34822   0.00000  Uiso   1.00
C19    C     0.56007   0.30125   0.46560   0.00000  Uiso   1.00
C20    C     0.60590   0.31024   0.44032   0.00000  Uiso   1.00
C21    C     0.36750   0.16792   0.32281   0.00000  Uiso   1.00
C22    C     0.39517   0.11750   0.41884   0.00000  Uiso   1.00
C23    C     0.36561   0.04244   0.37218   0.00000  Uiso   1.00
H24    H     0.24721   0.19040   0.99065   0.00000  Uiso   1.00
H25    H     0.08157   0.27900   0.82342   0.00000  Uiso   1.00
H26    H     0.40477   0.23465   0.07840   0.00000  Uiso   1.00
H27    H     0.23989   0.05093   0.03164   0.00000  Uiso   1.00
H28    H     0.92232   0.38769   0.69877   0.00000  Uiso   1.00
H29    H     0.60381   0.29416   0.23643   0.00000  Uiso   1.00
H30    H     0.25614   0.90675   0.13783   0.00000  Uiso   1.00
H31    H     0.43494   0.27090   0.45876   0.00000  Uiso   1.00
H32    H     0.27960   0.36391   0.31722   0.00000  Uiso   1.00
H33    H     0.60280   0.31957   0.57219   0.00000  Uiso   1.00
H34    H     0.43793   0.13585   0.52544   0.00000  Uiso   1.00
H35    H     0.08305   0.45661   0.09955   0.00000  Uiso   1.00
H36    H     0.76454   0.36308   0.63721   0.00000  Uiso   1.00
H37    H     0.41687   0.97567   0.53862   0.00000  Uiso   1.00
O38    O     0.89712   0.48190   0.79761   0.00000  Uiso   1.00
O39    O     0.79122   0.35918   0.50300   0.00000  Uiso   1.00
O40    O     0.33509   0.85091   0.37364   0.00000  Uiso   1.00
N41    N     0.98145   0.39113   0.81252   0.00000  Uiso   1.00
N42    N     0.61860   0.30370   0.31518   0.00000  Uiso   1.00
N43    N     0.29359   0.94150   0.22303   0.00000  Uiso   1.00
N44    N     0.06794   0.42822   0.02817   0.00000  Uiso   1.00
N45    N     0.70509   0.34079   0.53084   0.00000  Uiso   1.00
N46    N     0.38008   0.97858   0.43869   0.00000  Uiso   1.00
C47    C     0.70979   0.70884   0.40211   0.00000  Uiso   1.00
C48    C     0.77375   0.76814   0.42806   0.00000  Uiso   1.00
C49    C     0.87570   0.79734   0.57000   0.00000  Uiso   1.00
C50    C     0.92052   0.85114   0.56932   0.00000  Uiso   1.00
C51    C     0.02822   0.93963   0.63056   0.00000  Uiso   1.00
C52    C     0.59815   0.74405   0.28953   0.00000  Uiso   1.00
C53    C     0.55246   0.75299   0.31499   0.00000  Uiso   1.00
C54    C     0.44945   0.78651   0.19769   0.00000  Uiso   1.00
C55    C     0.28450   0.83756   0.04381   0.00000  Uiso   1.00
C56    C     0.68775   0.64423   0.31494   0.00000  Uiso   1.00
C57    C     0.71735   0.56924   0.36175   0.00000  Uiso   1.00
C58    C     0.68974   0.51871   0.26582   0.00000  Uiso   1.00
C59    C     0.66389   0.41478   0.15140   0.00000  Uiso   1.00
C60    C     0.60807   0.75245   0.14849   0.00000  Uiso   1.00
C61    C     0.71850   0.79182   0.29030   0.00000  Uiso   1.00
C62    C     0.76317   0.84559   0.28941   0.00000  Uiso   1.00
C63    C     0.86517   0.87487   0.43133   0.00000  Uiso   1.00
C64    C     0.54291   0.76774   0.15178   0.00000  Uiso   1.00
C65    C     0.43993   0.80125   0.03440   0.00000  Uiso   1.00
C66    C     0.39410   0.81024   0.05968   0.00000  Uiso   1.00
C67    C     0.63250   0.66792   0.17719   0.00000  Uiso   1.00
C68    C     0.60483   0.61750   0.08116   0.00000  Uiso   1.00
C69    C     0.63439   0.54244   0.12782   0.00000  Uiso   1.00
H70    H     0.75279   0.69040   0.50935   0.00000  Uiso   1.00
H71    H     0.91843   0.77900   0.67658   0.00000  Uiso   1.00
H72    H     0.59523   0.73465   0.42160   0.00000  Uiso   1.00
H73    H     0.76011   0.55093   0.46836   0.00000  Uiso   1.00
H74    H     0.07768   0.88769   0.80123   0.00000  Uiso   1.00
H75    H     0.39619   0.79416   0.26357   0.00000  Uiso   1.00
H76    H     0.74386   0.40675   0.36217   0.00000  Uiso   1.00
H77    H     0.56506   0.77090   0.04124   0.00000  Uiso   1.00
H78    H     0.72040   0.86391   0.18278   0.00000  Uiso   1.00
H79    H     0.39720   0.81957   0.92781   0.00000  Uiso   1.00
H80    H     0.56207   0.63585   0.97456   0.00000  Uiso   1.00
H81    H     0.91695   0.95661   0.40045   0.00000  Uiso   1.00
H82    H     0.23546   0.86308   0.86279   0.00000  Uiso   1.00
H83    H     0.58313   0.47567   0.96138   0.00000  Uiso   1.00
O84    O     0.10288   0.98190   0.70239   0.00000  Uiso   1.00
O85    O     0.20878   0.85918   0.99700   0.00000  Uiso   1.00
O86    O     0.66491   0.35091   0.12636   0.00000  Uiso   1.00
N87    N     0.01855   0.89113   0.68748   0.00000  Uiso   1.00
N88    N     0.38140   0.80370   0.18482   0.00000  Uiso   1.00
N89    N     0.70641   0.44150   0.27697   0.00000  Uiso   1.00
N90    N     0.93206   0.92822   0.47183   0.00000  Uiso   1.00
N91    N     0.29491   0.84079   0.96916   0.00000  Uiso   1.00
N92    N     0.61992   0.47858   0.06131   0.00000  Uiso   1.00
C93    C     0.70979   0.79116   0.90211   0.00000  Uiso   1.00
C94    C     0.77375   0.73186   0.92806   0.00000  Uiso   1.00
C95    C     0.87570   0.70266   0.07000   0.00000  Uiso   1.00
C96    C     0.92052   0.64886   0.06932   0.00000  Uiso   1.00
C97    C     0.02822   0.56037   0.13056   0.00000  Uiso   1.00
C98    C     0.59815   0.75595   0.78953   0.00000  Uiso   1.00
C99    C     0.55246   0.74701   0.81499   0.00000  Uiso   1.00
C100   C     0.44945   0.71349   0.69769   0.00000  Uiso   1.00
C101   C     0.28450   0.66244   0.54381   0.00000  Uiso   1.00
C102   C     0.68775   0.85577   0.81494   0.00000  Uiso   1.00
C103   C     0.71735   0.93076   0.86175   0.00000  Uiso   1.00
C104   C     0.68974   0.98129   0.76582   0.00000  Uiso   1.00
C105   C     0.66389   0.08522   0.65140   0.00000  Uiso   1.00
C106   C     0.60807   0.74755   0.64849   0.00000  Uiso   1.00
C107   C     0.71850   0.70818   0.79030   0.00000  Uiso   1.00
C108   C     0.76317   0.65441   0.78941   0.00000  Uiso   1.00
C109   C     0.86517   0.62513   0.93133   0.00000  Uiso   1.00
C110   C     0.54291   0.73226   0.65178   0.00000  Uiso   1.00
C111   C     0.43993   0.69875   0.53440   0.00000  Uiso   1.00
C112   C     0.39410   0.68976   0.55968   0.00000  Uiso   1.00
C113   C     0.63250   0.83208   0.67719   0.00000  Uiso   1.00
C114   C     0.60483   0.88250   0.58116   0.00000  Uiso   1.00
C115   C     0.63439   0.95756   0.62782   0.00000  Uiso   1.00
H116   H     0.75279   0.80960   0.00935   0.00000  Uiso   1.00
H117   H     0.91843   0.72100   0.17658   0.00000  Uiso   1.00
H118   H     0.59523   0.76535   0.92160   0.00000  Uiso   1.00
H119   H     0.76011   0.94907   0.96836   0.00000  Uiso   1.00
H120   H     0.07768   0.61231   0.30123   0.00000  Uiso   1.00
H121   H     0.39619   0.70584   0.76357   0.00000  Uiso   1.00
H122   H     0.74386   0.09325   0.86217   0.00000  Uiso   1.00
H123   H     0.56506   0.72910   0.54124   0.00000  Uiso   1.00
H124   H     0.72040   0.63609   0.68278   0.00000  Uiso   1.00
H125   H     0.39720   0.68043   0.42781   0.00000  Uiso   1.00
H126   H     0.56207   0.86415   0.47456   0.00000  Uiso   1.00
H127   H     0.91695   0.54339   0.90045   0.00000  Uiso   1.00
H128   H     0.23546   0.63692   0.36279   0.00000  Uiso   1.00
H129   H     0.58313   0.02433   0.46138   0.00000  Uiso   1.00
O130   O     0.10288   0.51810   0.20239   0.00000  Uiso   1.00
O131   O     0.20878   0.64082   0.49700   0.00000  Uiso   1.00
O132   O     0.66491   0.14909   0.62636   0.00000  Uiso   1.00
N133   N     0.01855   0.60887   0.18748   0.00000  Uiso   1.00
N134   N     0.38140   0.69630   0.68482   0.00000  Uiso   1.00
N135   N     0.70641   0.05850   0.77697   0.00000  Uiso   1.00
N136   N     0.93206   0.57178   0.97183   0.00000  Uiso   1.00
N137   N     0.29491   0.65921   0.46916   0.00000  Uiso   1.00
N138   N     0.61992   0.02142   0.56131   0.00000  Uiso   1.00
C139   C     0.29021   0.29116   0.59789   0.00000  Uiso   1.00
C140   C     0.22625   0.23186   0.57194   0.00000  Uiso   1.00
C141   C     0.12430   0.20266   0.43000   0.00000  Uiso   1.00
C142   C     0.07948   0.14886   0.43068   0.00000  Uiso   1.00
C143   C     0.97178   0.06037   0.36944   0.00000  Uiso   1.00
C144   C     0.40185   0.25595   0.71047   0.00000  Uiso   1.00
C145   C     0.44754   0.24701   0.68501   0.00000  Uiso   1.00
C146   C     0.55055   0.21349   0.80231   0.00000  Uiso   1.00
C147   C     0.71550   0.16244   0.95619   0.00000  Uiso   1.00
C148   C     0.31225   0.35577   0.68506   0.00000  Uiso   1.00
C149   C     0.28265   0.43076   0.63825   0.00000  Uiso   1.00
C150   C     0.31026   0.48129   0.73418   0.00000  Uiso   1.00
C151   C     0.33611   0.58522   0.84860   0.00000  Uiso   1.00
C152   C     0.39193   0.24755   0.85151   0.00000  Uiso   1.00
C153   C     0.28150   0.20818   0.70970   0.00000  Uiso   1.00
C154   C     0.23683   0.15441   0.71059   0.00000  Uiso   1.00
C155   C     0.13483   0.12513   0.56867   0.00000  Uiso   1.00
C156   C     0.45709   0.23226   0.84822   0.00000  Uiso   1.00
C157   C     0.56007   0.19875   0.96560   0.00000  Uiso   1.00
C158   C     0.60590   0.18976   0.94032   0.00000  Uiso   1.00
C159   C     0.36750   0.33208   0.82281   0.00000  Uiso   1.00
C160   C     0.39517   0.38250   0.91884   0.00000  Uiso   1.00
C161   C     0.36561   0.45756   0.87218   0.00000  Uiso   1.00
H162   H     0.24721   0.30960   0.49065   0.00000  Uiso   1.00
H163   H     0.08157   0.22100   0.32342   0.00000  Uiso   1.00
H164   H     0.40477   0.26535   0.57840   0.00000  Uiso   1.00
H165   H     0.23989   0.44907   0.53164   0.00000  Uiso   1.00
H166   H     0.92232   0.11231   0.19877   0.00000  Uiso   1.00
H167   H     0.60381   0.20584   0.73643   0.00000  Uiso   1.00
H168   H     0.25614   0.59325   0.63783   0.00000  Uiso   1.00
H169   H     0.43494   0.22910   0.95876   0.00000  Uiso   1.00
H170   H     0.27960   0.13609   0.81722   0.00000  Uiso   1.00
H171   H     0.60280   0.18043   0.07219   0.00000  Uiso   1.00
H172   H     0.43793   0.36415   0.02544   0.00000  Uiso   1.00
H173   H     0.08305   0.04339   0.59955   0.00000  Uiso   1.00
H174   H     0.76454   0.13692   0.13721   0.00000  Uiso   1.00
H175   H     0.41687   0.52433   0.03862   0.00000  Uiso   1.00
O176   O     0.89712   0.01810   0.29761   0.00000  Uiso   1.00
O177   O     0.79122   0.14082   0.00300   0.00000  Uiso   1.00
O178   O     0.33509   0.64909   0.87364   0.00000  Uiso   1.00
N179   N     0.98145   0.10887   0.31252   0.00000  Uiso   1.00
N180   N     0.61860   0.19630   0.81518   0.00000  Uiso   1.00
N181   N     0.29359   0.55850   0.72303   0.00000  Uiso   1.00
N182   N     0.06794   0.07178   0.52817   0.00000  Uiso   1.00
N183   N     0.70509   0.15921   0.03084   0.00000  Uiso   1.00
N184   N     0.38008   0.52142   0.93869   0.00000  Uiso   1.00
