data_job_05933
_audit_creation_date              2018-12-19
_audit_creation_method            'Materials Studio'
_symmetry_space_group_name_H-M    'P1'
_symmetry_Int_Tables_number       1
_symmetry_cell_setting            triclinic
loop_
_symmetry_equiv_pos_as_xyz
  x,y,z
_cell_length_a                    7.8122
_cell_length_b                    24.0702
_cell_length_c                    24.7550
_cell_angle_alpha                 118.5980
_cell_angle_beta                  81.2192
_cell_angle_gamma                 89.7966
loop_
_atom_site_label
_atom_site_type_symbol
_atom_site_fract_x
_atom_site_fract_y
_atom_site_fract_z
_atom_site_U_iso_or_equiv
_atom_site_adp_type
_atom_site_occupancy
C1     C     0.24778   0.35134   0.18699   0.00000  Uiso   1.00
C2     C     0.16843   0.36907   0.14412   0.00000  Uiso   1.00
C3     C     0.25963   0.38497   0.10150   0.00000  Uiso   1.00
C4     C     0.16322   0.39972   0.06665   0.00000  Uiso   1.00
C5     C     0.06755   0.42745   0.99895   0.00000  Uiso   1.00
C6     C     0.15670   0.39744   0.25329   0.00000  Uiso   1.00
C7     C     0.23805   0.43718   0.30246   0.00000  Uiso   1.00
C8     C     0.13176   0.47581   0.35951   0.00000  Uiso   1.00
C9     C     0.01789   0.54755   0.46131   0.00000  Uiso   1.00
C10    C     0.18972   0.28610   0.17309   0.00000  Uiso   1.00
C11    C     0.29883   0.23223   0.15485   0.00000  Uiso   1.00
C12    C     0.22034   0.17712   0.14440   0.00000  Uiso   1.00
C13    C     0.15775   0.07600   0.12168   0.00000  Uiso   1.00
C14    C     0.91437   0.34928   0.20088   0.00000  Uiso   1.00
C15    C     0.98733   0.36795   0.15167   0.00000  Uiso   1.00
C16    C     0.89075   0.38268   0.11687   0.00000  Uiso   1.00
C17    C     0.98180   0.39860   0.07420   0.00000  Uiso   1.00
C18    C     0.97561   0.39632   0.26084   0.00000  Uiso   1.00
C19    C     0.86918   0.43490   0.31782   0.00000  Uiso   1.00
C20    C     0.95034   0.47469   0.36706   0.00000  Uiso   1.00
C21    C     0.00863   0.28498   0.18064   0.00000  Uiso   1.00
C22    C     0.92995   0.22995   0.17021   0.00000  Uiso   1.00
C23    C     0.03892   0.17600   0.15195   0.00000  Uiso   1.00
H24    H     0.38876   0.35222   0.18113   0.00000  Uiso   1.00
H25    H     0.39978   0.38583   0.09568   0.00000  Uiso   1.00
H26    H     0.37820   0.43803   0.29661   0.00000  Uiso   1.00
H27    H     0.43896   0.23312   0.14902   0.00000  Uiso   1.00
H28    H     0.33212   0.42263   0.00430   0.00000  Uiso   1.00
H29    H     0.28662   0.53268   0.42796   0.00000  Uiso   1.00
H30    H     0.41477   0.10057   0.11675   0.00000  Uiso   1.00
H31    H     0.77337   0.34841   0.20676   0.00000  Uiso   1.00
H32    H     0.75061   0.38181   0.12271   0.00000  Uiso   1.00
H33    H     0.72904   0.43402   0.32364   0.00000  Uiso   1.00
H34    H     0.78981   0.22910   0.17605   0.00000  Uiso   1.00
H35    H     0.80523   0.41937   0.02624   0.00000  Uiso   1.00
H36    H     0.75974   0.52942   0.44991   0.00000  Uiso   1.00
H37    H     0.88788   0.09732   0.13869   0.00000  Uiso   1.00
O38    O     0.06480   0.44307   0.95953   0.00000  Uiso   1.00
O39    O     0.00512   0.58744   0.51537   0.00000  Uiso   1.00
O40    O     0.17325   0.02053   0.10706   0.00000  Uiso   1.00
N41    N     0.21124   0.41727   0.02098   0.00000  Uiso   1.00
N42    N     0.16870   0.52016   0.41709   0.00000  Uiso   1.00
N43    N     0.28851   0.11618   0.12614   0.00000  Uiso   1.00
N44    N     0.92773   0.41551   0.03279   0.00000  Uiso   1.00
N45    N     0.88519   0.51841   0.42889   0.00000  Uiso   1.00
N46    N     0.00500   0.11443   0.13795   0.00000  Uiso   1.00
C47    C     0.44198   0.81813   0.16032   0.00000  Uiso   1.00
C48    C     0.31726   0.85876   0.22152   0.00000  Uiso   1.00
C49    C     0.36410   0.90310   0.27730   0.00000  Uiso   1.00
C50    C     0.23067   0.93540   0.32802   0.00000  Uiso   1.00
C51    C     0.06348   0.00025   0.42382   0.00000  Uiso   1.00
C52    C     0.40881   0.74934   0.14139   0.00000  Uiso   1.00
C53    C     0.53264   0.70168   0.12978   0.00000  Uiso   1.00
C54    C     0.47627   0.64186   0.11304   0.00000  Uiso   1.00
C55    C     0.45125   0.53682   0.08438   0.00000  Uiso   1.00
C56    C     0.38039   0.83155   0.11180   0.00000  Uiso   1.00
C57    C     0.48033   0.85299   0.07530   0.00000  Uiso   1.00
C58    C     0.40004   0.86236   0.03362   0.00000  Uiso   1.00
C59    C     0.33089   0.88495   0.95902   0.00000  Uiso   1.00
C60    C     0.12171   0.79663   0.15120   0.00000  Uiso   1.00
C61    C     0.14330   0.84709   0.21657   0.00000  Uiso   1.00
C62    C     0.00975   0.87932   0.26721   0.00000  Uiso   1.00
C63    C     0.05639   0.92370   0.32306   0.00000  Uiso   1.00
C64    C     0.23486   0.73766   0.13643   0.00000  Uiso   1.00
C65    C     0.17829   0.67790   0.11969   0.00000  Uiso   1.00
C66    C     0.30200   0.63016   0.10807   0.00000  Uiso   1.00
C67    C     0.20643   0.81987   0.10684   0.00000  Uiso   1.00
C68    C     0.12598   0.82921   0.06521   0.00000  Uiso   1.00
C69    C     0.22577   0.85066   0.02866   0.00000  Uiso   1.00
H70    H     0.57742   0.82721   0.16417   0.00000  Uiso   1.00
H71    H     0.49875   0.91212   0.28112   0.00000  Uiso   1.00
H72    H     0.66726   0.71073   0.13361   0.00000  Uiso   1.00
H73    H     0.61495   0.86201   0.07914   0.00000  Uiso   1.00
H74    H     0.33481   0.00109   0.40860   0.00000  Uiso   1.00
H75    H     0.69014   0.57644   0.09756   0.00000  Uiso   1.00
H76    H     0.57984   0.89545   0.98269   0.00000  Uiso   1.00
H77    H     0.98626   0.78754   0.14734   0.00000  Uiso   1.00
H78    H     0.87514   0.87028   0.26337   0.00000  Uiso   1.00
H79    H     0.04366   0.66888   0.11586   0.00000  Uiso   1.00
H80    H     0.99135   0.82017   0.06139   0.00000  Uiso   1.00
H81    H     0.82867   0.96713   0.39419   0.00000  Uiso   1.00
H82    H     0.18401   0.54247   0.08315   0.00000  Uiso   1.00
H83    H     0.07371   0.86149   0.96828   0.00000  Uiso   1.00
O84    O     0.01932   0.03923   0.47803   0.00000  Uiso   1.00
O85    O     0.48550   0.48211   0.06994   0.00000  Uiso   1.00
O86    O     0.34079   0.90065   0.91925   0.00000  Uiso   1.00
N87    N     0.23094   0.98175   0.38928   0.00000  Uiso   1.00
N88    N     0.56314   0.58473   0.09849   0.00000  Uiso   1.00
N89    N     0.46004   0.88297   0.99108   0.00000  Uiso   1.00
N90    N     0.95859   0.96348   0.38153   0.00000  Uiso   1.00
N91    N     0.29079   0.56646   0.09073   0.00000  Uiso   1.00
N92    N     0.18769   0.86469   0.98333   0.00000  Uiso   1.00
C93    C     0.58928   0.84185   0.65308   0.00000  Uiso   1.00
C94    C     0.51822   0.77743   0.63454   0.00000  Uiso   1.00
C95    C     0.61324   0.72232   0.62156   0.00000  Uiso   1.00
C96    C     0.52441   0.66827   0.60545   0.00000  Uiso   1.00
C97    C     0.44108   0.56807   0.57708   0.00000  Uiso   1.00
C98    C     0.54824   0.86090   0.60559   0.00000  Uiso   1.00
C99    C     0.66851   0.87598   0.56828   0.00000  Uiso   1.00
C100   C     0.60494   0.89220   0.52780   0.00000  Uiso   1.00
C101   C     0.56820   0.92164   0.45453   0.00000  Uiso   1.00
C102   C     0.47748   0.88858   0.71533   0.00000  Uiso   1.00
C103   C     0.53824   0.92695   0.77028   0.00000  Uiso   1.00
C104   C     0.41509   0.96648   0.82219   0.00000  Uiso   1.00
C105   C     0.26849   0.03889   0.91929   0.00000  Uiso   1.00
C106   C     0.26253   0.84385   0.64756   0.00000  Uiso   1.00
C107   C     0.34074   0.77852   0.63154   0.00000  Uiso   1.00
C108   C     0.25173   0.72453   0.61545   0.00000  Uiso   1.00
C109   C     0.34661   0.66936   0.60244   0.00000  Uiso   1.00
C110   C     0.37077   0.86199   0.60259   0.00000  Uiso   1.00
C111   C     0.30700   0.87819   0.56217   0.00000  Uiso   1.00
C112   C     0.42714   0.89329   0.52480   0.00000  Uiso   1.00
C113   C     0.30000   0.88967   0.71233   0.00000  Uiso   1.00
C114   C     0.17673   0.92915   0.76417   0.00000  Uiso   1.00
C115   C     0.23730   0.96757   0.81918   0.00000  Uiso   1.00
H116   H     0.72745   0.84101   0.65542   0.00000  Uiso   1.00
H117   H     0.75059   0.72150   0.62388   0.00000  Uiso   1.00
H118   H     0.80584   0.87514   0.57061   0.00000  Uiso   1.00
H119   H     0.67559   0.92609   0.77258   0.00000  Uiso   1.00
H120   H     0.69799   0.58948   0.58757   0.00000  Uiso   1.00
H121   H     0.81448   0.91346   0.47527   0.00000  Uiso   1.00
H122   H     0.53983   0.02091   0.90116   0.00000  Uiso   1.00
H123   H     0.12436   0.84469   0.64523   0.00000  Uiso   1.00
H124   H     0.11439   0.72539   0.61313   0.00000  Uiso   1.00
H125   H     0.16965   0.87903   0.55986   0.00000  Uiso   1.00
H126   H     0.03940   0.92998   0.76183   0.00000  Uiso   1.00
H127   H     0.18163   0.59264   0.57884   0.00000  Uiso   1.00
H128   H     0.29812   0.91662   0.46654   0.00000  Uiso   1.00
H129   H     0.02347   0.02406   0.89243   0.00000  Uiso   1.00
O130   O     0.44415   0.51251   0.56226   0.00000  Uiso   1.00
O131   O     0.59698   0.93756   0.41493   0.00000  Uiso   1.00
O132   O     0.23665   0.07853   0.97368   0.00000  Uiso   1.00
N133   N     0.57782   0.60660   0.58993   0.00000  Uiso   1.00
N134   N     0.68674   0.90949   0.48493   0.00000  Uiso   1.00
N135   N     0.42997   0.00996   0.88309   0.00000  Uiso   1.00
N136   N     0.29997   0.60830   0.58524   0.00000  Uiso   1.00
N137   N     0.40889   0.91119   0.48024   0.00000  Uiso   1.00
N138   N     0.15212   0.01165   0.87840   0.00000  Uiso   1.00
C139   C     0.75222   0.64866   0.81301   0.00000  Uiso   1.00
C140   C     0.83157   0.63093   0.85588   0.00000  Uiso   1.00
C141   C     0.74037   0.61503   0.89850   0.00000  Uiso   1.00
C142   C     0.83678   0.60028   0.93335   0.00000  Uiso   1.00
C143   C     0.93245   0.57255   0.00105   0.00000  Uiso   1.00
C144   C     0.84330   0.60256   0.74671   0.00000  Uiso   1.00
C145   C     0.76195   0.56282   0.69754   0.00000  Uiso   1.00
C146   C     0.86824   0.52419   0.64049   0.00000  Uiso   1.00
C147   C     0.98211   0.45245   0.53869   0.00000  Uiso   1.00
C148   C     0.81028   0.71390   0.82691   0.00000  Uiso   1.00
C149   C     0.70117   0.76777   0.84515   0.00000  Uiso   1.00
C150   C     0.77966   0.82288   0.85560   0.00000  Uiso   1.00
C151   C     0.84225   0.92400   0.87832   0.00000  Uiso   1.00
C152   C     0.08563   0.65072   0.79912   0.00000  Uiso   1.00
C153   C     0.01267   0.63205   0.84833   0.00000  Uiso   1.00
C154   C     0.10925   0.61732   0.88313   0.00000  Uiso   1.00
C155   C     0.01820   0.60140   0.92580   0.00000  Uiso   1.00
C156   C     0.02439   0.60368   0.73916   0.00000  Uiso   1.00
C157   C     0.13083   0.56510   0.68218   0.00000  Uiso   1.00
C158   C     0.04966   0.52531   0.63294   0.00000  Uiso   1.00
C159   C     0.99137   0.71502   0.81936   0.00000  Uiso   1.00
C160   C     0.07005   0.77005   0.82979   0.00000  Uiso   1.00
C161   C     0.96108   0.82400   0.84805   0.00000  Uiso   1.00
H162   H     0.61124   0.64778   0.81887   0.00000  Uiso   1.00
H163   H     0.60022   0.61417   0.90432   0.00000  Uiso   1.00
H164   H     0.62180   0.56197   0.70339   0.00000  Uiso   1.00
H165   H     0.56104   0.76688   0.85098   0.00000  Uiso   1.00
H166   H     0.66788   0.57737   0.99571   0.00000  Uiso   1.00
H167   H     0.71338   0.46732   0.57204   0.00000  Uiso   1.00
H168   H     0.58523   0.89943   0.88325   0.00000  Uiso   1.00
H169   H     0.22663   0.65159   0.79324   0.00000  Uiso   1.00
H170   H     0.24939   0.61819   0.87729   0.00000  Uiso   1.00
H171   H     0.27096   0.56598   0.67636   0.00000  Uiso   1.00
H172   H     0.21019   0.77090   0.82395   0.00000  Uiso   1.00
H173   H     0.19477   0.58063   0.97376   0.00000  Uiso   1.00
H174   H     0.24026   0.47058   0.55009   0.00000  Uiso   1.00
H175   H     0.11212   0.90268   0.86131   0.00000  Uiso   1.00
O176   O     0.93520   0.55693   0.04047   0.00000  Uiso   1.00
O177   O     0.99488   0.41256   0.48463   0.00000  Uiso   1.00
O178   O     0.82675   0.97947   0.89294   0.00000  Uiso   1.00
N179   N     0.78876   0.58273   0.97902   0.00000  Uiso   1.00
N180   N     0.83130   0.47983   0.58291   0.00000  Uiso   1.00
N181   N     0.71149   0.88382   0.87386   0.00000  Uiso   1.00
N182   N     0.07227   0.58449   0.96721   0.00000  Uiso   1.00
N183   N     0.11481   0.48159   0.57111   0.00000  Uiso   1.00
N184   N     0.99500   0.88557   0.86205   0.00000  Uiso   1.00
C185   C     0.55802   0.18187   0.83968   0.00000  Uiso   1.00
C186   C     0.68274   0.14124   0.77848   0.00000  Uiso   1.00
C187   C     0.63590   0.09690   0.72270   0.00000  Uiso   1.00
C188   C     0.76933   0.06460   0.67198   0.00000  Uiso   1.00
C189   C     0.93652   0.99975   0.57618   0.00000  Uiso   1.00
C190   C     0.59119   0.25066   0.85861   0.00000  Uiso   1.00
C191   C     0.46736   0.29832   0.87022   0.00000  Uiso   1.00
C192   C     0.52373   0.35814   0.88696   0.00000  Uiso   1.00
C193   C     0.54876   0.46318   0.91562   0.00000  Uiso   1.00
C194   C     0.61961   0.16845   0.88820   0.00000  Uiso   1.00
C195   C     0.51967   0.14701   0.92470   0.00000  Uiso   1.00
C196   C     0.59996   0.13764   0.96638   0.00000  Uiso   1.00
C197   C     0.66911   0.11505   0.04098   0.00000  Uiso   1.00
C198   C     0.87830   0.20337   0.84880   0.00000  Uiso   1.00
C199   C     0.85670   0.15291   0.78343   0.00000  Uiso   1.00
C200   C     0.99025   0.12068   0.73279   0.00000  Uiso   1.00
C201   C     0.94361   0.07630   0.67694   0.00000  Uiso   1.00
C202   C     0.76514   0.26234   0.86357   0.00000  Uiso   1.00
C203   C     0.82171   0.32210   0.88031   0.00000  Uiso   1.00
C204   C     0.69800   0.36984   0.89193   0.00000  Uiso   1.00
C205   C     0.79357   0.18013   0.89316   0.00000  Uiso   1.00
C206   C     0.87402   0.17079   0.93479   0.00000  Uiso   1.00
C207   C     0.77423   0.14934   0.97134   0.00000  Uiso   1.00
H208   H     0.42258   0.17279   0.83583   0.00000  Uiso   1.00
H209   H     0.50125   0.08788   0.71888   0.00000  Uiso   1.00
H210   H     0.33274   0.28927   0.86639   0.00000  Uiso   1.00
H211   H     0.38505   0.13799   0.92086   0.00000  Uiso   1.00
H212   H     0.66519   0.99891   0.59140   0.00000  Uiso   1.00
H213   H     0.30986   0.42356   0.90244   0.00000  Uiso   1.00
H214   H     0.42016   0.10455   0.01731   0.00000  Uiso   1.00
H215   H     0.01374   0.21246   0.85266   0.00000  Uiso   1.00
H216   H     0.12486   0.12972   0.73663   0.00000  Uiso   1.00
H217   H     0.95634   0.33112   0.88414   0.00000  Uiso   1.00
H218   H     0.00865   0.17983   0.93861   0.00000  Uiso   1.00
H219   H     0.17133   0.03287   0.60581   0.00000  Uiso   1.00
H220   H     0.81599   0.45753   0.91685   0.00000  Uiso   1.00
H221   H     0.92630   0.13851   0.03172   0.00000  Uiso   1.00
O222   O     0.98068   0.96077   0.52197   0.00000  Uiso   1.00
O223   O     0.51450   0.51789   0.93006   0.00000  Uiso   1.00
O224   O     0.65921   0.09935   0.08075   0.00000  Uiso   1.00
N225   N     0.76906   0.01825   0.61072   0.00000  Uiso   1.00
N226   N     0.43686   0.41527   0.90151   0.00000  Uiso   1.00
N227   N     0.53996   0.11703   0.00892   0.00000  Uiso   1.00
N228   N     0.04141   0.03652   0.61847   0.00000  Uiso   1.00
N229   N     0.70921   0.43354   0.90927   0.00000  Uiso   1.00
N230   N     0.81231   0.13531   0.01667   0.00000  Uiso   1.00
C231   C     0.41072   0.15815   0.34692   0.00000  Uiso   1.00
C232   C     0.48178   0.22257   0.36546   0.00000  Uiso   1.00
C233   C     0.38676   0.27768   0.37844   0.00000  Uiso   1.00
C234   C     0.47559   0.33173   0.39455   0.00000  Uiso   1.00
C235   C     0.55892   0.43193   0.42292   0.00000  Uiso   1.00
C236   C     0.45176   0.13910   0.39441   0.00000  Uiso   1.00
C237   C     0.33149   0.12402   0.43172   0.00000  Uiso   1.00
C238   C     0.39506   0.10780   0.47220   0.00000  Uiso   1.00
C239   C     0.43180   0.07836   0.54547   0.00000  Uiso   1.00
C240   C     0.52252   0.11142   0.28467   0.00000  Uiso   1.00
C241   C     0.46176   0.07305   0.22972   0.00000  Uiso   1.00
C242   C     0.58491   0.03352   0.17781   0.00000  Uiso   1.00
C243   C     0.73151   0.96111   0.08071   0.00000  Uiso   1.00
C244   C     0.73747   0.15615   0.35244   0.00000  Uiso   1.00
C245   C     0.65926   0.22148   0.36846   0.00000  Uiso   1.00
C246   C     0.74827   0.27547   0.38455   0.00000  Uiso   1.00
C247   C     0.65339   0.33064   0.39756   0.00000  Uiso   1.00
C248   C     0.62923   0.13801   0.39741   0.00000  Uiso   1.00
C249   C     0.69300   0.12181   0.43783   0.00000  Uiso   1.00
C250   C     0.57286   0.10671   0.47520   0.00000  Uiso   1.00
C251   C     0.70000   0.11033   0.28767   0.00000  Uiso   1.00
C252   C     0.82327   0.07085   0.23583   0.00000  Uiso   1.00
C253   C     0.76270   0.03243   0.18082   0.00000  Uiso   1.00
H254   H     0.27255   0.15899   0.34458   0.00000  Uiso   1.00
H255   H     0.24941   0.27850   0.37612   0.00000  Uiso   1.00
H256   H     0.19416   0.12486   0.42939   0.00000  Uiso   1.00
H257   H     0.32441   0.07391   0.22742   0.00000  Uiso   1.00
H258   H     0.30201   0.41052   0.41243   0.00000  Uiso   1.00
H259   H     0.18552   0.08654   0.52473   0.00000  Uiso   1.00
H260   H     0.46017   0.97909   0.09884   0.00000  Uiso   1.00
H261   H     0.87564   0.15531   0.35477   0.00000  Uiso   1.00
H262   H     0.88561   0.27461   0.38687   0.00000  Uiso   1.00
H263   H     0.83035   0.12097   0.44014   0.00000  Uiso   1.00
H264   H     0.96060   0.07002   0.23817   0.00000  Uiso   1.00
H265   H     0.81837   0.40736   0.42116   0.00000  Uiso   1.00
H266   H     0.70188   0.08338   0.53346   0.00000  Uiso   1.00
H267   H     0.97653   0.97594   0.10757   0.00000  Uiso   1.00
O268   O     0.55585   0.48749   0.43774   0.00000  Uiso   1.00
O269   O     0.40302   0.06244   0.58507   0.00000  Uiso   1.00
O270   O     0.76335   0.92147   0.02632   0.00000  Uiso   1.00
N271   N     0.42218   0.39340   0.41007   0.00000  Uiso   1.00
N272   N     0.31326   0.09051   0.51507   0.00000  Uiso   1.00
N273   N     0.57003   0.99004   0.11691   0.00000  Uiso   1.00
N274   N     0.70003   0.39170   0.41476   0.00000  Uiso   1.00
N275   N     0.59111   0.08881   0.51976   0.00000  Uiso   1.00
N276   N     0.84788   0.98835   0.12160   0.00000  Uiso   1.00
