data_job_06980
_audit_creation_date              2018-12-19
_audit_creation_method            'Materials Studio'
_symmetry_space_group_name_H-M    'P1'
_symmetry_Int_Tables_number       1
_symmetry_cell_setting            triclinic
loop_
_symmetry_equiv_pos_as_xyz
  x,y,z
_cell_length_a                    21.9366
_cell_length_b                    19.5668
_cell_length_c                    21.4944
_cell_angle_alpha                 81.3923
_cell_angle_beta                  94.7914
_cell_angle_gamma                 113.0700
loop_
_atom_site_label
_atom_site_type_symbol
_atom_site_fract_x
_atom_site_fract_y
_atom_site_fract_z
_atom_site_U_iso_or_equiv
_atom_site_adp_type
_atom_site_occupancy
C1     C     0.63241   0.70350   0.36760   0.00000  Uiso   1.00
C2     C     0.68923   0.70739   0.41478   0.00000  Uiso   1.00
C3     C     0.72069   0.65729   0.42484   0.00000  Uiso   1.00
C4     C     0.77158   0.67056   0.47012   0.00000  Uiso   1.00
C5     C     0.85694   0.66727   0.53824   0.00000  Uiso   1.00
C6     C     0.57600   0.70190   0.40548   0.00000  Uiso   1.00
C7     C     0.51226   0.64719   0.40771   0.00000  Uiso   1.00
C8     C     0.46783   0.65585   0.44516   0.00000  Uiso   1.00
C9     C     0.37738   0.64406   0.49880   0.00000  Uiso   1.00
C10    C     0.65558   0.77842   0.32539   0.00000  Uiso   1.00
C11    C     0.65874   0.78804   0.26027   0.00000  Uiso   1.00
C12    C     0.68130   0.86112   0.23028   0.00000  Uiso   1.00
C13    C     0.71442   0.96813   0.15957   0.00000  Uiso   1.00
C14    C     0.66683   0.81616   0.43012   0.00000  Uiso   1.00
C15    C     0.70792   0.76858   0.44874   0.00000  Uiso   1.00
C16    C     0.75878   0.78194   0.49401   0.00000  Uiso   1.00
C17    C     0.79031   0.73187   0.50414   0.00000  Uiso   1.00
C18    C     0.59469   0.76309   0.43944   0.00000  Uiso   1.00
C19    C     0.55034   0.77183   0.47688   0.00000  Uiso   1.00
C20    C     0.48655   0.71715   0.47917   0.00000  Uiso   1.00
C21    C     0.67428   0.83961   0.35934   0.00000  Uiso   1.00
C22    C     0.69683   0.91269   0.32945   0.00000  Uiso   1.00
C23    C     0.70002   0.92242   0.26430   0.00000  Uiso   1.00
H24    H     0.61785   0.65586   0.34116   0.00000  Uiso   1.00
H25    H     0.70620   0.60994   0.39856   0.00000  Uiso   1.00
H26    H     0.49781   0.59985   0.38143   0.00000  Uiso   1.00
H27    H     0.64427   0.74068   0.23401   0.00000  Uiso   1.00
H28    H     0.81239   0.58600   0.47718   0.00000  Uiso   1.00
H29    H     0.37296   0.56473   0.44104   0.00000  Uiso   1.00
H30    H     0.68181   0.86170   0.13019   0.00000  Uiso   1.00
H31    H     0.68138   0.86380   0.45655   0.00000  Uiso   1.00
H32    H     0.77323   0.82929   0.52028   0.00000  Uiso   1.00
H33    H     0.56483   0.81919   0.50315   0.00000  Uiso   1.00
H34    H     0.71129   0.96002   0.35574   0.00000  Uiso   1.00
H35    H     0.86679   0.76403   0.57598   0.00000  Uiso   1.00
H36    H     0.42736   0.74276   0.53983   0.00000  Uiso   1.00
H37    H     0.73620   0.03973   0.22899   0.00000  Uiso   1.00
O38    O     0.89885   0.64854   0.56644   0.00000  Uiso   1.00
O39    O     0.32233   0.62064   0.51901   0.00000  Uiso   1.00
O40    O     0.72753   0.01026   0.11118   0.00000  Uiso   1.00
N41    N     0.81260   0.63264   0.49168   0.00000  Uiso   1.00
N42    N     0.40176   0.61275   0.45790   0.00000  Uiso   1.00
N43    N     0.69049   0.89039   0.16728   0.00000  Uiso   1.00
N44    N     0.84187   0.72844   0.54484   0.00000  Uiso   1.00
N45    N     0.43103   0.70854   0.51106   0.00000  Uiso   1.00
N46    N     0.71976   0.98618   0.22044   0.00000  Uiso   1.00
C47    C     0.30417   0.52404   0.87871   0.00000  Uiso   1.00
C48    C     0.34290   0.58736   0.82908   0.00000  Uiso   1.00
C49    C     0.32082   0.60133   0.76795   0.00000  Uiso   1.00
C50    C     0.36367   0.66199   0.72980   0.00000  Uiso   1.00
C51    C     0.41429   0.75344   0.64935   0.00000  Uiso   1.00
C52    C     0.34801   0.48023   0.90012   0.00000  Uiso   1.00
C53    C     0.33023   0.40414   0.89872   0.00000  Uiso   1.00
C54    C     0.37738   0.37462   0.92039   0.00000  Uiso   1.00
C55    C     0.43592   0.29974   0.95027   0.00000  Uiso   1.00
C56    C     0.30066   0.56131   0.93499   0.00000  Uiso   1.00
C57    C     0.24306   0.55337   0.96293   0.00000  Uiso   1.00
C58    C     0.25035   0.59210   0.01396   0.00000  Uiso   1.00
C59    C     0.23536   0.64311   0.09799   0.00000  Uiso   1.00
C60    C     0.41952   0.60691   0.91968   0.00000  Uiso   1.00
C61    C     0.40555   0.63236   0.85134   0.00000  Uiso   1.00
C62    C     0.44845   0.69302   0.81328   0.00000  Uiso   1.00
C63    C     0.42644   0.70709   0.75210   0.00000  Uiso   1.00
C64    C     0.41066   0.52524   0.92237   0.00000  Uiso   1.00
C65    C     0.45785   0.49582   0.94405   0.00000  Uiso   1.00
C66    C     0.44015   0.41971   0.94269   0.00000  Uiso   1.00
C67    C     0.36331   0.60632   0.95725   0.00000  Uiso   1.00
C68    C     0.37069   0.64506   0.00825   0.00000  Uiso   1.00
C69    C     0.31312   0.63719   0.03626   0.00000  Uiso   1.00
H70    H     0.25539   0.48899   0.86138   0.00000  Uiso   1.00
H71    H     0.27233   0.56648   0.75074   0.00000  Uiso   1.00
H72    H     0.28173   0.36932   0.88150   0.00000  Uiso   1.00
H73    H     0.19458   0.51853   0.94569   0.00000  Uiso   1.00
H74    H     0.31876   0.67223   0.63788   0.00000  Uiso   1.00
H75    H     0.33857   0.25649   0.91362   0.00000  Uiso   1.00
H76    H     0.15480   0.57114   0.04898   0.00000  Uiso   1.00
H77    H     0.46831   0.64195   0.93700   0.00000  Uiso   1.00
H78    H     0.49693   0.72784   0.83051   0.00000  Uiso   1.00
H79    H     0.50633   0.53067   0.96127   0.00000  Uiso   1.00
H80    H     0.41918   0.67989   0.02546   0.00000  Uiso   1.00
H81    H     0.50105   0.80320   0.70262   0.00000  Uiso   1.00
H82    H     0.52087   0.38745   0.97837   0.00000  Uiso   1.00
H83    H     0.33709   0.70211   0.11373   0.00000  Uiso   1.00
O84    O     0.42490   0.79144   0.59883   0.00000  Uiso   1.00
O85    O     0.45089   0.24600   0.96060   0.00000  Uiso   1.00
O86    O     0.20978   0.65882   0.13818   0.00000  Uiso   1.00
N87    N     0.35773   0.69128   0.66774   0.00000  Uiso   1.00
N88    N     0.37626   0.30258   0.92553   0.00000  Uiso   1.00
N89    N     0.20444   0.59674   0.05209   0.00000  Uiso   1.00
N90    N     0.45582   0.76175   0.70258   0.00000  Uiso   1.00
N91    N     0.47435   0.37306   0.96037   0.00000  Uiso   1.00
N92    N     0.30253   0.66721   0.08693   0.00000  Uiso   1.00
C93    C     0.75797   0.18899   0.68936   0.00000  Uiso   1.00
C94    C     0.77621   0.27341   0.67856   0.00000  Uiso   1.00
C95    C     0.74312   0.31121   0.70217   0.00000  Uiso   1.00
C96    C     0.76756   0.38851   0.68694   0.00000  Uiso   1.00
C97    C     0.78742   0.51380   0.67584   0.00000  Uiso   1.00
C98    C     0.74791   0.16385   0.62414   0.00000  Uiso   1.00
C99    C     0.69103   0.10953   0.60200   0.00000  Uiso   1.00
C100   C     0.69165   0.09459   0.54096   0.00000  Uiso   1.00
C101   C     0.66759   0.04975   0.44540   0.00000  Uiso   1.00
C102   C     0.81983   0.17771   0.71807   0.00000  Uiso   1.00
C103   C     0.82342   0.13502   0.77490   0.00000  Uiso   1.00
C104   C     0.88458   0.13173   0.79294   0.00000  Uiso   1.00
C105   C     0.97219   0.10841   0.84322   0.00000  Uiso   1.00
C106   C     0.86020   0.25905   0.62033   0.00000  Uiso   1.00
C107   C     0.83174   0.31146   0.64107   0.00000  Uiso   1.00
C108   C     0.85623   0.38872   0.62580   0.00000  Uiso   1.00
C109   C     0.82319   0.42663   0.64938   0.00000  Uiso   1.00
C110   C     0.80344   0.20190   0.58665   0.00000  Uiso   1.00
C111   C     0.80414   0.18704   0.52563   0.00000  Uiso   1.00
C112   C     0.74728   0.13271   0.50340   0.00000  Uiso   1.00
C113   C     0.87536   0.21576   0.68058   0.00000  Uiso   1.00
C114   C     0.93653   0.21253   0.69853   0.00000  Uiso   1.00
C115   C     0.94021   0.16985   0.75538   0.00000  Uiso   1.00
H116   H     0.71473   0.15936   0.71855   0.00000  Uiso   1.00
H117   H     0.70015   0.28174   0.73117   0.00000  Uiso   1.00
H118   H     0.64807   0.08009   0.63103   0.00000  Uiso   1.00
H119   H     0.78044   0.10558   0.80390   0.00000  Uiso   1.00
H120   H     0.70845   0.43420   0.72862   0.00000  Uiso   1.00
H121   H     0.59865   0.00898   0.51746   0.00000  Uiso   1.00
H122   H     0.87777   0.06273   0.88200   0.00000  Uiso   1.00
H123   H     0.90343   0.28867   0.59114   0.00000  Uiso   1.00
H124   H     0.89921   0.41815   0.59678   0.00000  Uiso   1.00
H125   H     0.84712   0.21649   0.49663   0.00000  Uiso   1.00
H126   H     0.97949   0.24199   0.66951   0.00000  Uiso   1.00
H127   H     0.87001   0.54492   0.61954   0.00000  Uiso   1.00
H128   H     0.76021   0.11969   0.40838   0.00000  Uiso   1.00
H129   H     0.03932   0.17345   0.77292   0.00000  Uiso   1.00
O130   O     0.78303   0.57240   0.68007   0.00000  Uiso   1.00
O131   O     0.63898   0.01451   0.40305   0.00000  Uiso   1.00
O132   O     0.00517   0.08504   0.88131   0.00000  Uiso   1.00
N133   N     0.74706   0.44249   0.70219   0.00000  Uiso   1.00
N134   N     0.64440   0.04494   0.50476   0.00000  Uiso   1.00
N135   N     0.90535   0.09518   0.84556   0.00000  Uiso   1.00
N136   N     0.83400   0.50207   0.64349   0.00000  Uiso   1.00
N137   N     0.73133   0.10452   0.44607   0.00000  Uiso   1.00
N138   N     0.99228   0.15476   0.78687   0.00000  Uiso   1.00
C139   C     0.17023   0.82207   0.12879   0.00000  Uiso   1.00
C140   C     0.23640   0.86083   0.09605   0.00000  Uiso   1.00
C141   C     0.25870   0.83279   0.05101   0.00000  Uiso   1.00
C142   C     0.32065   0.87678   0.02673   0.00000  Uiso   1.00
C143   C     0.41757   0.92640   0.97282   0.00000  Uiso   1.00
C144   C     0.13560   0.87704   0.11645   0.00000  Uiso   1.00
C145   C     0.07315   0.86262   0.08857   0.00000  Uiso   1.00
C146   C     0.05025   0.92027   0.08147   0.00000  Uiso   1.00
C147   C     0.99066   0.99504   0.05927   0.00000  Uiso   1.00
C148   C     0.18691   0.81607   0.19918   0.00000  Uiso   1.00
C149   C     0.16757   0.75039   0.24088   0.00000  Uiso   1.00
C150   C     0.18785   0.75670   0.30343   0.00000  Uiso   1.00
C151   C     0.20791   0.73680   0.40969   0.00000  Uiso   1.00
C152   C     0.24060   0.95007   0.16575   0.00000  Uiso   1.00
C153   C     0.27462   0.93035   0.11613   0.00000  Uiso   1.00
C154   C     0.33656   0.97440   0.09190   0.00000  Uiso   1.00
C155   C     0.35894   0.94643   0.04684   0.00000  Uiso   1.00
C156   C     0.17382   0.94656   0.13652   0.00000  Uiso   1.00
C157   C     0.15101   0.00424   0.12946   0.00000  Uiso   1.00
C158   C     0.08854   0.98992   0.10158   0.00000  Uiso   1.00
C159   C     0.22513   0.88559   0.21926   0.00000  Uiso   1.00
C160   C     0.24543   0.89201   0.28177   0.00000  Uiso   1.00
C161   C     0.22614   0.82635   0.32354   0.00000  Uiso   1.00
H162   H     0.14047   0.76794   0.11316   0.00000  Uiso   1.00
H163   H     0.22910   0.77898   0.03548   0.00000  Uiso   1.00
H164   H     0.04358   0.80881   0.07305   0.00000  Uiso   1.00
H165   H     0.13800   0.69660   0.22532   0.00000  Uiso   1.00
H166   H     0.34422   0.82189   0.95821   0.00000  Uiso   1.00
H167   H     0.95302   0.88479   0.03743   0.00000  Uiso   1.00
H168   H     0.15211   0.64815   0.35854   0.00000  Uiso   1.00
H169   H     0.27036   0.00420   0.18138   0.00000  Uiso   1.00
H170   H     0.36612   0.02821   0.10745   0.00000  Uiso   1.00
H171   H     0.18060   0.05804   0.14501   0.00000  Uiso   1.00
H172   H     0.27501   0.94582   0.29728   0.00000  Uiso   1.00
H173   H     0.45542   0.02417   0.01661   0.00000  Uiso   1.00
H174   H     0.06423   0.08707   0.09583   0.00000  Uiso   1.00
H175   H     0.26332   0.85043   0.41694   0.00000  Uiso   1.00
O176   O     0.46046   0.93457   0.93753   0.00000  Uiso   1.00
O177   O     0.94723   0.01708   0.04147   0.00000  Uiso   1.00
O178   O     0.20843   0.70662   0.46276   0.00000  Uiso   1.00
N179   N     0.35725   0.86620   0.98211   0.00000  Uiso   1.00
N180   N     0.99151   0.92500   0.05616   0.00000  Uiso   1.00
N181   N     0.17763   0.70377   0.35638   0.00000  Uiso   1.00
N182   N     0.41709   0.97504   0.01354   0.00000  Uiso   1.00
N183   N     0.05135   0.03385   0.08759   0.00000  Uiso   1.00
N184   N     0.23747   0.81262   0.38780   0.00000  Uiso   1.00
C185   C     0.99132   0.19798   0.09244   0.00000  Uiso   1.00
C186   C     0.05593   0.26524   0.09949   0.00000  Uiso   1.00
C187   C     0.11837   0.27116   0.08482   0.00000  Uiso   1.00
C188   C     0.17124   0.33727   0.09461   0.00000  Uiso   1.00
C189   C     0.27297   0.43288   0.10193   0.00000  Uiso   1.00
C190   C     0.94549   0.22797   0.05033   0.00000  Uiso   1.00
C191   C     0.91508   0.20256   0.99433   0.00000  Uiso   1.00
C192   C     0.87498   0.23730   0.96274   0.00000  Uiso   1.00
C193   C     0.80522   0.27502   0.89377   0.00000  Uiso   1.00
C194   C     0.96078   0.17399   0.15728   0.00000  Uiso   1.00
C195   C     0.94321   0.10317   0.19121   0.00000  Uiso   1.00
C196   C     0.91596   0.09246   0.24966   0.00000  Uiso   1.00
C197   C     0.86995   0.04635   0.34674   0.00000  Uiso   1.00
C198   C     0.97417   0.30486   0.13591   0.00000  Uiso   1.00
C199   C     0.04661   0.32329   0.12310   0.00000  Uiso   1.00
C200   C     0.09940   0.38941   0.13291   0.00000  Uiso   1.00
C201   C     0.16191   0.39543   0.11826   0.00000  Uiso   1.00
C202   C     0.93618   0.28602   0.07394   0.00000  Uiso   1.00
C203   C     0.89611   0.32080   0.04242   0.00000  Uiso   1.00
C204   C     0.86565   0.29545   0.98639   0.00000  Uiso   1.00
C205   C     0.95147   0.23204   0.18089   0.00000  Uiso   1.00
C206   C     0.92424   0.22142   0.23930   0.00000  Uiso   1.00
C207   C     0.90663   0.15061   0.27331   0.00000  Uiso   1.00
H208   H     0.99857   0.15279   0.07406   0.00000  Uiso   1.00
H209   H     0.12556   0.22623   0.06655   0.00000  Uiso   1.00
H210   H     0.92229   0.15763   0.97608   0.00000  Uiso   1.00
H211   H     0.95042   0.05826   0.17292   0.00000  Uiso   1.00
H212   H     0.26224   0.33326   0.06861   0.00000  Uiso   1.00
H213   H     0.83363   0.18860   0.87786   0.00000  Uiso   1.00
H214   H     0.89294   0.97907   0.29295   0.00000  Uiso   1.00
H215   H     0.96692   0.35006   0.15429   0.00000  Uiso   1.00
H216   H     0.09217   0.43432   0.15118   0.00000  Uiso   1.00
H217   H     0.88891   0.36572   0.06071   0.00000  Uiso   1.00
H218   H     0.91704   0.26636   0.25755   0.00000  Uiso   1.00
H219   H     0.23514   0.50216   0.13729   0.00000  Uiso   1.00
H220   H     0.80653   0.35750   0.94655   0.00000  Uiso   1.00
H221   H     0.86584   0.14797   0.36164   0.00000  Uiso   1.00
O222   O     0.33165   0.46959   0.09944   0.00000  Uiso   1.00
O223   O     0.76933   0.27979   0.84920   0.00000  Uiso   1.00
O224   O     0.84715   0.00489   0.39378   0.00000  Uiso   1.00
N225   N     0.23867   0.36144   0.08521   0.00000  Uiso   1.00
N226   N     0.83796   0.22620   0.90687   0.00000  Uiso   1.00
N227   N     0.89339   0.03030   0.29493   0.00000  Uiso   1.00
N228   N     0.22409   0.45232   0.12217   0.00000  Uiso   1.00
N229   N     0.82338   0.31708   0.94383   0.00000  Uiso   1.00
N230   N     0.87881   0.12118   0.33189   0.00000  Uiso   1.00
C231   C     0.12178   0.97341   0.81377   0.00000  Uiso   1.00
C232   C     0.15317   0.01927   0.86786   0.00000  Uiso   1.00
C233   C     0.16140   0.09308   0.86917   0.00000  Uiso   1.00
C234   C     0.19121   0.12508   0.92299   0.00000  Uiso   1.00
C235   C     0.23675   0.20244   0.99928   0.00000  Uiso   1.00
C236   C     0.06505   0.90365   0.84193   0.00000  Uiso   1.00
C237   C     0.99920   0.88025   0.82143   0.00000  Uiso   1.00
C238   C     0.95484   0.81491   0.85342   0.00000  Uiso   1.00
C239   C     0.86358   0.71273   0.88943   0.00000  Uiso   1.00
C240   C     0.17338   0.94630   0.79543   0.00000  Uiso   1.00
C241   C     0.19860   0.95873   0.73583   0.00000  Uiso   1.00
C242   C     0.24543   0.92928   0.72867   0.00000  Uiso   1.00
C243   C     0.32236   0.89332   0.69249   0.00000  Uiso   1.00
C244   C     0.16009   0.89900   0.90703   0.00000  Uiso   1.00
C245   C     0.17397   0.97885   0.91851   0.00000  Uiso   1.00
C246   C     0.20378   0.01075   0.97235   0.00000  Uiso   1.00
C247   C     0.21206   0.08460   0.97373   0.00000  Uiso   1.00
C248   C     0.08585   0.86324   0.89258   0.00000  Uiso   1.00
C249   C     0.04158   0.79792   0.92461   0.00000  Uiso   1.00
C250   C     0.97568   0.77442   0.90417   0.00000  Uiso   1.00
C251   C     0.19418   0.90588   0.84609   0.00000  Uiso   1.00
C252   C     0.24098   0.87640   0.83901   0.00000  Uiso   1.00
C253   C     0.26627   0.88879   0.77942   0.00000  Uiso   1.00
H254   H     0.10558   0.00487   0.77434   0.00000  Uiso   1.00
H255   H     0.14529   0.12434   0.82996   0.00000  Uiso   1.00
H256   H     0.98312   0.91153   0.78223   0.00000  Uiso   1.00
H257   H     0.18249   0.99001   0.69665   0.00000  Uiso   1.00
H258   H     0.19846   0.23896   0.91398   0.00000  Uiso   1.00
H259   H     0.85652   0.79023   0.81332   0.00000  Uiso   1.00
H260   H     0.27692   0.95571   0.63285   0.00000  Uiso   1.00
H261   H     0.17628   0.86753   0.94646   0.00000  Uiso   1.00
H262   H     0.21988   0.97946   0.01154   0.00000  Uiso   1.00
H263   H     0.05770   0.76665   0.96380   0.00000  Uiso   1.00
H264   H     0.25707   0.84513   0.87822   0.00000  Uiso   1.00
H265   H     0.25900   0.12137   0.06135   0.00000  Uiso   1.00
H266   H     0.91705   0.67264   0.96069   0.00000  Uiso   1.00
H267   H     0.33746   0.83812   0.78022   0.00000  Uiso   1.00
O268   O     0.25611   0.25627   0.02738   0.00000  Uiso   1.00
O269   O     0.80749   0.66755   0.89530   0.00000  Uiso   1.00
O270   O     0.35906   0.88465   0.65854   0.00000  Uiso   1.00
N271   N     0.20674   0.19593   0.93973   0.00000  Uiso   1.00
N272   N     0.88704   0.77640   0.84562   0.00000  Uiso   1.00
N273   N     0.28007   0.93109   0.67690   0.00000  Uiso   1.00
N274   N     0.23931   0.13265   0.01903   0.00000  Uiso   1.00
N275   N     0.91961   0.71312   0.92492   0.00000  Uiso   1.00
N276   N     0.31264   0.86782   0.75620   0.00000  Uiso   1.00
C277   C     0.16346   0.90007   0.49631   0.00000  Uiso   1.00
C278   C     0.15029   0.96527   0.51469   0.00000  Uiso   1.00
C279   C     0.11769   0.96353   0.56788   0.00000  Uiso   1.00
C280   C     0.11065   0.02902   0.57628   0.00000  Uiso   1.00
C281   C     0.08647   0.12040   0.61141   0.00000  Uiso   1.00
C282   C     0.23824   0.92824   0.48928   0.00000  Uiso   1.00
C283   C     0.27958   0.89536   0.52110   0.00000  Uiso   1.00
C284   C     0.34657   0.92967   0.50810   0.00000  Uiso   1.00
C285   C     0.45893   0.96353   0.50375   0.00000  Uiso   1.00
C286   C     0.13302   0.88854   0.43037   0.00000  Uiso   1.00
C287   C     0.08590   0.82227   0.41267   0.00000  Uiso   1.00
C288   C     0.06432   0.82316   0.35007   0.00000  Uiso   1.00
C289   C     0.01330   0.79537   0.25426   0.00000  Uiso   1.00
C290   C     0.20893   0.01947   0.41663   0.00000  Uiso   1.00
C291   C     0.17499   0.03012   0.47140   0.00000  Uiso   1.00
C292   C     0.16799   0.09563   0.47972   0.00000  Uiso   1.00
C293   C     0.13539   0.09399   0.53292   0.00000  Uiso   1.00
C294   C     0.26294   0.99309   0.44600   0.00000  Uiso   1.00
C295   C     0.32988   0.02746   0.43294   0.00000  Uiso   1.00
C296   C     0.37131   0.99464   0.46475   0.00000  Uiso   1.00
C297   C     0.15771   0.95339   0.38709   0.00000  Uiso   1.00
C298   C     0.13620   0.95437   0.32451   0.00000  Uiso   1.00
C299   C     0.08906   0.88813   0.30671   0.00000  Uiso   1.00
H300   H     0.14424   0.84958   0.53001   0.00000  Uiso   1.00
H301   H     0.09859   0.91333   0.60137   0.00000  Uiso   1.00
H302   H     0.26045   0.84517   0.55459   0.00000  Uiso   1.00
H303   H     0.06680   0.77210   0.44617   0.00000  Uiso   1.00
H304   H     0.05889   0.01262   0.66141   0.00000  Uiso   1.00
H305   H     0.40019   0.86887   0.56276   0.00000  Uiso   1.00
H306   H     0.99184   0.71479   0.33414   0.00000  Uiso   1.00
H307   H     0.22816   0.06996   0.38293   0.00000  Uiso   1.00
H308   H     0.18711   0.14581   0.44622   0.00000  Uiso   1.00
H309   H     0.34898   0.07764   0.39945   0.00000  Uiso   1.00
H310   H     0.15532   0.00457   0.29103   0.00000  Uiso   1.00
H311   H     0.13074   0.20131   0.53549   0.00000  Uiso   1.00
H312   H     0.47204   0.05756   0.43684   0.00000  Uiso   1.00
H313   H     0.06368   0.90347   0.20822   0.00000  Uiso   1.00
O314   O     0.06632   0.15289   0.64274   0.00000  Uiso   1.00
O315   O     0.51408   0.96429   0.51331   0.00000  Uiso   1.00
O316   O     0.97833   0.76213   0.21337   0.00000  Uiso   1.00
N317   N     0.08142   0.04662   0.62308   0.00000  Uiso   1.00
N318   N     0.40051   0.91223   0.53086   0.00000  Uiso   1.00
N319   N     0.01875   0.76816   0.31711   0.00000  Uiso   1.00
N320   N     0.12009   0.14815   0.55532   0.00000  Uiso   1.00
N321   N     0.43917   0.01376   0.46310   0.00000  Uiso   1.00
N322   N     0.05741   0.86969   0.24936   0.00000  Uiso   1.00
C323   C     0.64783   0.17048   0.17156   0.00000  Uiso   1.00
C324   C     0.58790   0.11383   0.20752   0.00000  Uiso   1.00
C325   C     0.58970   0.06265   0.25911   0.00000  Uiso   1.00
C326   C     0.52947   0.01563   0.28539   0.00000  Uiso   1.00
C327   C     0.44553   0.92708   0.34497   0.00000  Uiso   1.00
C328   C     0.64550   0.24706   0.17319   0.00000  Uiso   1.00
C329   C     0.69573   0.30790   0.19592   0.00000  Uiso   1.00
C330   C     0.68399   0.37304   0.19328   0.00000  Uiso   1.00
C331   C     0.68949   0.49135   0.19953   0.00000  Uiso   1.00
C332   C     0.63458   0.15570   0.10307   0.00000  Uiso   1.00
C333   C     0.67564   0.13974   0.06683   0.00000  Uiso   1.00
C334   C     0.65471   0.12798   0.00516   0.00000  Uiso   1.00
C335   C     0.64325   0.10444   0.90253   0.00000  Uiso   1.00
C336   C     0.53765   0.17800   0.12646   0.00000  Uiso   1.00
C337   C     0.52806   0.11792   0.18302   0.00000  Uiso   1.00
C338   C     0.46780   0.07097   0.20922   0.00000  Uiso   1.00
C339   C     0.46952   0.01972   0.26085   0.00000  Uiso   1.00
C340   C     0.58566   0.25115   0.14869   0.00000  Uiso   1.00
C341   C     0.57383   0.31622   0.14602   0.00000  Uiso   1.00
C342   C     0.62404   0.37714   0.16875   0.00000  Uiso   1.00
C343   C     0.57473   0.15979   0.07857   0.00000  Uiso   1.00
C344   C     0.55374   0.14806   0.01694   0.00000  Uiso   1.00
C345   C     0.59476   0.13208   0.98062   0.00000  Uiso   1.00
H346   H     0.69442   0.16730   0.19063   0.00000  Uiso   1.00
H347   H     0.63603   0.05951   0.27806   0.00000  Uiso   1.00
H348   H     0.74204   0.30472   0.21486   0.00000  Uiso   1.00
H349   H     0.72195   0.13658   0.08580   0.00000  Uiso   1.00
H350   H     0.54490   0.94182   0.36421   0.00000  Uiso   1.00
H351   H     0.76845   0.45887   0.23094   0.00000  Uiso   1.00
H352   H     0.72608   0.10432   0.95879   0.00000  Uiso   1.00
H353   H     0.49106   0.18119   0.10739   0.00000  Uiso   1.00
H354   H     0.42150   0.07415   0.19026   0.00000  Uiso   1.00
H355   H     0.52752   0.31937   0.12706   0.00000  Uiso   1.00
H356   H     0.50742   0.15123   0.99800   0.00000  Uiso   1.00
H357   H     0.37078   0.95370   0.29295   0.00000  Uiso   1.00
H358   H     0.59433   0.47076   0.15967   0.00000  Uiso   1.00
H359   H     0.55196   0.11621   0.88753   0.00000  Uiso   1.00
O360   O     0.41576   0.87711   0.38460   0.00000  Uiso   1.00
O361   O     0.70905   0.55548   0.20974   0.00000  Uiso   1.00
O362   O     0.65346   0.09031   0.85270   0.00000  Uiso   1.00
N363   N     0.51346   0.95929   0.33606   0.00000  Uiso   1.00
N364   N     0.72247   0.44271   0.21146   0.00000  Uiso   1.00
N365   N     0.68286   0.11125   0.95702   0.00000  Uiso   1.00
N366   N     0.41977   0.96569   0.29771   0.00000  Uiso   1.00
N367   N     0.62877   0.44910   0.17312   0.00000  Uiso   1.00
N368   N     0.58917   0.11765   0.91868   0.00000  Uiso   1.00
C369   C     0.14195   0.41619   0.36662   0.00000  Uiso   1.00
C370   C     0.14328   0.34518   0.34674   0.00000  Uiso   1.00
C371   C     0.18639   0.34244   0.30435   0.00000  Uiso   1.00
C372   C     0.17964   0.27198   0.29244   0.00000  Uiso   1.00
C373   C     0.18905   0.17165   0.25711   0.00000  Uiso   1.00
C374   C     0.15019   0.40823   0.43816   0.00000  Uiso   1.00
C375   C     0.19910   0.45850   0.47263   0.00000  Uiso   1.00
C376   C     0.19817   0.44111   0.53768   0.00000  Uiso   1.00
C377   C     0.21827   0.43870   0.64429   0.00000  Uiso   1.00
C378   C     0.07164   0.41276   0.35212   0.00000  Uiso   1.00
C379   C     0.05451   0.46685   0.31427   0.00000  Uiso   1.00
C380   C     0.98744   0.45328   0.30689   0.00000  Uiso   1.00
C381   C     0.88560   0.45790   0.27991   0.00000  Uiso   1.00
C382   C     0.05330   0.29594   0.42084   0.00000  Uiso   1.00
C383   C     0.09513   0.27987   0.37619   0.00000  Uiso   1.00
C384   C     0.08831   0.20940   0.36434   0.00000  Uiso   1.00
C385   C     0.13140   0.20655   0.32193   0.00000  Uiso   1.00
C386   C     0.10204   0.34292   0.46761   0.00000  Uiso   1.00
C387   C     0.10103   0.32546   0.53262   0.00000  Uiso   1.00
C388   C     0.14993   0.37568   0.56718   0.00000  Uiso   1.00
C389   C     0.02349   0.34745   0.38157   0.00000  Uiso   1.00
C390   C     0.95643   0.33380   0.37425   0.00000  Uiso   1.00
C391   C     0.93921   0.38785   0.33639   0.00000  Uiso   1.00
H392   H     0.17944   0.46704   0.34370   0.00000  Uiso   1.00
H393   H     0.22365   0.39299   0.28157   0.00000  Uiso   1.00
H394   H     0.23635   0.50904   0.44983   0.00000  Uiso   1.00
H395   H     0.09179   0.51738   0.29149   0.00000  Uiso   1.00
H396   H     0.25145   0.28209   0.22570   0.00000  Uiso   1.00
H397   H     0.27823   0.52679   0.58048   0.00000  Uiso   1.00
H398   H     0.97338   0.54439   0.24658   0.00000  Uiso   1.00
H399   H     0.01581   0.24509   0.44377   0.00000  Uiso   1.00
H400   H     0.05104   0.15886   0.38713   0.00000  Uiso   1.00
H401   H     0.06375   0.27491   0.55539   0.00000  Uiso   1.00
H402   H     0.91919   0.28325   0.39705   0.00000  Uiso   1.00
H403   H     0.11136   0.09206   0.31138   0.00000  Uiso   1.00
H404   H     0.13814   0.33677   0.66616   0.00000  Uiso   1.00
H405   H     0.83329   0.35436   0.33226   0.00000  Uiso   1.00
O406   O     0.20755   0.13436   0.22950   0.00000  Uiso   1.00
O407   O     0.24267   0.45540   0.69495   0.00000  Uiso   1.00
O408   O     0.84272   0.47849   0.25688   0.00000  Uiso   1.00
N409   N     0.21363   0.24920   0.25363   0.00000  Uiso   1.00
N410   N     0.23868   0.47798   0.58533   0.00000  Uiso   1.00
N411   N     0.95367   0.49444   0.27317   0.00000  Uiso   1.00
N412   N     0.13825   0.14695   0.29973   0.00000  Uiso   1.00
N413   N     0.16329   0.37573   0.63143   0.00000  Uiso   1.00
N414   N     0.87829   0.39219   0.31927   0.00000  Uiso   1.00
C415   C     0.73501   0.91101   0.73315   0.00000  Uiso   1.00
C416   C     0.71366   0.82688   0.73305   0.00000  Uiso   1.00
C417   C     0.72654   0.77792   0.78095   0.00000  Uiso   1.00
C418   C     0.70281   0.70302   0.77187   0.00000  Uiso   1.00
C419   C     0.67507   0.57620   0.78008   0.00000  Uiso   1.00
C420   C     0.77506   0.94817   0.67402   0.00000  Uiso   1.00
C421   C     0.83955   0.00120   0.67229   0.00000  Uiso   1.00
C422   C     0.86750   0.02840   0.61351   0.00000  Uiso   1.00
C423   C     0.93506   0.08993   0.53006   0.00000  Uiso   1.00
C424   C     0.67173   0.92647   0.72295   0.00000  Uiso   1.00
C425   C     0.64934   0.96127   0.76235   0.00000  Uiso   1.00
C426   C     0.59029   0.97023   0.74476   0.00000  Uiso   1.00
C427   C     0.49742   0.99807   0.73728   0.00000  Uiso   1.00
C428   C     0.66996   0.86506   0.63184   0.00000  Uiso   1.00
C429   C     0.67834   0.80193   0.67803   0.00000  Uiso   1.00
C430   C     0.65457   0.72708   0.66887   0.00000  Uiso   1.00
C431   C     0.66741   0.67802   0.71675   0.00000  Uiso   1.00
C432   C     0.73973   0.92322   0.61899   0.00000  Uiso   1.00
C433   C     0.76759   0.95036   0.56020   0.00000  Uiso   1.00
C434   C     0.83210   0.00340   0.55838   0.00000  Uiso   1.00
C435   C     0.63639   0.90152   0.66792   0.00000  Uiso   1.00
C436   C     0.57737   0.91043   0.65027   0.00000  Uiso   1.00
C437   C     0.55490   0.94523   0.68963   0.00000  Uiso   1.00
H438   H     0.76252   0.93044   0.77599   0.00000  Uiso   1.00
H439   H     0.75389   0.79726   0.82353   0.00000  Uiso   1.00
H440   H     0.86688   0.02050   0.71488   0.00000  Uiso   1.00
H441   H     0.67670   0.98058   0.80493   0.00000  Uiso   1.00
H442   H     0.72876   0.63860   0.85196   0.00000  Uiso   1.00
H443   H     0.96700   0.10934   0.62286   0.00000  Uiso   1.00
H444   H     0.56596   0.02516   0.81275   0.00000  Uiso   1.00
H445   H     0.64245   0.84563   0.58900   0.00000  Uiso   1.00
H446   H     0.62723   0.70779   0.62628   0.00000  Uiso   1.00
H447   H     0.74023   0.93103   0.51763   0.00000  Uiso   1.00
H448   H     0.55004   0.89111   0.60768   0.00000  Uiso   1.00
H449   H     0.62597   0.56598   0.69187   0.00000  Uiso   1.00
H450   H     0.86421   0.03673   0.46276   0.00000  Uiso   1.00
H451   H     0.46317   0.95254   0.65265   0.00000  Uiso   1.00
O452   O     0.66954   0.51315   0.79980   0.00000  Uiso   1.00
O453   O     0.98209   0.13076   0.49923   0.00000  Uiso   1.00
O454   O     0.45594   0.02031   0.74836   0.00000  Uiso   1.00
N455   N     0.70665   0.64042   0.80917   0.00000  Uiso   1.00
N456   N     0.92939   0.08053   0.59497   0.00000  Uiso   1.00
N457   N     0.55446   0.00185   0.77250   0.00000  Uiso   1.00
N458   N     0.65133   0.60135   0.72303   0.00000  Uiso   1.00
N459   N     0.87408   0.04146   0.50883   0.00000  Uiso   1.00
N460   N     0.49915   0.96277   0.68635   0.00000  Uiso   1.00
C461   C     0.07813   0.61788   0.85745   0.00000  Uiso   1.00
C462   C     0.02992   0.64461   0.81590   0.00000  Uiso   1.00
C463   C     0.04669   0.71212   0.77677   0.00000  Uiso   1.00
C464   C     0.99536   0.72619   0.74258   0.00000  Uiso   1.00
C465   C     0.93051   0.77557   0.67735   0.00000  Uiso   1.00
C466   C     0.05290   0.60156   0.92423   0.00000  Uiso   1.00
C467   C     0.08900   0.63287   0.97618   0.00000  Uiso   1.00
C468   C     0.05702   0.61069   0.03319   0.00000  Uiso   1.00
C469   C     0.02786   0.59320   0.13616   0.00000  Uiso   1.00
C470   C     0.06865   0.54232   0.83831   0.00000  Uiso   1.00
C471   C     0.11799   0.52380   0.81804   0.00000  Uiso   1.00
C472   C     0.09928   0.45174   0.80272   0.00000  Uiso   1.00
C473   C     0.09457   0.34226   0.77228   0.00000  Uiso   1.00
C474   C     0.95716   0.52282   0.86632   0.00000  Uiso   1.00
C475   C     0.96422   0.59298   0.82072   0.00000  Uiso   1.00
C476   C     0.91285   0.60695   0.78658   0.00000  Uiso   1.00
C477   C     0.92954   0.67446   0.74740   0.00000  Uiso   1.00
C478   C     0.98720   0.54993   0.92905   0.00000  Uiso   1.00
C479   C     0.95517   0.52770   0.98600   0.00000  Uiso   1.00
C480   C     0.99120   0.55897   0.03802   0.00000  Uiso   1.00
C481   C     0.00295   0.49068   0.84313   0.00000  Uiso   1.00
C482   C     0.98415   0.41863   0.82785   0.00000  Uiso   1.00
C483   C     0.03345   0.40001   0.80755   0.00000  Uiso   1.00
H484   H     0.12928   0.65807   0.85371   0.00000  Uiso   1.00
H485   H     0.09754   0.75206   0.77306   0.00000  Uiso   1.00
H486   H     0.13985   0.67282   0.97244   0.00000  Uiso   1.00
H487   H     0.16883   0.56377   0.81431   0.00000  Uiso   1.00
H488   H     0.03338   0.83351   0.68578   0.00000  Uiso   1.00
H489   H     0.12259   0.66640   0.10620   0.00000  Uiso   1.00
H490   H     0.18371   0.43645   0.77276   0.00000  Uiso   1.00
H491   H     0.90600   0.48262   0.87007   0.00000  Uiso   1.00
H492   H     0.86201   0.56698   0.79032   0.00000  Uiso   1.00
H493   H     0.90432   0.48774   0.98971   0.00000  Uiso   1.00
H494   H     0.93330   0.37869   0.83158   0.00000  Uiso   1.00
H495   H     0.84221   0.68330   0.69979   0.00000  Uiso   1.00
H496   H     0.93143   0.51618   0.12022   0.00000  Uiso   1.00
H497   H     0.99254   0.28623   0.78678   0.00000  Uiso   1.00
O498   O     0.91288   0.81708   0.64004   0.00000  Uiso   1.00
O499   O     0.02993   0.59782   0.19162   0.00000  Uiso   1.00
O500   O     0.11012   0.29614   0.75415   0.00000  Uiso   1.00
N501   N     0.99442   0.78657   0.70001   0.00000  Uiso   1.00
N502   N     0.07783   0.63034   0.09308   0.00000  Uiso   1.00
N503   N     0.13498   0.41535   0.78136   0.00000  Uiso   1.00
N504   N     0.89156   0.70574   0.70755   0.00000  Uiso   1.00
N505   N     0.97497   0.54952   0.10062   0.00000  Uiso   1.00
N506   N     0.03211   0.33452   0.78890   0.00000  Uiso   1.00
C507   C     0.69960   0.67858   0.09619   0.00000  Uiso   1.00
C508   C     0.70482   0.62639   0.05270   0.00000  Uiso   1.00
C509   C     0.75022   0.59229   0.05946   0.00000  Uiso   1.00
C510   C     0.74694   0.54652   0.01472   0.00000  Uiso   1.00
C511   C     0.76222   0.46720   0.95473   0.00000  Uiso   1.00
C512   C     0.70610   0.75116   0.05438   0.00000  Uiso   1.00
C513   C     0.75258   0.82198   0.06255   0.00000  Uiso   1.00
C514   C     0.75037   0.88125   0.01923   0.00000  Uiso   1.00
C515   C     0.76762   0.99567   0.96187   0.00000  Uiso   1.00
C516   C     0.62854   0.64406   0.11881   0.00000  Uiso   1.00
C517   C     0.60980   0.62483   0.18115   0.00000  Uiso   1.00
C518   C     0.54229   0.59394   0.19207   0.00000  Uiso   1.00
C519   C     0.43911   0.54205   0.23475   0.00000  Uiso   1.00
C520   C     0.61302   0.65793   0.00473   0.00000  Uiso   1.00
C521   C     0.65779   0.61517   0.00302   0.00000  Uiso   1.00
C522   C     0.65444   0.56944   0.95826   0.00000  Uiso   1.00
C523   C     0.69983   0.53528   0.96495   0.00000  Uiso   1.00
C524   C     0.65908   0.73995   0.00470   0.00000  Uiso   1.00
C525   C     0.65680   0.79913   0.96136   0.00000  Uiso   1.00
C526   C     0.70326   0.87002   0.96946   0.00000  Uiso   1.00
C527   C     0.58151   0.63284   0.06913   0.00000  Uiso   1.00
C528   C     0.51402   0.60198   0.07996   0.00000  Uiso   1.00
C529   C     0.49518   0.58270   0.14230   0.00000  Uiso   1.00
H530   H     0.73621   0.68732   0.13487   0.00000  Uiso   1.00
H531   H     0.78661   0.60099   0.09791   0.00000  Uiso   1.00
H532   H     0.78896   0.83064   0.10100   0.00000  Uiso   1.00
H533   H     0.64621   0.63352   0.21958   0.00000  Uiso   1.00
H534   H     0.82177   0.50035   0.03501   0.00000  Uiso   1.00
H535   H     0.82672   0.98459   0.04155   0.00000  Uiso   1.00
H536   H     0.52569   0.56892   0.29160   0.00000  Uiso   1.00
H537   H     0.57641   0.64920   0.96605   0.00000  Uiso   1.00
H538   H     0.61804   0.56077   0.91983   0.00000  Uiso   1.00
H539   H     0.62040   0.79043   0.92292   0.00000  Uiso   1.00
H540   H     0.47764   0.59330   0.04150   0.00000  Uiso   1.00
H541   H     0.68496   0.46771   0.89047   0.00000  Uiso   1.00
H542   H     0.68990   0.95195   0.89702   0.00000  Uiso   1.00
H543   H     0.38888   0.53628   0.14706   0.00000  Uiso   1.00
O544   O     0.78365   0.42656   0.93536   0.00000  Uiso   1.00
O545   O     0.79013   0.06187   0.94396   0.00000  Uiso   1.00
O546   O     0.39519   0.51652   0.27201   0.00000  Uiso   1.00
N547   N     0.78385   0.50479   0.00734   0.00000  Uiso   1.00
N548   N     0.78848   0.95753   0.01345   0.00000  Uiso   1.00
N549   N     0.50705   0.56893   0.24723   0.00000  Uiso   1.00
N550   N     0.71023   0.48722   0.92957   0.00000  Uiso   1.00
N551   N     0.71486   0.93996   0.93568   0.00000  Uiso   1.00
N552   N     0.43343   0.55136   0.16945   0.00000  Uiso   1.00
