data_job_06301
_audit_creation_date              2018-12-19
_audit_creation_method            'Materials Studio'
_symmetry_space_group_name_H-M    'P1'
_symmetry_Int_Tables_number       1
_symmetry_cell_setting            triclinic
loop_
_symmetry_equiv_pos_as_xyz
  x,y,z
_cell_length_a                    17.1138
_cell_length_b                    17.3427
_cell_length_c                    17.3837
_cell_angle_alpha                 70.0828
_cell_angle_beta                  108.6027
_cell_angle_gamma                 70.6510
loop_
_atom_site_label
_atom_site_type_symbol
_atom_site_fract_x
_atom_site_fract_y
_atom_site_fract_z
_atom_site_U_iso_or_equiv
_atom_site_adp_type
_atom_site_occupancy
C1     C     0.59708   0.05563   0.32549   0.00000  Uiso   1.00
C2     C     0.55585   0.12141   0.35913   0.00000  Uiso   1.00
C3     C     0.59215   0.10260   0.45111   0.00000  Uiso   1.00
C4     C     0.54412   0.17186   0.46749   0.00000  Uiso   1.00
C5     C     0.49245   0.26105   0.53083   0.00000  Uiso   1.00
C6     C     0.51726   0.04115   0.27427   0.00000  Uiso   1.00
C7     C     0.52113   0.95486   0.29492   0.00000  Uiso   1.00
C8     C     0.44062   0.95657   0.23985   0.00000  Uiso   1.00
C9     C     0.32907   0.92116   0.17142   0.00000  Uiso   1.00
C10    C     0.61543   0.11155   0.25091   0.00000  Uiso   1.00
C11    C     0.70184   0.08444   0.25188   0.00000  Uiso   1.00
C12    C     0.70398   0.14541   0.17713   0.00000  Uiso   1.00
C13    C     0.74486   0.21929   0.07241   0.00000  Uiso   1.00
C14    C     0.44722   0.21210   0.19099   0.00000  Uiso   1.00
C15    C     0.47445   0.20640   0.28607   0.00000  Uiso   1.00
C16    C     0.42635   0.27571   0.30231   0.00000  Uiso   1.00
C17    C     0.46258   0.25700   0.39430   0.00000  Uiso   1.00
C18    C     0.43586   0.12614   0.20122   0.00000  Uiso   1.00
C19    C     0.35533   0.12798   0.14611   0.00000  Uiso   1.00
C20    C     0.35908   0.04171   0.16666   0.00000  Uiso   1.00
C21    C     0.53404   0.19654   0.17785   0.00000  Uiso   1.00
C22    C     0.53604   0.25756   0.10308   0.00000  Uiso   1.00
C23    C     0.62244   0.23055   0.10394   0.00000  Uiso   1.00
H24    H     0.66045   0.98946   0.38237   0.00000  Uiso   1.00
H25    H     0.65514   0.03681   0.50763   0.00000  Uiso   1.00
H26    H     0.58413   0.88910   0.35145   0.00000  Uiso   1.00
H27    H     0.76482   0.01866   0.30843   0.00000  Uiso   1.00
H28    H     0.61334   0.12677   0.61430   0.00000  Uiso   1.00
H29    H     0.46363   0.81532   0.28496   0.00000  Uiso   1.00
H30    H     0.84464   0.08852   0.19424   0.00000  Uiso   1.00
H31    H     0.38385   0.27827   0.13411   0.00000  Uiso   1.00
H32    H     0.36336   0.34147   0.24576   0.00000  Uiso   1.00
H33    H     0.29236   0.19376   0.08958   0.00000  Uiso   1.00
H34    H     0.47304   0.32332   0.04655   0.00000  Uiso   1.00
H35    H     0.37652   0.37405   0.40176   0.00000  Uiso   1.00
H36    H     0.22681   0.06259   0.07241   0.00000  Uiso   1.00
H37    H     0.60782   0.33579   0.98169   0.00000  Uiso   1.00
O38    O     0.48643   0.28676   0.58596   0.00000  Uiso   1.00
O39    O     0.29002   0.87814   0.15386   0.00000  Uiso   1.00
O40    O     0.78989   0.23658   0.03484   0.00000  Uiso   1.00
N41    N     0.56043   0.17630   0.54895   0.00000  Uiso   1.00
N42    N     0.42045   0.88511   0.24105   0.00000  Uiso   1.00
N43    N     0.77666   0.14052   0.15622   0.00000  Uiso   1.00
N44    N     0.43300   0.30936   0.43458   0.00000  Uiso   1.00
N45    N     0.29302   0.01817   0.12668   0.00000  Uiso   1.00
N46    N     0.64923   0.27358   0.04185   0.00000  Uiso   1.00
C47    C     0.05311   0.34646   0.38219   0.00000  Uiso   1.00
C48    C     0.11822   0.32152   0.48084   0.00000  Uiso   1.00
C49    C     0.09793   0.30362   0.55416   0.00000  Uiso   1.00
C50    C     0.16680   0.28207   0.63901   0.00000  Uiso   1.00
C51    C     0.25479   0.24392   0.79049   0.00000  Uiso   1.00
C52    C     0.03974   0.44015   0.31615   0.00000  Uiso   1.00
C53    C     0.95347   0.52197   0.25100   0.00000  Uiso   1.00
C54    C     0.95629   0.60027   0.19720   0.00000  Uiso   1.00
C55    C     0.92244   0.74626   0.09295   0.00000  Uiso   1.00
C56    C     0.10990   0.27332   0.36349   0.00000  Uiso   1.00
C57    C     0.08261   0.21489   0.33813   0.00000  Uiso   1.00
C58    C     0.14449   0.15274   0.32417   0.00000  Uiso   1.00
C59    C     0.21959   0.03971   0.29343   0.00000  Uiso   1.00
C60    C     0.21150   0.34002   0.40248   0.00000  Uiso   1.00
C61    C     0.20425   0.31802   0.49185   0.00000  Uiso   1.00
C62    C     0.27318   0.29649   0.57661   0.00000  Uiso   1.00
C63    C     0.25299   0.27855   0.65005   0.00000  Uiso   1.00
C64    C     0.12577   0.43665   0.32717   0.00000  Uiso   1.00
C65    C     0.12872   0.51484   0.27344   0.00000  Uiso   1.00
C66    C     0.04248   0.59676   0.20823   0.00000  Uiso   1.00
C67    C     0.19594   0.26981   0.37451   0.00000  Uiso   1.00
C68    C     0.25787   0.20775   0.36058   0.00000  Uiso   1.00
C69    C     0.23068   0.14923   0.33520   0.00000  Uiso   1.00
H70    H     0.98612   0.34920   0.37361   0.00000  Uiso   1.00
H71    H     0.03133   0.30635   0.54561   0.00000  Uiso   1.00
H72    H     0.88690   0.52466   0.24248   0.00000  Uiso   1.00
H73    H     0.01603   0.21762   0.32961   0.00000  Uiso   1.00
H74    H     0.11939   0.25733   0.74114   0.00000  Uiso   1.00
H75    H     0.81485   0.71764   0.10197   0.00000  Uiso   1.00
H76    H     0.08713   0.07019   0.28568   0.00000  Uiso   1.00
H77    H     0.27849   0.33729   0.41106   0.00000  Uiso   1.00
H78    H     0.33975   0.29378   0.58512   0.00000  Uiso   1.00
H79    H     0.19531   0.51210   0.28199   0.00000  Uiso   1.00
H80    H     0.32444   0.20506   0.36911   0.00000  Uiso   1.00
H81    H     0.36971   0.24714   0.77321   0.00000  Uiso   1.00
H82    H     0.06516   0.70745   0.13403   0.00000  Uiso   1.00
H83    H     0.33745   0.05999   0.31775   0.00000  Uiso   1.00
O84    O     0.27956   0.22386   0.87099   0.00000  Uiso   1.00
O85    O     0.88001   0.82776   0.03241   0.00000  Uiso   1.00
O86    O     0.23724   0.97832   0.27344   0.00000  Uiso   1.00
N87    N     0.16990   0.26088   0.72481   0.00000  Uiso   1.00
N88    N     0.88517   0.69125   0.12723   0.00000  Uiso   1.00
N89    N     0.13973   0.08595   0.29896   0.00000  Uiso   1.00
N90    N     0.30460   0.25540   0.74206   0.00000  Uiso   1.00
N91    N     0.01987   0.68577   0.14448   0.00000  Uiso   1.00
N92    N     0.27442   0.08047   0.31621   0.00000  Uiso   1.00
C93    C     0.34597   0.59864   0.72759   0.00000  Uiso   1.00
C94    C     0.31938   0.55831   0.80167   0.00000  Uiso   1.00
C95    C     0.30047   0.59558   0.85688   0.00000  Uiso   1.00
C96    C     0.27746   0.54827   0.92058   0.00000  Uiso   1.00
C97    C     0.23682   0.49805   0.03440   0.00000  Uiso   1.00
C98    C     0.44034   0.51921   0.75472   0.00000  Uiso   1.00
C99    C     0.52311   0.52360   0.77045   0.00000  Uiso   1.00
C100   C     0.60192   0.44339   0.79461   0.00000  Uiso   1.00
C101   C     0.74905   0.33248   0.83548   0.00000  Uiso   1.00
C102   C     0.27324   0.61541   0.63663   0.00000  Uiso   1.00
C103   C     0.21553   0.70068   0.55305   0.00000  Uiso   1.00
C104   C     0.15366   0.70145   0.47779   0.00000  Uiso   1.00
C105   C     0.04135   0.73991   0.33531   0.00000  Uiso   1.00
C106   C     0.33873   0.44837   0.74253   0.00000  Uiso   1.00
C107   C     0.31545   0.47669   0.80978   0.00000  Uiso   1.00
C108   C     0.29246   0.42932   0.87341   0.00000  Uiso   1.00
C109   C     0.27352   0.46651   0.92871   0.00000  Uiso   1.00
C110   C     0.43641   0.43759   0.76284   0.00000  Uiso   1.00
C111   C     0.51511   0.35735   0.78698   0.00000  Uiso   1.00
C112   C     0.59798   0.36162   0.80275   0.00000  Uiso   1.00
C113   C     0.26930   0.53379   0.64474   0.00000  Uiso   1.00
C114   C     0.20752   0.53442   0.56959   0.00000  Uiso   1.00
C115   C     0.14973   0.61968   0.48592   0.00000  Uiso   1.00
H116   H     0.34903   0.66218   0.72127   0.00000  Uiso   1.00
H117   H     0.30353   0.65874   0.85059   0.00000  Uiso   1.00
H118   H     0.52613   0.58678   0.76415   0.00000  Uiso   1.00
H119   H     0.21859   0.76383   0.54680   0.00000  Uiso   1.00
H120   H     0.25138   0.61891   0.99756   0.00000  Uiso   1.00
H121   H     0.72074   0.46719   0.81528   0.00000  Uiso   1.00
H122   H     0.07224   0.84054   0.35695   0.00000  Uiso   1.00
H123   H     0.33567   0.38482   0.74885   0.00000  Uiso   1.00
H124   H     0.28943   0.36616   0.87968   0.00000  Uiso   1.00
H125   H     0.51204   0.29420   0.79325   0.00000  Uiso   1.00
H126   H     0.20450   0.47125   0.57590   0.00000  Uiso   1.00
H127   H     0.23994   0.38144   0.02117   0.00000  Uiso   1.00
H128   H     0.70930   0.22972   0.83889   0.00000  Uiso   1.00
H129   H     0.06080   0.60307   0.38056   0.00000  Uiso   1.00
O130   O     0.21551   0.49288   0.09495   0.00000  Uiso   1.00
O131   O     0.83129   0.29385   0.85579   0.00000  Uiso   1.00
O132   O     0.98047   0.78367   0.25448   0.00000  Uiso   1.00
N133   N     0.25501   0.56559   0.98515   0.00000  Uiso   1.00
N134   N     0.69384   0.42374   0.81474   0.00000  Uiso   1.00
N135   N     0.08757   0.77278   0.38623   0.00000  Uiso   1.00
N136   N     0.24885   0.43781   0.99785   0.00000  Uiso   1.00
N137   N     0.68769   0.29596   0.82745   0.00000  Uiso   1.00
N138   N     0.08141   0.64500   0.39894   0.00000  Uiso   1.00
C139   C     0.40292   0.94437   0.67451   0.00000  Uiso   1.00
C140   C     0.44415   0.87859   0.64087   0.00000  Uiso   1.00
C141   C     0.40785   0.89741   0.54889   0.00000  Uiso   1.00
C142   C     0.45588   0.82814   0.53251   0.00000  Uiso   1.00
C143   C     0.50755   0.73895   0.46917   0.00000  Uiso   1.00
C144   C     0.48274   0.95885   0.72573   0.00000  Uiso   1.00
C145   C     0.47887   0.04514   0.70508   0.00000  Uiso   1.00
C146   C     0.55938   0.04343   0.76015   0.00000  Uiso   1.00
C147   C     0.67093   0.07884   0.82858   0.00000  Uiso   1.00
C148   C     0.38457   0.88845   0.74909   0.00000  Uiso   1.00
C149   C     0.29816   0.91557   0.74812   0.00000  Uiso   1.00
C150   C     0.29602   0.85460   0.82287   0.00000  Uiso   1.00
C151   C     0.25514   0.78071   0.92759   0.00000  Uiso   1.00
C152   C     0.55278   0.78790   0.80901   0.00000  Uiso   1.00
C153   C     0.52555   0.79360   0.71393   0.00000  Uiso   1.00
C154   C     0.57365   0.72429   0.69769   0.00000  Uiso   1.00
C155   C     0.53742   0.74300   0.60570   0.00000  Uiso   1.00
C156   C     0.56414   0.87386   0.79878   0.00000  Uiso   1.00
C157   C     0.64467   0.87202   0.85389   0.00000  Uiso   1.00
C158   C     0.64093   0.95829   0.83334   0.00000  Uiso   1.00
C159   C     0.46596   0.80346   0.82215   0.00000  Uiso   1.00
C160   C     0.46396   0.74244   0.89692   0.00000  Uiso   1.00
C161   C     0.37756   0.76946   0.89606   0.00000  Uiso   1.00
H162   H     0.33955   0.01054   0.61763   0.00000  Uiso   1.00
H163   H     0.34486   0.96319   0.49237   0.00000  Uiso   1.00
H164   H     0.41587   0.11090   0.64855   0.00000  Uiso   1.00
H165   H     0.23519   0.98134   0.69157   0.00000  Uiso   1.00
H166   H     0.38666   0.87323   0.38570   0.00000  Uiso   1.00
H167   H     0.53637   0.18468   0.71504   0.00000  Uiso   1.00
H168   H     0.15536   0.91148   0.80576   0.00000  Uiso   1.00
H169   H     0.61615   0.72173   0.86589   0.00000  Uiso   1.00
H170   H     0.63664   0.65853   0.75424   0.00000  Uiso   1.00
H171   H     0.70764   0.80624   0.91042   0.00000  Uiso   1.00
H172   H     0.52696   0.67668   0.95344   0.00000  Uiso   1.00
H173   H     0.62348   0.62595   0.59824   0.00000  Uiso   1.00
H174   H     0.77319   0.93741   0.92759   0.00000  Uiso   1.00
H175   H     0.39218   0.66421   0.01831   0.00000  Uiso   1.00
O176   O     0.51357   0.71324   0.41404   0.00000  Uiso   1.00
O177   O     0.70998   0.12186   0.84614   0.00000  Uiso   1.00
O178   O     0.21011   0.76342   0.96516   0.00000  Uiso   1.00
N179   N     0.43957   0.82370   0.45105   0.00000  Uiso   1.00
N180   N     0.57955   0.11489   0.75895   0.00000  Uiso   1.00
N181   N     0.22334   0.85948   0.84378   0.00000  Uiso   1.00
N182   N     0.56700   0.69064   0.56542   0.00000  Uiso   1.00
N183   N     0.70698   0.98183   0.87332   0.00000  Uiso   1.00
N184   N     0.35077   0.72643   0.95815   0.00000  Uiso   1.00
C185   C     0.94689   0.65354   0.61781   0.00000  Uiso   1.00
C186   C     0.88178   0.67848   0.51916   0.00000  Uiso   1.00
C187   C     0.90207   0.69638   0.44584   0.00000  Uiso   1.00
C188   C     0.83320   0.71793   0.36099   0.00000  Uiso   1.00
C189   C     0.74521   0.75608   0.20951   0.00000  Uiso   1.00
C190   C     0.96026   0.55986   0.68385   0.00000  Uiso   1.00
C191   C     0.04653   0.47803   0.74900   0.00000  Uiso   1.00
C192   C     0.04371   0.39973   0.80280   0.00000  Uiso   1.00
C193   C     0.07756   0.25374   0.90705   0.00000  Uiso   1.00
C194   C     0.89010   0.72668   0.63651   0.00000  Uiso   1.00
C195   C     0.91739   0.78511   0.66187   0.00000  Uiso   1.00
C196   C     0.85551   0.84726   0.67583   0.00000  Uiso   1.00
C197   C     0.78041   0.96029   0.70657   0.00000  Uiso   1.00
C198   C     0.78850   0.65998   0.59752   0.00000  Uiso   1.00
C199   C     0.79575   0.68198   0.50815   0.00000  Uiso   1.00
C200   C     0.72682   0.70351   0.42339   0.00000  Uiso   1.00
C201   C     0.74701   0.72145   0.34995   0.00000  Uiso   1.00
C202   C     0.87423   0.56335   0.67283   0.00000  Uiso   1.00
C203   C     0.87128   0.48516   0.72655   0.00000  Uiso   1.00
C204   C     0.95752   0.40324   0.79177   0.00000  Uiso   1.00
C205   C     0.80406   0.73019   0.62549   0.00000  Uiso   1.00
C206   C     0.74213   0.79225   0.63942   0.00000  Uiso   1.00
C207   C     0.76932   0.85077   0.66480   0.00000  Uiso   1.00
H208   H     0.01388   0.65080   0.62639   0.00000  Uiso   1.00
H209   H     0.96867   0.69365   0.45439   0.00000  Uiso   1.00
H210   H     0.11310   0.47534   0.75752   0.00000  Uiso   1.00
H211   H     0.98397   0.78238   0.67039   0.00000  Uiso   1.00
H212   H     0.88061   0.74267   0.25886   0.00000  Uiso   1.00
H213   H     0.18516   0.28236   0.89803   0.00000  Uiso   1.00
H214   H     0.91287   0.92981   0.71432   0.00000  Uiso   1.00
H215   H     0.72151   0.66271   0.58894   0.00000  Uiso   1.00
H216   H     0.66025   0.70622   0.41488   0.00000  Uiso   1.00
H217   H     0.80469   0.48790   0.71801   0.00000  Uiso   1.00
H218   H     0.67556   0.79494   0.63089   0.00000  Uiso   1.00
H219   H     0.63030   0.75286   0.22679   0.00000  Uiso   1.00
H220   H     0.93484   0.29255   0.86597   0.00000  Uiso   1.00
H221   H     0.66255   0.94001   0.68225   0.00000  Uiso   1.00
O222   O     0.72045   0.77614   0.12901   0.00000  Uiso   1.00
O223   O     0.11999   0.17224   0.96759   0.00000  Uiso   1.00
O224   O     0.76276   0.02168   0.72656   0.00000  Uiso   1.00
N225   N     0.83010   0.73912   0.27519   0.00000  Uiso   1.00
N226   N     0.11483   0.30875   0.87277   0.00000  Uiso   1.00
N227   N     0.86027   0.91405   0.70104   0.00000  Uiso   1.00
N228   N     0.69541   0.74460   0.25794   0.00000  Uiso   1.00
N229   N     0.98013   0.31423   0.85552   0.00000  Uiso   1.00
N230   N     0.72558   0.91953   0.68379   0.00000  Uiso   1.00
C231   C     0.65403   0.40136   0.27241   0.00000  Uiso   1.00
C232   C     0.68062   0.44169   0.19833   0.00000  Uiso   1.00
C233   C     0.69953   0.40443   0.14312   0.00000  Uiso   1.00
C234   C     0.72254   0.45173   0.07942   0.00000  Uiso   1.00
C235   C     0.76318   0.50195   0.96560   0.00000  Uiso   1.00
C236   C     0.55966   0.48079   0.24528   0.00000  Uiso   1.00
C237   C     0.47689   0.47640   0.22955   0.00000  Uiso   1.00
C238   C     0.39808   0.55661   0.20539   0.00000  Uiso   1.00
C239   C     0.25095   0.66752   0.16452   0.00000  Uiso   1.00
C240   C     0.72676   0.38459   0.36337   0.00000  Uiso   1.00
C241   C     0.78447   0.29932   0.44695   0.00000  Uiso   1.00
C242   C     0.84634   0.29855   0.52221   0.00000  Uiso   1.00
C243   C     0.95865   0.26009   0.66469   0.00000  Uiso   1.00
C244   C     0.66127   0.55163   0.25747   0.00000  Uiso   1.00
C245   C     0.68455   0.52331   0.19022   0.00000  Uiso   1.00
C246   C     0.70754   0.57068   0.12659   0.00000  Uiso   1.00
C247   C     0.72648   0.53349   0.07129   0.00000  Uiso   1.00
C248   C     0.56359   0.56241   0.23716   0.00000  Uiso   1.00
C249   C     0.48489   0.64265   0.21302   0.00000  Uiso   1.00
C250   C     0.40202   0.63838   0.19725   0.00000  Uiso   1.00
C251   C     0.73070   0.46621   0.35526   0.00000  Uiso   1.00
C252   C     0.79248   0.46558   0.43041   0.00000  Uiso   1.00
C253   C     0.85027   0.38032   0.51408   0.00000  Uiso   1.00
H254   H     0.65097   0.33782   0.27873   0.00000  Uiso   1.00
H255   H     0.69647   0.34126   0.14941   0.00000  Uiso   1.00
H256   H     0.47387   0.41322   0.23585   0.00000  Uiso   1.00
H257   H     0.78141   0.23617   0.45320   0.00000  Uiso   1.00
H258   H     0.74862   0.38109   0.00244   0.00000  Uiso   1.00
H259   H     0.27926   0.53281   0.18472   0.00000  Uiso   1.00
H260   H     0.92776   0.15946   0.64305   0.00000  Uiso   1.00
H261   H     0.66433   0.61518   0.25115   0.00000  Uiso   1.00
H262   H     0.71057   0.63384   0.12032   0.00000  Uiso   1.00
H263   H     0.48796   0.70580   0.20675   0.00000  Uiso   1.00
H264   H     0.79550   0.52875   0.42410   0.00000  Uiso   1.00
H265   H     0.76006   0.61856   0.97883   0.00000  Uiso   1.00
H266   H     0.29070   0.77028   0.16111   0.00000  Uiso   1.00
H267   H     0.93920   0.39693   0.61944   0.00000  Uiso   1.00
O268   O     0.78449   0.50712   0.90505   0.00000  Uiso   1.00
O269   O     0.16871   0.70615   0.14421   0.00000  Uiso   1.00
O270   O     0.01953   0.21634   0.74552   0.00000  Uiso   1.00
N271   N     0.74499   0.43441   0.01485   0.00000  Uiso   1.00
N272   N     0.30616   0.57626   0.18526   0.00000  Uiso   1.00
N273   N     0.91243   0.22722   0.61377   0.00000  Uiso   1.00
N274   N     0.75115   0.56219   0.00214   0.00000  Uiso   1.00
N275   N     0.31231   0.70404   0.17255   0.00000  Uiso   1.00
N276   N     0.91859   0.35500   0.60106   0.00000  Uiso   1.00
