data_job_01505
_audit_creation_date              2018-12-19
_audit_creation_method            'Materials Studio'
_symmetry_space_group_name_H-M    'P1'
_symmetry_Int_Tables_number       1
_symmetry_cell_setting            triclinic
loop_
_symmetry_equiv_pos_as_xyz
  x,y,z
_cell_length_a                    26.7123
_cell_length_b                    13.0311
_cell_length_c                    23.2616
_cell_angle_alpha                 90.0000
_cell_angle_beta                  90.0000
_cell_angle_gamma                 90.0000
loop_
_atom_site_label
_atom_site_type_symbol
_atom_site_fract_x
_atom_site_fract_y
_atom_site_fract_z
_atom_site_U_iso_or_equiv
_atom_site_adp_type
_atom_site_occupancy
C1     C     0.09641   0.13769   0.65798   0.00000  Uiso   1.00
C2     C     0.05395   0.06074   0.65007   0.00000  Uiso   1.00
C3     C     0.00379   0.08494   0.64250   0.00000  Uiso   1.00
C4     C     0.97076   0.00349   0.63603   0.00000  Uiso   1.00
C5     C     0.90231   0.89951   0.62362   0.00000  Uiso   1.00
C6     C     0.12186   0.10934   0.71447   0.00000  Uiso   1.00
C7     C     0.12880   0.17440   0.76103   0.00000  Uiso   1.00
C8     C     0.15294   0.13386   0.80876   0.00000  Uiso   1.00
C9     C     0.18996   0.10536   0.89631   0.00000  Uiso   1.00
C10    C     0.13434   0.11439   0.61076   0.00000  Uiso   1.00
C11    C     0.15178   0.18369   0.57013   0.00000  Uiso   1.00
C12    C     0.18644   0.14741   0.53056   0.00000  Uiso   1.00
C13    C     0.24282   0.12674   0.45708   0.00000  Uiso   1.00
C14    C     0.12695   0.95003   0.65996   0.00000  Uiso   1.00
C15    C     0.07054   0.95881   0.65115   0.00000  Uiso   1.00
C16    C     0.03758   0.87731   0.64469   0.00000  Uiso   1.00
C17    C     0.98737   0.90138   0.63710   0.00000  Uiso   1.00
C18    C     0.13845   0.00741   0.71555   0.00000  Uiso   1.00
C19    C     0.16259   0.96677   0.76322   0.00000  Uiso   1.00
C20    C     0.16956   0.03175   0.80984   0.00000  Uiso   1.00
C21    C     0.15092   0.01245   0.61183   0.00000  Uiso   1.00
C22    C     0.18556   0.97606   0.57232   0.00000  Uiso   1.00
C23    C     0.20305   0.04530   0.53164   0.00000  Uiso   1.00
H24    H     0.08350   0.21705   0.65714   0.00000  Uiso   1.00
H25    H     0.99097   0.16383   0.64167   0.00000  Uiso   1.00
H26    H     0.11597   0.25328   0.76018   0.00000  Uiso   1.00
H27    H     0.13894   0.26256   0.56931   0.00000  Uiso   1.00
H28    H     0.89570   0.05987   0.62501   0.00000  Uiso   1.00
H29    H     0.15927   0.24849   0.87489   0.00000  Uiso   1.00
H30    H     0.20772   0.26808   0.47240   0.00000  Uiso   1.00
H31    H     0.13986   0.87067   0.66080   0.00000  Uiso   1.00
H32    H     0.05042   0.79844   0.64552   0.00000  Uiso   1.00
H33    H     0.17542   0.88789   0.76404   0.00000  Uiso   1.00
H34    H     0.19839   0.89718   0.57317   0.00000  Uiso   1.00
H35    H     0.94395   0.76331   0.62814   0.00000  Uiso   1.00
H36    H     0.20753   0.95193   0.87802   0.00000  Uiso   1.00
H37    H     0.25597   0.97152   0.47553   0.00000  Uiso   1.00
O38    O     0.85997   0.87032   0.61648   0.00000  Uiso   1.00
O39    O     0.20578   0.11780   0.94430   0.00000  Uiso   1.00
O40    O     0.26933   0.14349   0.41625   0.00000  Uiso   1.00
N41    N     0.91933   0.99999   0.62783   0.00000  Uiso   1.00
N42    N     0.16575   0.17633   0.86146   0.00000  Uiso   1.00
N43    N     0.21105   0.19465   0.48517   0.00000  Uiso   1.00
N44    N     0.94529   0.84041   0.62952   0.00000  Uiso   1.00
N45    N     0.19172   0.01676   0.86314   0.00000  Uiso   1.00
N46    N     0.23702   0.03508   0.48686   0.00000  Uiso   1.00
C47    C     0.40359   0.86231   0.15798   0.00000  Uiso   1.00
C48    C     0.44605   0.93926   0.15007   0.00000  Uiso   1.00
C49    C     0.49621   0.91506   0.14250   0.00000  Uiso   1.00
C50    C     0.52924   0.99651   0.13603   0.00000  Uiso   1.00
C51    C     0.59769   0.10049   0.12362   0.00000  Uiso   1.00
C52    C     0.37814   0.89066   0.21447   0.00000  Uiso   1.00
C53    C     0.37120   0.82560   0.26103   0.00000  Uiso   1.00
C54    C     0.34706   0.86614   0.30876   0.00000  Uiso   1.00
C55    C     0.31004   0.89464   0.39631   0.00000  Uiso   1.00
C56    C     0.36566   0.88561   0.11076   0.00000  Uiso   1.00
C57    C     0.34822   0.81631   0.07013   0.00000  Uiso   1.00
C58    C     0.31356   0.85259   0.03056   0.00000  Uiso   1.00
C59    C     0.25718   0.87326   0.95708   0.00000  Uiso   1.00
C60    C     0.37305   0.04997   0.15996   0.00000  Uiso   1.00
C61    C     0.42946   0.04119   0.15115   0.00000  Uiso   1.00
C62    C     0.46242   0.12269   0.14469   0.00000  Uiso   1.00
C63    C     0.51263   0.09862   0.13710   0.00000  Uiso   1.00
C64    C     0.36155   0.99259   0.21555   0.00000  Uiso   1.00
C65    C     0.33741   0.03323   0.26322   0.00000  Uiso   1.00
C66    C     0.33044   0.96825   0.30984   0.00000  Uiso   1.00
C67    C     0.34908   0.98755   0.11183   0.00000  Uiso   1.00
C68    C     0.31444   0.02394   0.07232   0.00000  Uiso   1.00
C69    C     0.29695   0.95470   0.03164   0.00000  Uiso   1.00
H70    H     0.41650   0.78295   0.15714   0.00000  Uiso   1.00
H71    H     0.50903   0.83617   0.14167   0.00000  Uiso   1.00
H72    H     0.38403   0.74672   0.26018   0.00000  Uiso   1.00
H73    H     0.36106   0.73744   0.06931   0.00000  Uiso   1.00
H74    H     0.60430   0.94013   0.12501   0.00000  Uiso   1.00
H75    H     0.34073   0.75151   0.37489   0.00000  Uiso   1.00
H76    H     0.29228   0.73192   0.97240   0.00000  Uiso   1.00
H77    H     0.36014   0.12933   0.16080   0.00000  Uiso   1.00
H78    H     0.44958   0.20156   0.14552   0.00000  Uiso   1.00
H79    H     0.32458   0.11211   0.26404   0.00000  Uiso   1.00
H80    H     0.30161   0.10282   0.07317   0.00000  Uiso   1.00
H81    H     0.55605   0.23669   0.12814   0.00000  Uiso   1.00
H82    H     0.29247   0.04807   0.37802   0.00000  Uiso   1.00
H83    H     0.24403   0.02848   0.97553   0.00000  Uiso   1.00
O84    O     0.64003   0.12968   0.11648   0.00000  Uiso   1.00
O85    O     0.29422   0.88220   0.44430   0.00000  Uiso   1.00
O86    O     0.23067   0.85651   0.91625   0.00000  Uiso   1.00
N87    N     0.58067   0.00001   0.12783   0.00000  Uiso   1.00
N88    N     0.33425   0.82367   0.36146   0.00000  Uiso   1.00
N89    N     0.28895   0.80535   0.98517   0.00000  Uiso   1.00
N90    N     0.55471   0.15959   0.12952   0.00000  Uiso   1.00
N91    N     0.30828   0.98324   0.36314   0.00000  Uiso   1.00
N92    N     0.26298   0.96492   0.98686   0.00000  Uiso   1.00
C93    C     0.90359   0.63769   0.84202   0.00000  Uiso   1.00
C94    C     0.94605   0.56074   0.84993   0.00000  Uiso   1.00
C95    C     0.99621   0.58494   0.85750   0.00000  Uiso   1.00
C96    C     0.02924   0.50349   0.86397   0.00000  Uiso   1.00
C97    C     0.09769   0.39951   0.87638   0.00000  Uiso   1.00
C98    C     0.87814   0.60934   0.78553   0.00000  Uiso   1.00
C99    C     0.87120   0.67440   0.73897   0.00000  Uiso   1.00
C100   C     0.84706   0.63386   0.69124   0.00000  Uiso   1.00
C101   C     0.81004   0.60536   0.60369   0.00000  Uiso   1.00
C102   C     0.86566   0.61439   0.88924   0.00000  Uiso   1.00
C103   C     0.84822   0.68369   0.92987   0.00000  Uiso   1.00
C104   C     0.81356   0.64741   0.96944   0.00000  Uiso   1.00
C105   C     0.75718   0.62674   0.04292   0.00000  Uiso   1.00
C106   C     0.87305   0.45003   0.84004   0.00000  Uiso   1.00
C107   C     0.92946   0.45881   0.84885   0.00000  Uiso   1.00
C108   C     0.96242   0.37731   0.85531   0.00000  Uiso   1.00
C109   C     0.01263   0.40138   0.86290   0.00000  Uiso   1.00
C110   C     0.86155   0.50741   0.78445   0.00000  Uiso   1.00
C111   C     0.83741   0.46677   0.73678   0.00000  Uiso   1.00
C112   C     0.83044   0.53175   0.69016   0.00000  Uiso   1.00
C113   C     0.84908   0.51245   0.88817   0.00000  Uiso   1.00
C114   C     0.81444   0.47606   0.92768   0.00000  Uiso   1.00
C115   C     0.79695   0.54530   0.96836   0.00000  Uiso   1.00
H116   H     0.91650   0.71705   0.84286   0.00000  Uiso   1.00
H117   H     0.00903   0.66383   0.85833   0.00000  Uiso   1.00
H118   H     0.88403   0.75328   0.73982   0.00000  Uiso   1.00
H119   H     0.86106   0.76256   0.93069   0.00000  Uiso   1.00
H120   H     0.10430   0.55987   0.87499   0.00000  Uiso   1.00
H121   H     0.84073   0.74849   0.62511   0.00000  Uiso   1.00
H122   H     0.79228   0.76808   0.02760   0.00000  Uiso   1.00
H123   H     0.86014   0.37067   0.83920   0.00000  Uiso   1.00
H124   H     0.94958   0.29844   0.85448   0.00000  Uiso   1.00
H125   H     0.82458   0.38789   0.73596   0.00000  Uiso   1.00
H126   H     0.80161   0.39718   0.92683   0.00000  Uiso   1.00
H127   H     0.05605   0.26331   0.87186   0.00000  Uiso   1.00
H128   H     0.79247   0.45193   0.62198   0.00000  Uiso   1.00
H129   H     0.74403   0.47152   0.02447   0.00000  Uiso   1.00
O130   O     0.14003   0.37032   0.88352   0.00000  Uiso   1.00
O131   O     0.79422   0.61780   0.55570   0.00000  Uiso   1.00
O132   O     0.73067   0.64349   0.08375   0.00000  Uiso   1.00
N133   N     0.08067   0.49999   0.87217   0.00000  Uiso   1.00
N134   N     0.83425   0.67633   0.63854   0.00000  Uiso   1.00
N135   N     0.78895   0.69465   0.01483   0.00000  Uiso   1.00
N136   N     0.05471   0.34041   0.87048   0.00000  Uiso   1.00
N137   N     0.80828   0.51676   0.63686   0.00000  Uiso   1.00
N138   N     0.76298   0.53508   0.01314   0.00000  Uiso   1.00
C139   C     0.59641   0.36231   0.34202   0.00000  Uiso   1.00
C140   C     0.55395   0.43926   0.34993   0.00000  Uiso   1.00
C141   C     0.50379   0.41506   0.35750   0.00000  Uiso   1.00
C142   C     0.47076   0.49651   0.36397   0.00000  Uiso   1.00
C143   C     0.40231   0.60049   0.37638   0.00000  Uiso   1.00
C144   C     0.62186   0.39066   0.28553   0.00000  Uiso   1.00
C145   C     0.62880   0.32560   0.23897   0.00000  Uiso   1.00
C146   C     0.65294   0.36614   0.19124   0.00000  Uiso   1.00
C147   C     0.68996   0.39464   0.10369   0.00000  Uiso   1.00
C148   C     0.63434   0.38561   0.38924   0.00000  Uiso   1.00
C149   C     0.65178   0.31631   0.42987   0.00000  Uiso   1.00
C150   C     0.68644   0.35259   0.46944   0.00000  Uiso   1.00
C151   C     0.74282   0.37326   0.54292   0.00000  Uiso   1.00
C152   C     0.62695   0.54997   0.34004   0.00000  Uiso   1.00
C153   C     0.57054   0.54119   0.34885   0.00000  Uiso   1.00
C154   C     0.53758   0.62269   0.35531   0.00000  Uiso   1.00
C155   C     0.48737   0.59862   0.36290   0.00000  Uiso   1.00
C156   C     0.63845   0.49259   0.28445   0.00000  Uiso   1.00
C157   C     0.66259   0.53323   0.23678   0.00000  Uiso   1.00
C158   C     0.66956   0.46825   0.19016   0.00000  Uiso   1.00
C159   C     0.65092   0.48755   0.38817   0.00000  Uiso   1.00
C160   C     0.68556   0.52394   0.42768   0.00000  Uiso   1.00
C161   C     0.70305   0.45470   0.46836   0.00000  Uiso   1.00
H162   H     0.58350   0.28295   0.34286   0.00000  Uiso   1.00
H163   H     0.49097   0.33617   0.35833   0.00000  Uiso   1.00
H164   H     0.61597   0.24672   0.23982   0.00000  Uiso   1.00
H165   H     0.63894   0.23744   0.43069   0.00000  Uiso   1.00
H166   H     0.39570   0.44013   0.37499   0.00000  Uiso   1.00
H167   H     0.65927   0.25151   0.12511   0.00000  Uiso   1.00
H168   H     0.70772   0.23192   0.52760   0.00000  Uiso   1.00
H169   H     0.63986   0.62933   0.33920   0.00000  Uiso   1.00
H170   H     0.55042   0.70156   0.35448   0.00000  Uiso   1.00
H171   H     0.67542   0.61211   0.23596   0.00000  Uiso   1.00
H172   H     0.69839   0.60282   0.42683   0.00000  Uiso   1.00
H173   H     0.44395   0.73669   0.37186   0.00000  Uiso   1.00
H174   H     0.70753   0.54807   0.12198   0.00000  Uiso   1.00
H175   H     0.75597   0.52848   0.52447   0.00000  Uiso   1.00
O176   O     0.35997   0.62968   0.38352   0.00000  Uiso   1.00
O177   O     0.70578   0.38220   0.05570   0.00000  Uiso   1.00
O178   O     0.76933   0.35651   0.58375   0.00000  Uiso   1.00
N179   N     0.41933   0.50001   0.37217   0.00000  Uiso   1.00
N180   N     0.66575   0.32367   0.13854   0.00000  Uiso   1.00
N181   N     0.71105   0.30535   0.51483   0.00000  Uiso   1.00
N182   N     0.44529   0.65959   0.37048   0.00000  Uiso   1.00
N183   N     0.69172   0.48324   0.13686   0.00000  Uiso   1.00
N184   N     0.73702   0.46492   0.51314   0.00000  Uiso   1.00
C185   C     0.90359   0.86231   0.34202   0.00000  Uiso   1.00
C186   C     0.94605   0.93926   0.34993   0.00000  Uiso   1.00
C187   C     0.99621   0.91506   0.35750   0.00000  Uiso   1.00
C188   C     0.02924   0.99651   0.36397   0.00000  Uiso   1.00
C189   C     0.09769   0.10049   0.37638   0.00000  Uiso   1.00
C190   C     0.87814   0.89066   0.28553   0.00000  Uiso   1.00
C191   C     0.87120   0.82560   0.23897   0.00000  Uiso   1.00
C192   C     0.84706   0.86614   0.19124   0.00000  Uiso   1.00
C193   C     0.81004   0.89464   0.10369   0.00000  Uiso   1.00
C194   C     0.86566   0.88561   0.38924   0.00000  Uiso   1.00
C195   C     0.84822   0.81631   0.42987   0.00000  Uiso   1.00
C196   C     0.81356   0.85259   0.46944   0.00000  Uiso   1.00
C197   C     0.75718   0.87326   0.54292   0.00000  Uiso   1.00
C198   C     0.87305   0.04997   0.34004   0.00000  Uiso   1.00
C199   C     0.92946   0.04119   0.34885   0.00000  Uiso   1.00
C200   C     0.96242   0.12269   0.35531   0.00000  Uiso   1.00
C201   C     0.01263   0.09862   0.36290   0.00000  Uiso   1.00
C202   C     0.86155   0.99259   0.28445   0.00000  Uiso   1.00
C203   C     0.83741   0.03323   0.23678   0.00000  Uiso   1.00
C204   C     0.83044   0.96825   0.19016   0.00000  Uiso   1.00
C205   C     0.84908   0.98755   0.38817   0.00000  Uiso   1.00
C206   C     0.81444   0.02394   0.42768   0.00000  Uiso   1.00
C207   C     0.79695   0.95470   0.46836   0.00000  Uiso   1.00
H208   H     0.91650   0.78295   0.34286   0.00000  Uiso   1.00
H209   H     0.00903   0.83617   0.35833   0.00000  Uiso   1.00
H210   H     0.88403   0.74672   0.23982   0.00000  Uiso   1.00
H211   H     0.86106   0.73744   0.43069   0.00000  Uiso   1.00
H212   H     0.10430   0.94013   0.37499   0.00000  Uiso   1.00
H213   H     0.84073   0.75151   0.12511   0.00000  Uiso   1.00
H214   H     0.79228   0.73192   0.52760   0.00000  Uiso   1.00
H215   H     0.86014   0.12933   0.33920   0.00000  Uiso   1.00
H216   H     0.94958   0.20156   0.35448   0.00000  Uiso   1.00
H217   H     0.82458   0.11211   0.23596   0.00000  Uiso   1.00
H218   H     0.80161   0.10282   0.42683   0.00000  Uiso   1.00
H219   H     0.05605   0.23669   0.37186   0.00000  Uiso   1.00
H220   H     0.79247   0.04807   0.12198   0.00000  Uiso   1.00
H221   H     0.74403   0.02848   0.52447   0.00000  Uiso   1.00
O222   O     0.14003   0.12968   0.38352   0.00000  Uiso   1.00
O223   O     0.79422   0.88220   0.05570   0.00000  Uiso   1.00
O224   O     0.73067   0.85651   0.58375   0.00000  Uiso   1.00
N225   N     0.08067   0.00001   0.37217   0.00000  Uiso   1.00
N226   N     0.83425   0.82367   0.13854   0.00000  Uiso   1.00
N227   N     0.78895   0.80535   0.51483   0.00000  Uiso   1.00
N228   N     0.05471   0.15959   0.37048   0.00000  Uiso   1.00
N229   N     0.80828   0.98324   0.13686   0.00000  Uiso   1.00
N230   N     0.76298   0.96492   0.51314   0.00000  Uiso   1.00
C231   C     0.59641   0.13769   0.84202   0.00000  Uiso   1.00
C232   C     0.55395   0.06074   0.84993   0.00000  Uiso   1.00
C233   C     0.50379   0.08494   0.85750   0.00000  Uiso   1.00
C234   C     0.47076   0.00349   0.86397   0.00000  Uiso   1.00
C235   C     0.40231   0.89951   0.87638   0.00000  Uiso   1.00
C236   C     0.62186   0.10934   0.78553   0.00000  Uiso   1.00
C237   C     0.62880   0.17440   0.73897   0.00000  Uiso   1.00
C238   C     0.65294   0.13386   0.69124   0.00000  Uiso   1.00
C239   C     0.68996   0.10536   0.60369   0.00000  Uiso   1.00
C240   C     0.63434   0.11439   0.88924   0.00000  Uiso   1.00
C241   C     0.65178   0.18369   0.92987   0.00000  Uiso   1.00
C242   C     0.68644   0.14741   0.96944   0.00000  Uiso   1.00
C243   C     0.74282   0.12674   0.04292   0.00000  Uiso   1.00
C244   C     0.62695   0.95003   0.84004   0.00000  Uiso   1.00
C245   C     0.57054   0.95881   0.84885   0.00000  Uiso   1.00
C246   C     0.53758   0.87731   0.85531   0.00000  Uiso   1.00
C247   C     0.48737   0.90138   0.86290   0.00000  Uiso   1.00
C248   C     0.63845   0.00741   0.78445   0.00000  Uiso   1.00
C249   C     0.66259   0.96677   0.73678   0.00000  Uiso   1.00
C250   C     0.66956   0.03175   0.69016   0.00000  Uiso   1.00
C251   C     0.65092   0.01245   0.88817   0.00000  Uiso   1.00
C252   C     0.68556   0.97606   0.92768   0.00000  Uiso   1.00
C253   C     0.70305   0.04530   0.96836   0.00000  Uiso   1.00
H254   H     0.58350   0.21705   0.84286   0.00000  Uiso   1.00
H255   H     0.49097   0.16383   0.85833   0.00000  Uiso   1.00
H256   H     0.61597   0.25328   0.73982   0.00000  Uiso   1.00
H257   H     0.63894   0.26256   0.93069   0.00000  Uiso   1.00
H258   H     0.39570   0.05987   0.87499   0.00000  Uiso   1.00
H259   H     0.65927   0.24849   0.62511   0.00000  Uiso   1.00
H260   H     0.70772   0.26808   0.02760   0.00000  Uiso   1.00
H261   H     0.63986   0.87067   0.83920   0.00000  Uiso   1.00
H262   H     0.55042   0.79844   0.85448   0.00000  Uiso   1.00
H263   H     0.67542   0.88789   0.73596   0.00000  Uiso   1.00
H264   H     0.69839   0.89718   0.92683   0.00000  Uiso   1.00
H265   H     0.44395   0.76331   0.87186   0.00000  Uiso   1.00
H266   H     0.70753   0.95193   0.62198   0.00000  Uiso   1.00
H267   H     0.75597   0.97152   0.02447   0.00000  Uiso   1.00
O268   O     0.35997   0.87032   0.88352   0.00000  Uiso   1.00
O269   O     0.70578   0.11780   0.55570   0.00000  Uiso   1.00
O270   O     0.76933   0.14349   0.08375   0.00000  Uiso   1.00
N271   N     0.41933   0.99999   0.87217   0.00000  Uiso   1.00
N272   N     0.66575   0.17633   0.63854   0.00000  Uiso   1.00
N273   N     0.71105   0.19465   0.01483   0.00000  Uiso   1.00
N274   N     0.44529   0.84041   0.87048   0.00000  Uiso   1.00
N275   N     0.69172   0.01676   0.63686   0.00000  Uiso   1.00
N276   N     0.73702   0.03508   0.01314   0.00000  Uiso   1.00
C277   C     0.09641   0.36231   0.15798   0.00000  Uiso   1.00
C278   C     0.05395   0.43926   0.15007   0.00000  Uiso   1.00
C279   C     0.00379   0.41506   0.14250   0.00000  Uiso   1.00
C280   C     0.97076   0.49651   0.13603   0.00000  Uiso   1.00
C281   C     0.90231   0.60049   0.12362   0.00000  Uiso   1.00
C282   C     0.12186   0.39066   0.21447   0.00000  Uiso   1.00
C283   C     0.12880   0.32560   0.26103   0.00000  Uiso   1.00
C284   C     0.15294   0.36614   0.30876   0.00000  Uiso   1.00
C285   C     0.18996   0.39464   0.39631   0.00000  Uiso   1.00
C286   C     0.13434   0.38561   0.11076   0.00000  Uiso   1.00
C287   C     0.15178   0.31631   0.07013   0.00000  Uiso   1.00
C288   C     0.18644   0.35259   0.03056   0.00000  Uiso   1.00
C289   C     0.24282   0.37326   0.95708   0.00000  Uiso   1.00
C290   C     0.12695   0.54997   0.15996   0.00000  Uiso   1.00
C291   C     0.07054   0.54119   0.15115   0.00000  Uiso   1.00
C292   C     0.03758   0.62269   0.14469   0.00000  Uiso   1.00
C293   C     0.98737   0.59862   0.13710   0.00000  Uiso   1.00
C294   C     0.13845   0.49259   0.21555   0.00000  Uiso   1.00
C295   C     0.16259   0.53323   0.26322   0.00000  Uiso   1.00
C296   C     0.16956   0.46825   0.30984   0.00000  Uiso   1.00
C297   C     0.15092   0.48755   0.11183   0.00000  Uiso   1.00
C298   C     0.18556   0.52394   0.07232   0.00000  Uiso   1.00
C299   C     0.20305   0.45470   0.03164   0.00000  Uiso   1.00
H300   H     0.08350   0.28295   0.15714   0.00000  Uiso   1.00
H301   H     0.99097   0.33617   0.14167   0.00000  Uiso   1.00
H302   H     0.11597   0.24672   0.26018   0.00000  Uiso   1.00
H303   H     0.13894   0.23744   0.06931   0.00000  Uiso   1.00
H304   H     0.89570   0.44013   0.12501   0.00000  Uiso   1.00
H305   H     0.15927   0.25151   0.37489   0.00000  Uiso   1.00
H306   H     0.20772   0.23192   0.97240   0.00000  Uiso   1.00
H307   H     0.13986   0.62933   0.16080   0.00000  Uiso   1.00
H308   H     0.05042   0.70156   0.14552   0.00000  Uiso   1.00
H309   H     0.17542   0.61211   0.26404   0.00000  Uiso   1.00
H310   H     0.19839   0.60282   0.07317   0.00000  Uiso   1.00
H311   H     0.94395   0.73669   0.12814   0.00000  Uiso   1.00
H312   H     0.20753   0.54807   0.37802   0.00000  Uiso   1.00
H313   H     0.25597   0.52848   0.97553   0.00000  Uiso   1.00
O314   O     0.85997   0.62968   0.11648   0.00000  Uiso   1.00
O315   O     0.20578   0.38220   0.44430   0.00000  Uiso   1.00
O316   O     0.26933   0.35651   0.91625   0.00000  Uiso   1.00
N317   N     0.91933   0.50001   0.12783   0.00000  Uiso   1.00
N318   N     0.16575   0.32367   0.36146   0.00000  Uiso   1.00
N319   N     0.21105   0.30535   0.98517   0.00000  Uiso   1.00
N320   N     0.94529   0.65959   0.12952   0.00000  Uiso   1.00
N321   N     0.19172   0.48324   0.36314   0.00000  Uiso   1.00
N322   N     0.23702   0.46492   0.98686   0.00000  Uiso   1.00
C323   C     0.40359   0.63769   0.65798   0.00000  Uiso   1.00
C324   C     0.44605   0.56074   0.65007   0.00000  Uiso   1.00
C325   C     0.49621   0.58494   0.64250   0.00000  Uiso   1.00
C326   C     0.52924   0.50349   0.63603   0.00000  Uiso   1.00
C327   C     0.59769   0.39951   0.62362   0.00000  Uiso   1.00
C328   C     0.37814   0.60934   0.71447   0.00000  Uiso   1.00
C329   C     0.37120   0.67440   0.76103   0.00000  Uiso   1.00
C330   C     0.34706   0.63386   0.80876   0.00000  Uiso   1.00
C331   C     0.31004   0.60536   0.89631   0.00000  Uiso   1.00
C332   C     0.36566   0.61439   0.61076   0.00000  Uiso   1.00
C333   C     0.34822   0.68369   0.57013   0.00000  Uiso   1.00
C334   C     0.31356   0.64741   0.53056   0.00000  Uiso   1.00
C335   C     0.25718   0.62674   0.45708   0.00000  Uiso   1.00
C336   C     0.37305   0.45003   0.65996   0.00000  Uiso   1.00
C337   C     0.42946   0.45881   0.65115   0.00000  Uiso   1.00
C338   C     0.46242   0.37731   0.64469   0.00000  Uiso   1.00
C339   C     0.51263   0.40138   0.63710   0.00000  Uiso   1.00
C340   C     0.36155   0.50741   0.71555   0.00000  Uiso   1.00
C341   C     0.33741   0.46677   0.76322   0.00000  Uiso   1.00
C342   C     0.33044   0.53175   0.80984   0.00000  Uiso   1.00
C343   C     0.34908   0.51245   0.61183   0.00000  Uiso   1.00
C344   C     0.31444   0.47606   0.57232   0.00000  Uiso   1.00
C345   C     0.29695   0.54530   0.53164   0.00000  Uiso   1.00
H346   H     0.41650   0.71705   0.65714   0.00000  Uiso   1.00
H347   H     0.50903   0.66383   0.64167   0.00000  Uiso   1.00
H348   H     0.38403   0.75328   0.76018   0.00000  Uiso   1.00
H349   H     0.36106   0.76256   0.56931   0.00000  Uiso   1.00
H350   H     0.60430   0.55987   0.62501   0.00000  Uiso   1.00
H351   H     0.34073   0.74849   0.87489   0.00000  Uiso   1.00
H352   H     0.29228   0.76808   0.47240   0.00000  Uiso   1.00
H353   H     0.36014   0.37067   0.66080   0.00000  Uiso   1.00
H354   H     0.44958   0.29844   0.64552   0.00000  Uiso   1.00
H355   H     0.32458   0.38789   0.76404   0.00000  Uiso   1.00
H356   H     0.30161   0.39718   0.57317   0.00000  Uiso   1.00
H357   H     0.55605   0.26331   0.62814   0.00000  Uiso   1.00
H358   H     0.29247   0.45193   0.87802   0.00000  Uiso   1.00
H359   H     0.24403   0.47152   0.47553   0.00000  Uiso   1.00
O360   O     0.64003   0.37032   0.61648   0.00000  Uiso   1.00
O361   O     0.29422   0.61780   0.94430   0.00000  Uiso   1.00
O362   O     0.23067   0.64349   0.41625   0.00000  Uiso   1.00
N363   N     0.58067   0.49999   0.62783   0.00000  Uiso   1.00
N364   N     0.33425   0.67633   0.86146   0.00000  Uiso   1.00
N365   N     0.28895   0.69465   0.48517   0.00000  Uiso   1.00
N366   N     0.55471   0.34041   0.62952   0.00000  Uiso   1.00
N367   N     0.30828   0.51676   0.86314   0.00000  Uiso   1.00
N368   N     0.26298   0.53508   0.48686   0.00000  Uiso   1.00
