data_job_00226
_audit_creation_date              2018-12-19
_audit_creation_method            'Materials Studio'
_symmetry_space_group_name_H-M    'P1'
_symmetry_Int_Tables_number       1
_symmetry_cell_setting            triclinic
loop_
_symmetry_equiv_pos_as_xyz
  x,y,z
_cell_length_a                    12.2662
_cell_length_b                    22.8581
_cell_length_c                    20.5351
_cell_angle_alpha                 90.0000
_cell_angle_beta                  124.1840
_cell_angle_gamma                 90.0000
loop_
_atom_site_label
_atom_site_type_symbol
_atom_site_fract_x
_atom_site_fract_y
_atom_site_fract_z
_atom_site_U_iso_or_equiv
_atom_site_adp_type
_atom_site_occupancy
C1     C     0.77158   0.33960   0.84025   0.00000  Uiso   1.00
C2     C     0.91708   0.33496   0.87123   0.00000  Uiso   1.00
C3     C     0.97669   0.28758   0.86095   0.00000  Uiso   1.00
C4     C     0.11095   0.29182   0.89385   0.00000  Uiso   1.00
C5     C     0.32595   0.27702   0.93565   0.00000  Uiso   1.00
C6     C     0.76734   0.35175   0.91181   0.00000  Uiso   1.00
C7     C     0.70104   0.31848   0.93564   0.00000  Uiso   1.00
C8     C     0.70924   0.33687   0.00271   0.00000  Uiso   1.00
C9     C     0.69168   0.34815   0.10748   0.00000  Uiso   1.00
C10    C     0.72107   0.39499   0.79029   0.00000  Uiso   1.00
C11    C     0.61583   0.39809   0.71194   0.00000  Uiso   1.00
C12    C     0.58504   0.45288   0.67670   0.00000  Uiso   1.00
C13    C     0.49564   0.53131   0.59278   0.00000  Uiso   1.00
C14    C     0.90400   0.43139   0.91698   0.00000  Uiso   1.00
C15    C     0.98901   0.38482   0.91291   0.00000  Uiso   1.00
C16    C     0.12321   0.38913   0.94584   0.00000  Uiso   1.00
C17    C     0.18301   0.34177   0.93560   0.00000  Uiso   1.00
C18    C     0.83927   0.40160   0.95349   0.00000  Uiso   1.00
C19    C     0.84756   0.42004   0.02053   0.00000  Uiso   1.00
C20    C     0.78129   0.38681   0.04446   0.00000  Uiso   1.00
C21    C     0.79299   0.44485   0.83196   0.00000  Uiso   1.00
C22    C     0.76235   0.49965   0.79683   0.00000  Uiso   1.00
C23    C     0.65710   0.50283   0.71845   0.00000  Uiso   1.00
H24    H     0.71558   0.30078   0.80781   0.00000  Uiso   1.00
H25    H     0.92100   0.24900   0.82870   0.00000  Uiso   1.00
H26    H     0.64538   0.27991   0.90338   0.00000  Uiso   1.00
H27    H     0.56019   0.35950   0.67971   0.00000  Uiso   1.00
H28    H     0.18047   0.21356   0.87026   0.00000  Uiso   1.00
H29    H     0.59928   0.27875   0.02771   0.00000  Uiso   1.00
H30    H     0.41964   0.44658   0.55607   0.00000  Uiso   1.00
H31    H     0.96000   0.47021   0.94942   0.00000  Uiso   1.00
H32    H     0.17885   0.42772   0.97808   0.00000  Uiso   1.00
H33    H     0.90322   0.45863   0.05277   0.00000  Uiso   1.00
H34    H     0.81804   0.53822   0.82910   0.00000  Uiso   1.00
H35    H     0.38976   0.35862   0.99151   0.00000  Uiso   1.00
H36    H     0.80855   0.42381   0.14896   0.00000  Uiso   1.00
H37    H     0.62892   0.59164   0.67732   0.00000  Uiso   1.00
O38    O     0.42467   0.25508   0.94721   0.00000  Uiso   1.00
O39    O     0.66214   0.34060   0.15377   0.00000  Uiso   1.00
O40    O     0.42647   0.56079   0.53499   0.00000  Uiso   1.00
N41    N     0.19969   0.25354   0.89485   0.00000  Uiso   1.00
N42    N     0.65632   0.31448   0.04207   0.00000  Uiso   1.00
N43    N     0.48835   0.47139   0.60113   0.00000  Uiso   1.00
N44    N     0.31230   0.33159   0.96009   0.00000  Uiso   1.00
N45    N     0.76893   0.39253   0.10731   0.00000  Uiso   1.00
N46    N     0.60096   0.54944   0.66637   0.00000  Uiso   1.00
C47    C     0.27158   0.83960   0.84025   0.00000  Uiso   1.00
C48    C     0.41708   0.83496   0.87123   0.00000  Uiso   1.00
C49    C     0.47669   0.78758   0.86095   0.00000  Uiso   1.00
C50    C     0.61095   0.79182   0.89385   0.00000  Uiso   1.00
C51    C     0.82595   0.77702   0.93565   0.00000  Uiso   1.00
C52    C     0.26734   0.85175   0.91181   0.00000  Uiso   1.00
C53    C     0.20104   0.81848   0.93564   0.00000  Uiso   1.00
C54    C     0.20924   0.83687   0.00271   0.00000  Uiso   1.00
C55    C     0.19168   0.84815   0.10748   0.00000  Uiso   1.00
C56    C     0.22107   0.89499   0.79029   0.00000  Uiso   1.00
C57    C     0.11583   0.89809   0.71194   0.00000  Uiso   1.00
C58    C     0.08504   0.95288   0.67670   0.00000  Uiso   1.00
C59    C     0.99564   0.03131   0.59278   0.00000  Uiso   1.00
C60    C     0.40400   0.93139   0.91698   0.00000  Uiso   1.00
C61    C     0.48901   0.88482   0.91291   0.00000  Uiso   1.00
C62    C     0.62321   0.88913   0.94584   0.00000  Uiso   1.00
C63    C     0.68301   0.84177   0.93560   0.00000  Uiso   1.00
C64    C     0.33927   0.90160   0.95349   0.00000  Uiso   1.00
C65    C     0.34756   0.92004   0.02053   0.00000  Uiso   1.00
C66    C     0.28129   0.88681   0.04446   0.00000  Uiso   1.00
C67    C     0.29299   0.94485   0.83196   0.00000  Uiso   1.00
C68    C     0.26235   0.99965   0.79683   0.00000  Uiso   1.00
C69    C     0.15710   0.00283   0.71845   0.00000  Uiso   1.00
H70    H     0.21558   0.80078   0.80781   0.00000  Uiso   1.00
H71    H     0.42100   0.74900   0.82870   0.00000  Uiso   1.00
H72    H     0.14538   0.77991   0.90338   0.00000  Uiso   1.00
H73    H     0.06019   0.85950   0.67971   0.00000  Uiso   1.00
H74    H     0.68047   0.71356   0.87026   0.00000  Uiso   1.00
H75    H     0.09928   0.77875   0.02771   0.00000  Uiso   1.00
H76    H     0.91964   0.94658   0.55607   0.00000  Uiso   1.00
H77    H     0.46000   0.97021   0.94942   0.00000  Uiso   1.00
H78    H     0.67885   0.92772   0.97808   0.00000  Uiso   1.00
H79    H     0.40322   0.95863   0.05277   0.00000  Uiso   1.00
H80    H     0.31804   0.03822   0.82910   0.00000  Uiso   1.00
H81    H     0.88976   0.85862   0.99151   0.00000  Uiso   1.00
H82    H     0.30855   0.92381   0.14896   0.00000  Uiso   1.00
H83    H     0.12892   0.09164   0.67732   0.00000  Uiso   1.00
O84    O     0.92467   0.75508   0.94721   0.00000  Uiso   1.00
O85    O     0.16214   0.84060   0.15377   0.00000  Uiso   1.00
O86    O     0.92647   0.06079   0.53499   0.00000  Uiso   1.00
N87    N     0.69969   0.75354   0.89485   0.00000  Uiso   1.00
N88    N     0.15632   0.81448   0.04207   0.00000  Uiso   1.00
N89    N     0.98835   0.97139   0.60113   0.00000  Uiso   1.00
N90    N     0.81230   0.83159   0.96009   0.00000  Uiso   1.00
N91    N     0.26893   0.89253   0.10731   0.00000  Uiso   1.00
N92    N     0.10096   0.04944   0.66637   0.00000  Uiso   1.00
C93    C     0.22842   0.33960   0.65975   0.00000  Uiso   1.00
C94    C     0.08292   0.33496   0.62877   0.00000  Uiso   1.00
C95    C     0.02331   0.28758   0.63905   0.00000  Uiso   1.00
C96    C     0.88905   0.29182   0.60615   0.00000  Uiso   1.00
C97    C     0.67405   0.27702   0.56435   0.00000  Uiso   1.00
C98    C     0.23266   0.35175   0.58819   0.00000  Uiso   1.00
C99    C     0.29896   0.31848   0.56436   0.00000  Uiso   1.00
C100   C     0.29076   0.33687   0.49729   0.00000  Uiso   1.00
C101   C     0.30832   0.34815   0.39252   0.00000  Uiso   1.00
C102   C     0.27893   0.39499   0.70971   0.00000  Uiso   1.00
C103   C     0.38417   0.39809   0.78806   0.00000  Uiso   1.00
C104   C     0.41496   0.45288   0.82330   0.00000  Uiso   1.00
C105   C     0.50436   0.53131   0.90722   0.00000  Uiso   1.00
C106   C     0.09600   0.43139   0.58302   0.00000  Uiso   1.00
C107   C     0.01099   0.38482   0.58709   0.00000  Uiso   1.00
C108   C     0.87679   0.38913   0.55416   0.00000  Uiso   1.00
C109   C     0.81699   0.34177   0.56440   0.00000  Uiso   1.00
C110   C     0.16073   0.40160   0.54651   0.00000  Uiso   1.00
C111   C     0.15244   0.42004   0.47947   0.00000  Uiso   1.00
C112   C     0.21871   0.38681   0.45554   0.00000  Uiso   1.00
C113   C     0.20701   0.44485   0.66804   0.00000  Uiso   1.00
C114   C     0.23765   0.49965   0.70317   0.00000  Uiso   1.00
C115   C     0.34290   0.50283   0.78155   0.00000  Uiso   1.00
H116   H     0.28442   0.30078   0.69219   0.00000  Uiso   1.00
H117   H     0.07900   0.24900   0.67130   0.00000  Uiso   1.00
H118   H     0.35462   0.27991   0.59662   0.00000  Uiso   1.00
H119   H     0.43981   0.35950   0.82029   0.00000  Uiso   1.00
H120   H     0.81953   0.21356   0.62974   0.00000  Uiso   1.00
H121   H     0.40072   0.27875   0.47229   0.00000  Uiso   1.00
H122   H     0.58036   0.44658   0.94393   0.00000  Uiso   1.00
H123   H     0.04000   0.47021   0.55058   0.00000  Uiso   1.00
H124   H     0.82115   0.42772   0.52192   0.00000  Uiso   1.00
H125   H     0.09678   0.45863   0.44723   0.00000  Uiso   1.00
H126   H     0.18196   0.53822   0.67090   0.00000  Uiso   1.00
H127   H     0.61024   0.35862   0.50849   0.00000  Uiso   1.00
H128   H     0.19145   0.42381   0.35104   0.00000  Uiso   1.00
H129   H     0.37108   0.59164   0.82268   0.00000  Uiso   1.00
O130   O     0.57533   0.25508   0.55279   0.00000  Uiso   1.00
O131   O     0.33786   0.34060   0.34623   0.00000  Uiso   1.00
O132   O     0.57353   0.56079   0.96501   0.00000  Uiso   1.00
N133   N     0.80031   0.25354   0.60515   0.00000  Uiso   1.00
N134   N     0.34368   0.31448   0.45793   0.00000  Uiso   1.00
N135   N     0.51165   0.47139   0.89887   0.00000  Uiso   1.00
N136   N     0.68770   0.33159   0.53991   0.00000  Uiso   1.00
N137   N     0.23107   0.39253   0.39269   0.00000  Uiso   1.00
N138   N     0.39904   0.54944   0.83363   0.00000  Uiso   1.00
C139   C     0.72842   0.83960   0.65975   0.00000  Uiso   1.00
C140   C     0.58292   0.83496   0.62877   0.00000  Uiso   1.00
C141   C     0.52331   0.78758   0.63905   0.00000  Uiso   1.00
C142   C     0.38905   0.79182   0.60615   0.00000  Uiso   1.00
C143   C     0.17405   0.77702   0.56435   0.00000  Uiso   1.00
C144   C     0.73266   0.85175   0.58819   0.00000  Uiso   1.00
C145   C     0.79896   0.81848   0.56436   0.00000  Uiso   1.00
C146   C     0.79076   0.83687   0.49729   0.00000  Uiso   1.00
C147   C     0.80832   0.84815   0.39252   0.00000  Uiso   1.00
C148   C     0.77893   0.89499   0.70971   0.00000  Uiso   1.00
C149   C     0.88417   0.89809   0.78806   0.00000  Uiso   1.00
C150   C     0.91496   0.95288   0.82330   0.00000  Uiso   1.00
C151   C     0.00436   0.03131   0.90722   0.00000  Uiso   1.00
C152   C     0.59600   0.93139   0.58302   0.00000  Uiso   1.00
C153   C     0.51099   0.88482   0.58709   0.00000  Uiso   1.00
C154   C     0.37679   0.88913   0.55416   0.00000  Uiso   1.00
C155   C     0.31699   0.84177   0.56440   0.00000  Uiso   1.00
C156   C     0.66073   0.90160   0.54651   0.00000  Uiso   1.00
C157   C     0.65244   0.92004   0.47947   0.00000  Uiso   1.00
C158   C     0.71871   0.88681   0.45554   0.00000  Uiso   1.00
C159   C     0.70701   0.94485   0.66804   0.00000  Uiso   1.00
C160   C     0.73765   0.99965   0.70317   0.00000  Uiso   1.00
C161   C     0.84290   0.00283   0.78155   0.00000  Uiso   1.00
H162   H     0.78442   0.80078   0.69219   0.00000  Uiso   1.00
H163   H     0.57900   0.74900   0.67130   0.00000  Uiso   1.00
H164   H     0.85462   0.77991   0.59662   0.00000  Uiso   1.00
H165   H     0.93981   0.85950   0.82029   0.00000  Uiso   1.00
H166   H     0.31953   0.71356   0.62974   0.00000  Uiso   1.00
H167   H     0.90072   0.77875   0.47229   0.00000  Uiso   1.00
H168   H     0.08036   0.94658   0.94393   0.00000  Uiso   1.00
H169   H     0.54000   0.97021   0.55058   0.00000  Uiso   1.00
H170   H     0.32115   0.92772   0.52192   0.00000  Uiso   1.00
H171   H     0.59678   0.95863   0.44723   0.00000  Uiso   1.00
H172   H     0.68196   0.03822   0.67090   0.00000  Uiso   1.00
H173   H     0.11024   0.85862   0.50849   0.00000  Uiso   1.00
H174   H     0.69145   0.92381   0.35104   0.00000  Uiso   1.00
H175   H     0.87108   0.09164   0.82268   0.00000  Uiso   1.00
O176   O     0.07533   0.75508   0.55279   0.00000  Uiso   1.00
O177   O     0.83786   0.84060   0.34623   0.00000  Uiso   1.00
O178   O     0.07353   0.06079   0.96501   0.00000  Uiso   1.00
N179   N     0.30031   0.75354   0.60515   0.00000  Uiso   1.00
N180   N     0.84368   0.81448   0.45793   0.00000  Uiso   1.00
N181   N     0.01165   0.97139   0.89887   0.00000  Uiso   1.00
N182   N     0.18770   0.83159   0.53991   0.00000  Uiso   1.00
N183   N     0.73107   0.89253   0.39269   0.00000  Uiso   1.00
N184   N     0.89904   0.04944   0.83363   0.00000  Uiso   1.00
C185   C     0.22842   0.66040   0.15975   0.00000  Uiso   1.00
C186   C     0.08292   0.66504   0.12877   0.00000  Uiso   1.00
C187   C     0.02331   0.71242   0.13905   0.00000  Uiso   1.00
C188   C     0.88905   0.70818   0.10615   0.00000  Uiso   1.00
C189   C     0.67405   0.72298   0.06435   0.00000  Uiso   1.00
C190   C     0.23266   0.64825   0.08819   0.00000  Uiso   1.00
C191   C     0.29896   0.68152   0.06436   0.00000  Uiso   1.00
C192   C     0.29076   0.66313   0.99729   0.00000  Uiso   1.00
C193   C     0.30832   0.65185   0.89252   0.00000  Uiso   1.00
C194   C     0.27893   0.60501   0.20971   0.00000  Uiso   1.00
C195   C     0.38417   0.60191   0.28806   0.00000  Uiso   1.00
C196   C     0.41496   0.54712   0.32330   0.00000  Uiso   1.00
C197   C     0.50436   0.46869   0.40722   0.00000  Uiso   1.00
C198   C     0.09600   0.56861   0.08302   0.00000  Uiso   1.00
C199   C     0.01099   0.61518   0.08709   0.00000  Uiso   1.00
C200   C     0.87679   0.61087   0.05416   0.00000  Uiso   1.00
C201   C     0.81699   0.65823   0.06440   0.00000  Uiso   1.00
C202   C     0.16073   0.59840   0.04651   0.00000  Uiso   1.00
C203   C     0.15244   0.57996   0.97947   0.00000  Uiso   1.00
C204   C     0.21871   0.61319   0.95554   0.00000  Uiso   1.00
C205   C     0.20701   0.55515   0.16804   0.00000  Uiso   1.00
C206   C     0.23765   0.50035   0.20317   0.00000  Uiso   1.00
C207   C     0.34290   0.49717   0.28155   0.00000  Uiso   1.00
H208   H     0.28442   0.69922   0.19219   0.00000  Uiso   1.00
H209   H     0.07900   0.75100   0.17130   0.00000  Uiso   1.00
H210   H     0.35462   0.72009   0.09662   0.00000  Uiso   1.00
H211   H     0.43981   0.64050   0.32029   0.00000  Uiso   1.00
H212   H     0.81953   0.78644   0.12974   0.00000  Uiso   1.00
H213   H     0.40072   0.72125   0.97229   0.00000  Uiso   1.00
H214   H     0.58036   0.55342   0.44393   0.00000  Uiso   1.00
H215   H     0.04000   0.52979   0.05058   0.00000  Uiso   1.00
H216   H     0.82115   0.57228   0.02192   0.00000  Uiso   1.00
H217   H     0.09678   0.54137   0.94723   0.00000  Uiso   1.00
H218   H     0.18196   0.46178   0.17090   0.00000  Uiso   1.00
H219   H     0.61024   0.64138   0.00849   0.00000  Uiso   1.00
H220   H     0.19145   0.57619   0.85104   0.00000  Uiso   1.00
H221   H     0.37108   0.40836   0.32268   0.00000  Uiso   1.00
O222   O     0.57533   0.74492   0.05279   0.00000  Uiso   1.00
O223   O     0.33786   0.65940   0.84623   0.00000  Uiso   1.00
O224   O     0.57353   0.43921   0.46501   0.00000  Uiso   1.00
N225   N     0.80031   0.74646   0.10515   0.00000  Uiso   1.00
N226   N     0.34368   0.68552   0.95793   0.00000  Uiso   1.00
N227   N     0.51165   0.52861   0.39887   0.00000  Uiso   1.00
N228   N     0.68770   0.66841   0.03991   0.00000  Uiso   1.00
N229   N     0.23107   0.60747   0.89269   0.00000  Uiso   1.00
N230   N     0.39904   0.45056   0.33363   0.00000  Uiso   1.00
C231   C     0.72842   0.16040   0.15975   0.00000  Uiso   1.00
C232   C     0.58292   0.16504   0.12877   0.00000  Uiso   1.00
C233   C     0.52331   0.21242   0.13905   0.00000  Uiso   1.00
C234   C     0.38905   0.20818   0.10615   0.00000  Uiso   1.00
C235   C     0.17405   0.22298   0.06435   0.00000  Uiso   1.00
C236   C     0.73266   0.14825   0.08819   0.00000  Uiso   1.00
C237   C     0.79896   0.18152   0.06436   0.00000  Uiso   1.00
C238   C     0.79076   0.16313   0.99729   0.00000  Uiso   1.00
C239   C     0.80832   0.15185   0.89252   0.00000  Uiso   1.00
C240   C     0.77893   0.10501   0.20971   0.00000  Uiso   1.00
C241   C     0.88417   0.10191   0.28806   0.00000  Uiso   1.00
C242   C     0.91496   0.04712   0.32330   0.00000  Uiso   1.00
C243   C     0.00436   0.96869   0.40722   0.00000  Uiso   1.00
C244   C     0.59600   0.06861   0.08302   0.00000  Uiso   1.00
C245   C     0.51099   0.11518   0.08709   0.00000  Uiso   1.00
C246   C     0.37679   0.11087   0.05416   0.00000  Uiso   1.00
C247   C     0.31699   0.15823   0.06440   0.00000  Uiso   1.00
C248   C     0.66073   0.09840   0.04651   0.00000  Uiso   1.00
C249   C     0.65244   0.07996   0.97947   0.00000  Uiso   1.00
C250   C     0.71871   0.11319   0.95554   0.00000  Uiso   1.00
C251   C     0.70701   0.05515   0.16804   0.00000  Uiso   1.00
C252   C     0.73765   0.00035   0.20317   0.00000  Uiso   1.00
C253   C     0.84290   0.99717   0.28155   0.00000  Uiso   1.00
H254   H     0.78442   0.19922   0.19219   0.00000  Uiso   1.00
H255   H     0.57900   0.25100   0.17130   0.00000  Uiso   1.00
H256   H     0.85462   0.22009   0.09662   0.00000  Uiso   1.00
H257   H     0.93981   0.14050   0.32029   0.00000  Uiso   1.00
H258   H     0.31953   0.28644   0.12974   0.00000  Uiso   1.00
H259   H     0.90072   0.22125   0.97229   0.00000  Uiso   1.00
H260   H     0.08036   0.05342   0.44393   0.00000  Uiso   1.00
H261   H     0.54000   0.02979   0.05058   0.00000  Uiso   1.00
H262   H     0.32115   0.07228   0.02192   0.00000  Uiso   1.00
H263   H     0.59678   0.04137   0.94723   0.00000  Uiso   1.00
H264   H     0.68196   0.96178   0.17090   0.00000  Uiso   1.00
H265   H     0.11024   0.14138   0.00849   0.00000  Uiso   1.00
H266   H     0.69145   0.07619   0.85104   0.00000  Uiso   1.00
H267   H     0.87108   0.90836   0.32268   0.00000  Uiso   1.00
O268   O     0.07533   0.24492   0.05279   0.00000  Uiso   1.00
O269   O     0.83786   0.15940   0.84623   0.00000  Uiso   1.00
O270   O     0.07353   0.93921   0.46501   0.00000  Uiso   1.00
N271   N     0.30031   0.24646   0.10515   0.00000  Uiso   1.00
N272   N     0.84368   0.18552   0.95793   0.00000  Uiso   1.00
N273   N     0.01165   0.02861   0.39887   0.00000  Uiso   1.00
N274   N     0.18770   0.16841   0.03991   0.00000  Uiso   1.00
N275   N     0.73107   0.10747   0.89269   0.00000  Uiso   1.00
N276   N     0.89904   0.95056   0.33363   0.00000  Uiso   1.00
C277   C     0.77158   0.66040   0.34025   0.00000  Uiso   1.00
C278   C     0.91708   0.66504   0.37123   0.00000  Uiso   1.00
C279   C     0.97669   0.71242   0.36095   0.00000  Uiso   1.00
C280   C     0.11095   0.70818   0.39385   0.00000  Uiso   1.00
C281   C     0.32595   0.72298   0.43565   0.00000  Uiso   1.00
C282   C     0.76734   0.64825   0.41181   0.00000  Uiso   1.00
C283   C     0.70104   0.68152   0.43564   0.00000  Uiso   1.00
C284   C     0.70924   0.66313   0.50271   0.00000  Uiso   1.00
C285   C     0.69168   0.65185   0.60748   0.00000  Uiso   1.00
C286   C     0.72107   0.60501   0.29029   0.00000  Uiso   1.00
C287   C     0.61583   0.60191   0.21194   0.00000  Uiso   1.00
C288   C     0.58504   0.54712   0.17670   0.00000  Uiso   1.00
C289   C     0.49564   0.46869   0.09278   0.00000  Uiso   1.00
C290   C     0.90400   0.56861   0.41698   0.00000  Uiso   1.00
C291   C     0.98901   0.61518   0.41291   0.00000  Uiso   1.00
C292   C     0.12321   0.61087   0.44584   0.00000  Uiso   1.00
C293   C     0.18301   0.65823   0.43560   0.00000  Uiso   1.00
C294   C     0.83927   0.59840   0.45349   0.00000  Uiso   1.00
C295   C     0.84756   0.57996   0.52053   0.00000  Uiso   1.00
C296   C     0.78129   0.61319   0.54446   0.00000  Uiso   1.00
C297   C     0.79299   0.55515   0.33196   0.00000  Uiso   1.00
C298   C     0.76235   0.50035   0.29683   0.00000  Uiso   1.00
C299   C     0.65710   0.49717   0.21845   0.00000  Uiso   1.00
H300   H     0.71558   0.69922   0.30781   0.00000  Uiso   1.00
H301   H     0.92100   0.75100   0.32870   0.00000  Uiso   1.00
H302   H     0.64538   0.72009   0.40338   0.00000  Uiso   1.00
H303   H     0.56019   0.64050   0.17971   0.00000  Uiso   1.00
H304   H     0.18047   0.78644   0.37026   0.00000  Uiso   1.00
H305   H     0.59928   0.72125   0.52771   0.00000  Uiso   1.00
H306   H     0.41964   0.55342   0.05607   0.00000  Uiso   1.00
H307   H     0.96000   0.52979   0.44942   0.00000  Uiso   1.00
H308   H     0.17885   0.57228   0.47808   0.00000  Uiso   1.00
H309   H     0.90322   0.54137   0.55277   0.00000  Uiso   1.00
H310   H     0.81804   0.46178   0.32910   0.00000  Uiso   1.00
H311   H     0.38976   0.64138   0.49151   0.00000  Uiso   1.00
H312   H     0.80855   0.57619   0.64896   0.00000  Uiso   1.00
H313   H     0.62892   0.40836   0.17732   0.00000  Uiso   1.00
O314   O     0.42467   0.74492   0.44721   0.00000  Uiso   1.00
O315   O     0.66214   0.65940   0.65377   0.00000  Uiso   1.00
O316   O     0.42647   0.43921   0.03499   0.00000  Uiso   1.00
N317   N     0.19969   0.74646   0.39485   0.00000  Uiso   1.00
N318   N     0.65632   0.68552   0.54207   0.00000  Uiso   1.00
N319   N     0.48835   0.52861   0.10113   0.00000  Uiso   1.00
N320   N     0.31230   0.66841   0.46009   0.00000  Uiso   1.00
N321   N     0.76893   0.60747   0.60731   0.00000  Uiso   1.00
N322   N     0.60096   0.45056   0.16637   0.00000  Uiso   1.00
C323   C     0.27158   0.16040   0.34025   0.00000  Uiso   1.00
C324   C     0.41708   0.16504   0.37123   0.00000  Uiso   1.00
C325   C     0.47669   0.21242   0.36095   0.00000  Uiso   1.00
C326   C     0.61095   0.20818   0.39385   0.00000  Uiso   1.00
C327   C     0.82595   0.22298   0.43565   0.00000  Uiso   1.00
C328   C     0.26734   0.14825   0.41181   0.00000  Uiso   1.00
C329   C     0.20104   0.18152   0.43564   0.00000  Uiso   1.00
C330   C     0.20924   0.16313   0.50271   0.00000  Uiso   1.00
C331   C     0.19168   0.15185   0.60748   0.00000  Uiso   1.00
C332   C     0.22107   0.10501   0.29029   0.00000  Uiso   1.00
C333   C     0.11583   0.10191   0.21194   0.00000  Uiso   1.00
C334   C     0.08504   0.04712   0.17670   0.00000  Uiso   1.00
C335   C     0.99564   0.96869   0.09278   0.00000  Uiso   1.00
C336   C     0.40400   0.06861   0.41698   0.00000  Uiso   1.00
C337   C     0.48901   0.11518   0.41291   0.00000  Uiso   1.00
C338   C     0.62321   0.11087   0.44584   0.00000  Uiso   1.00
C339   C     0.68301   0.15823   0.43560   0.00000  Uiso   1.00
C340   C     0.33927   0.09840   0.45349   0.00000  Uiso   1.00
C341   C     0.34756   0.07996   0.52053   0.00000  Uiso   1.00
C342   C     0.28129   0.11319   0.54446   0.00000  Uiso   1.00
C343   C     0.29299   0.05515   0.33196   0.00000  Uiso   1.00
C344   C     0.26235   0.00035   0.29683   0.00000  Uiso   1.00
C345   C     0.15710   0.99717   0.21845   0.00000  Uiso   1.00
H346   H     0.21558   0.19922   0.30781   0.00000  Uiso   1.00
H347   H     0.42100   0.25100   0.32870   0.00000  Uiso   1.00
H348   H     0.14538   0.22009   0.40338   0.00000  Uiso   1.00
H349   H     0.06019   0.14050   0.17971   0.00000  Uiso   1.00
H350   H     0.68047   0.28644   0.37026   0.00000  Uiso   1.00
H351   H     0.09928   0.22125   0.52771   0.00000  Uiso   1.00
H352   H     0.91964   0.05342   0.05607   0.00000  Uiso   1.00
H353   H     0.46000   0.02979   0.44942   0.00000  Uiso   1.00
H354   H     0.67885   0.07228   0.47808   0.00000  Uiso   1.00
H355   H     0.40322   0.04137   0.55277   0.00000  Uiso   1.00
H356   H     0.31804   0.96178   0.32910   0.00000  Uiso   1.00
H357   H     0.88976   0.14138   0.49151   0.00000  Uiso   1.00
H358   H     0.30855   0.07619   0.64896   0.00000  Uiso   1.00
H359   H     0.12892   0.90836   0.17732   0.00000  Uiso   1.00
O360   O     0.92467   0.24492   0.44721   0.00000  Uiso   1.00
O361   O     0.16214   0.15940   0.65377   0.00000  Uiso   1.00
O362   O     0.92647   0.93921   0.03499   0.00000  Uiso   1.00
N363   N     0.69969   0.24646   0.39485   0.00000  Uiso   1.00
N364   N     0.15632   0.18552   0.54207   0.00000  Uiso   1.00
N365   N     0.98835   0.02861   0.10113   0.00000  Uiso   1.00
N366   N     0.81230   0.16841   0.46009   0.00000  Uiso   1.00
N367   N     0.26893   0.10747   0.60731   0.00000  Uiso   1.00
N368   N     0.10096   0.95056   0.16637   0.00000  Uiso   1.00
