data_job_01027
_audit_creation_date              2018-12-19
_audit_creation_method            'Materials Studio'
_symmetry_space_group_name_H-M    'P1'
_symmetry_Int_Tables_number       1
_symmetry_cell_setting            triclinic
loop_
_symmetry_equiv_pos_as_xyz
  x,y,z
_cell_length_a                    26.1967
_cell_length_b                    7.3054
_cell_length_c                    19.6761
_cell_angle_alpha                 90.0000
_cell_angle_beta                  47.2427
_cell_angle_gamma                 90.0000
loop_
_atom_site_label
_atom_site_type_symbol
_atom_site_fract_x
_atom_site_fract_y
_atom_site_fract_z
_atom_site_U_iso_or_equiv
_atom_site_adp_type
_atom_site_occupancy
C1     C     0.30096   0.41303   0.88839   0.00000  Uiso   1.00
C2     C     0.36732   0.48006   0.79408   0.00000  Uiso   1.00
C3     C     0.41437   0.37172   0.71632   0.00000  Uiso   1.00
C4     C     0.47189   0.45902   0.63664   0.00000  Uiso   1.00
C5     C     0.57343   0.53435   0.49047   0.00000  Uiso   1.00
C6     C     0.30633   0.47208   0.95769   0.00000  Uiso   1.00
C7     C     0.30209   0.35704   0.01749   0.00000  Uiso   1.00
C8     C     0.30826   0.43763   0.07554   0.00000  Uiso   1.00
C9     C     0.31506   0.50059   0.18343   0.00000  Uiso   1.00
C10    C     0.24188   0.52522   0.91119   0.00000  Uiso   1.00
C11    C     0.18344   0.45486   0.93194   0.00000  Uiso   1.00
C12    C     0.13534   0.58019   0.95087   0.00000  Uiso   1.00
C13    C     0.04207   0.72566   0.98657   0.00000  Uiso   1.00
C14    C     0.31943   0.76071   0.88515   0.00000  Uiso   1.00
C15    C     0.37736   0.66890   0.79232   0.00000  Uiso   1.00
C16    C     0.43482   0.75639   0.71273   0.00000  Uiso   1.00
C17    C     0.48194   0.64820   0.63487   0.00000  Uiso   1.00
C18    C     0.31637   0.66092   0.95592   0.00000  Uiso   1.00
C19    C     0.32254   0.74170   0.01390   0.00000  Uiso   1.00
C20    C     0.31831   0.62681   0.07378   0.00000  Uiso   1.00
C21    C     0.25192   0.71407   0.90943   0.00000  Uiso   1.00
C22    C     0.20389   0.83953   0.92834   0.00000  Uiso   1.00
C23    C     0.14539   0.76938   0.94911   0.00000  Uiso   1.00
H24    H     0.29314   0.26601   0.88977   0.00000  Uiso   1.00
H25    H     0.40659   0.22558   0.71772   0.00000  Uiso   1.00
H26    H     0.29432   0.21091   0.01885   0.00000  Uiso   1.00
H27    H     0.17569   0.30872   0.93330   0.00000  Uiso   1.00
H28    H     0.53681   0.26402   0.52619   0.00000  Uiso   1.00
H29    H     0.30006   0.23309   0.16117   0.00000  Uiso   1.00
H30    H     0.04990   0.43934   0.98078   0.00000  Uiso   1.00
H31    H     0.32724   0.90774   0.88378   0.00000  Uiso   1.00
H32    H     0.44257   0.90253   0.71139   0.00000  Uiso   1.00
H33    H     0.33030   0.88785   0.01252   0.00000  Uiso   1.00
H34    H     0.21167   0.98566   0.92697   0.00000  Uiso   1.00
H35    H     0.56601   0.81346   0.52106   0.00000  Uiso   1.00
H36    H     0.32926   0.78252   0.15604   0.00000  Uiso   1.00
H37    H     0.07910   0.98877   0.97564   0.00000  Uiso   1.00
O38    O     0.62667   0.52372   0.41034   0.00000  Uiso   1.00
O39    O     0.31605   0.48314   0.24341   0.00000  Uiso   1.00
O40    O     0.98786   0.75373   0.00674   0.00000  Uiso   1.00
N41    N     0.52785   0.39406   0.54864   0.00000  Uiso   1.00
N42    N     0.30651   0.36513   0.14229   0.00000  Uiso   1.00
N43    N     0.07263   0.55795   0.97366   0.00000  Uiso   1.00
N44    N     0.54356   0.68970   0.54587   0.00000  Uiso   1.00
N45    N     0.32222   0.66078   0.13953   0.00000  Uiso   1.00
N46    N     0.08834   0.85360   0.97090   0.00000  Uiso   1.00
C47    C     0.69904   0.91303   0.61161   0.00000  Uiso   1.00
C48    C     0.63268   0.98006   0.70592   0.00000  Uiso   1.00
C49    C     0.58563   0.87172   0.78368   0.00000  Uiso   1.00
C50    C     0.52811   0.95902   0.86336   0.00000  Uiso   1.00
C51    C     0.42657   0.03435   0.00953   0.00000  Uiso   1.00
C52    C     0.69367   0.97208   0.54231   0.00000  Uiso   1.00
C53    C     0.69791   0.85704   0.48251   0.00000  Uiso   1.00
C54    C     0.69174   0.93763   0.42446   0.00000  Uiso   1.00
C55    C     0.68494   0.00059   0.31657   0.00000  Uiso   1.00
C56    C     0.75812   0.02522   0.58881   0.00000  Uiso   1.00
C57    C     0.81656   0.95486   0.56806   0.00000  Uiso   1.00
C58    C     0.86466   0.08019   0.54913   0.00000  Uiso   1.00
C59    C     0.95793   0.22566   0.51343   0.00000  Uiso   1.00
C60    C     0.68057   0.26071   0.61485   0.00000  Uiso   1.00
C61    C     0.62264   0.16890   0.70768   0.00000  Uiso   1.00
C62    C     0.56518   0.25639   0.78727   0.00000  Uiso   1.00
C63    C     0.51806   0.14820   0.86513   0.00000  Uiso   1.00
C64    C     0.68363   0.16092   0.54408   0.00000  Uiso   1.00
C65    C     0.67746   0.24170   0.48610   0.00000  Uiso   1.00
C66    C     0.68169   0.12681   0.42622   0.00000  Uiso   1.00
C67    C     0.74808   0.21407   0.59057   0.00000  Uiso   1.00
C68    C     0.79611   0.33953   0.57166   0.00000  Uiso   1.00
C69    C     0.85461   0.26938   0.55089   0.00000  Uiso   1.00
H70    H     0.70686   0.76601   0.61023   0.00000  Uiso   1.00
H71    H     0.59341   0.72558   0.78228   0.00000  Uiso   1.00
H72    H     0.70568   0.71091   0.48115   0.00000  Uiso   1.00
H73    H     0.82431   0.80872   0.56670   0.00000  Uiso   1.00
H74    H     0.46319   0.76402   0.97381   0.00000  Uiso   1.00
H75    H     0.69994   0.73309   0.33883   0.00000  Uiso   1.00
H76    H     0.95010   0.93934   0.51922   0.00000  Uiso   1.00
H77    H     0.67276   0.40774   0.61622   0.00000  Uiso   1.00
H78    H     0.55743   0.40253   0.78861   0.00000  Uiso   1.00
H79    H     0.66970   0.38785   0.48748   0.00000  Uiso   1.00
H80    H     0.78833   0.48566   0.57303   0.00000  Uiso   1.00
H81    H     0.43399   0.31346   0.97894   0.00000  Uiso   1.00
H82    H     0.67074   0.28252   0.34396   0.00000  Uiso   1.00
H83    H     0.92090   0.48877   0.52436   0.00000  Uiso   1.00
O84    O     0.37333   0.02372   0.08966   0.00000  Uiso   1.00
O85    O     0.68395   0.98314   0.25659   0.00000  Uiso   1.00
O86    O     0.01214   0.25373   0.49326   0.00000  Uiso   1.00
N87    N     0.47215   0.89406   0.95136   0.00000  Uiso   1.00
N88    N     0.69349   0.86513   0.35771   0.00000  Uiso   1.00
N89    N     0.92737   0.05795   0.52634   0.00000  Uiso   1.00
N90    N     0.45644   0.18970   0.95413   0.00000  Uiso   1.00
N91    N     0.67778   0.16078   0.36047   0.00000  Uiso   1.00
N92    N     0.91166   0.35360   0.52910   0.00000  Uiso   1.00
C93    C     0.69904   0.58697   0.11161   0.00000  Uiso   1.00
C94    C     0.63268   0.51994   0.20592   0.00000  Uiso   1.00
C95    C     0.58563   0.62828   0.28368   0.00000  Uiso   1.00
C96    C     0.52811   0.54098   0.36336   0.00000  Uiso   1.00
C97    C     0.42657   0.46565   0.50953   0.00000  Uiso   1.00
C98    C     0.69367   0.52792   0.04231   0.00000  Uiso   1.00
C99    C     0.69791   0.64296   0.98251   0.00000  Uiso   1.00
C100   C     0.69174   0.56237   0.92446   0.00000  Uiso   1.00
C101   C     0.68494   0.49941   0.81657   0.00000  Uiso   1.00
C102   C     0.75812   0.47478   0.08881   0.00000  Uiso   1.00
C103   C     0.81656   0.54514   0.06806   0.00000  Uiso   1.00
C104   C     0.86466   0.41981   0.04913   0.00000  Uiso   1.00
C105   C     0.95793   0.27434   0.01343   0.00000  Uiso   1.00
C106   C     0.68057   0.23929   0.11485   0.00000  Uiso   1.00
C107   C     0.62264   0.33110   0.20768   0.00000  Uiso   1.00
C108   C     0.56518   0.24361   0.28727   0.00000  Uiso   1.00
C109   C     0.51806   0.35180   0.36513   0.00000  Uiso   1.00
C110   C     0.68363   0.33908   0.04408   0.00000  Uiso   1.00
C111   C     0.67746   0.25830   0.98610   0.00000  Uiso   1.00
C112   C     0.68169   0.37319   0.92622   0.00000  Uiso   1.00
C113   C     0.74808   0.28593   0.09057   0.00000  Uiso   1.00
C114   C     0.79611   0.16047   0.07166   0.00000  Uiso   1.00
C115   C     0.85461   0.23062   0.05089   0.00000  Uiso   1.00
H116   H     0.70686   0.73399   0.11023   0.00000  Uiso   1.00
H117   H     0.59341   0.77442   0.28228   0.00000  Uiso   1.00
H118   H     0.70568   0.78909   0.98115   0.00000  Uiso   1.00
H119   H     0.82431   0.69128   0.06670   0.00000  Uiso   1.00
H120   H     0.46319   0.73598   0.47381   0.00000  Uiso   1.00
H121   H     0.69994   0.76691   0.83883   0.00000  Uiso   1.00
H122   H     0.95010   0.56066   0.01922   0.00000  Uiso   1.00
H123   H     0.67276   0.09226   0.11622   0.00000  Uiso   1.00
H124   H     0.55743   0.09747   0.28861   0.00000  Uiso   1.00
H125   H     0.66970   0.11215   0.98748   0.00000  Uiso   1.00
H126   H     0.78833   0.01434   0.07303   0.00000  Uiso   1.00
H127   H     0.43399   0.18654   0.47894   0.00000  Uiso   1.00
H128   H     0.67074   0.21748   0.84396   0.00000  Uiso   1.00
H129   H     0.92090   0.01123   0.02436   0.00000  Uiso   1.00
O130   O     0.37333   0.47628   0.58966   0.00000  Uiso   1.00
O131   O     0.68395   0.51686   0.75659   0.00000  Uiso   1.00
O132   O     0.01214   0.24627   0.99326   0.00000  Uiso   1.00
N133   N     0.47215   0.60594   0.45136   0.00000  Uiso   1.00
N134   N     0.69349   0.63487   0.85771   0.00000  Uiso   1.00
N135   N     0.92737   0.44205   0.02634   0.00000  Uiso   1.00
N136   N     0.45644   0.31030   0.45413   0.00000  Uiso   1.00
N137   N     0.67778   0.33922   0.86047   0.00000  Uiso   1.00
N138   N     0.91166   0.14640   0.02910   0.00000  Uiso   1.00
C139   C     0.30096   0.08697   0.38839   0.00000  Uiso   1.00
C140   C     0.36732   0.01994   0.29408   0.00000  Uiso   1.00
C141   C     0.41437   0.12828   0.21632   0.00000  Uiso   1.00
C142   C     0.47189   0.04098   0.13664   0.00000  Uiso   1.00
C143   C     0.57343   0.96565   0.99047   0.00000  Uiso   1.00
C144   C     0.30633   0.02792   0.45769   0.00000  Uiso   1.00
C145   C     0.30209   0.14296   0.51749   0.00000  Uiso   1.00
C146   C     0.30826   0.06237   0.57554   0.00000  Uiso   1.00
C147   C     0.31506   0.99941   0.68343   0.00000  Uiso   1.00
C148   C     0.24188   0.97478   0.41119   0.00000  Uiso   1.00
C149   C     0.18344   0.04514   0.43194   0.00000  Uiso   1.00
C150   C     0.13534   0.91981   0.45087   0.00000  Uiso   1.00
C151   C     0.04207   0.77434   0.48657   0.00000  Uiso   1.00
C152   C     0.31943   0.73929   0.38515   0.00000  Uiso   1.00
C153   C     0.37736   0.83110   0.29232   0.00000  Uiso   1.00
C154   C     0.43482   0.74361   0.21273   0.00000  Uiso   1.00
C155   C     0.48194   0.85180   0.13487   0.00000  Uiso   1.00
C156   C     0.31637   0.83908   0.45592   0.00000  Uiso   1.00
C157   C     0.32254   0.75830   0.51390   0.00000  Uiso   1.00
C158   C     0.31831   0.87319   0.57378   0.00000  Uiso   1.00
C159   C     0.25192   0.78593   0.40943   0.00000  Uiso   1.00
C160   C     0.20389   0.66047   0.42834   0.00000  Uiso   1.00
C161   C     0.14539   0.73062   0.44911   0.00000  Uiso   1.00
H162   H     0.29314   0.23399   0.38977   0.00000  Uiso   1.00
H163   H     0.40659   0.27442   0.21772   0.00000  Uiso   1.00
H164   H     0.29432   0.28909   0.51885   0.00000  Uiso   1.00
H165   H     0.17569   0.19128   0.43330   0.00000  Uiso   1.00
H166   H     0.53681   0.23598   0.02619   0.00000  Uiso   1.00
H167   H     0.30006   0.26691   0.66117   0.00000  Uiso   1.00
H168   H     0.04990   0.06066   0.48078   0.00000  Uiso   1.00
H169   H     0.32724   0.59226   0.38378   0.00000  Uiso   1.00
H170   H     0.44257   0.59747   0.21139   0.00000  Uiso   1.00
H171   H     0.33030   0.61215   0.51252   0.00000  Uiso   1.00
H172   H     0.21167   0.51434   0.42697   0.00000  Uiso   1.00
H173   H     0.56601   0.68654   0.02106   0.00000  Uiso   1.00
H174   H     0.32926   0.71748   0.65604   0.00000  Uiso   1.00
H175   H     0.07910   0.51123   0.47564   0.00000  Uiso   1.00
O176   O     0.62667   0.97628   0.91034   0.00000  Uiso   1.00
O177   O     0.31605   0.01686   0.74341   0.00000  Uiso   1.00
O178   O     0.98786   0.74627   0.50674   0.00000  Uiso   1.00
N179   N     0.52785   0.10594   0.04864   0.00000  Uiso   1.00
N180   N     0.30651   0.13487   0.64229   0.00000  Uiso   1.00
N181   N     0.07263   0.94205   0.47366   0.00000  Uiso   1.00
N182   N     0.54356   0.81030   0.04587   0.00000  Uiso   1.00
N183   N     0.32222   0.83922   0.63953   0.00000  Uiso   1.00
N184   N     0.08834   0.64640   0.47090   0.00000  Uiso   1.00
