data_job_06914
_audit_creation_date              2018-12-19
_audit_creation_method            'Materials Studio'
_symmetry_space_group_name_H-M    'P1'
_symmetry_Int_Tables_number       1
_symmetry_cell_setting            triclinic
loop_
_symmetry_equiv_pos_as_xyz
  x,y,z
_cell_length_a                    11.9404
_cell_length_b                    30.1468
_cell_length_c                    32.4322
_cell_angle_alpha                 117.5141
_cell_angle_beta                  87.5923
_cell_angle_gamma                 101.0412
loop_
_atom_site_label
_atom_site_type_symbol
_atom_site_fract_x
_atom_site_fract_y
_atom_site_fract_z
_atom_site_U_iso_or_equiv
_atom_site_adp_type
_atom_site_occupancy
C1     C     0.25123   0.44145   0.31135   0.00000  Uiso   1.00
C2     C     0.14288   0.40549   0.31182   0.00000  Uiso   1.00
C3     C     0.03974   0.41948   0.32883   0.00000  Uiso   1.00
C4     C     0.95078   0.38092   0.32611   0.00000  Uiso   1.00
C5     C     0.78046   0.33281   0.32975   0.00000  Uiso   1.00
C6     C     0.34438   0.43458   0.33744   0.00000  Uiso   1.00
C7     C     0.41067   0.47302   0.37600   0.00000  Uiso   1.00
C8     C     0.49135   0.45895   0.39485   0.00000  Uiso   1.00
C9     C     0.63392   0.45599   0.43825   0.00000  Uiso   1.00
C10    C     0.28386   0.42030   0.26076   0.00000  Uiso   1.00
C11    C     0.29929   0.44675   0.23485   0.00000  Uiso   1.00
C12    C     0.32905   0.42066   0.18914   0.00000  Uiso   1.00
C13    C     0.37764   0.39554   0.11349   0.00000  Uiso   1.00
C14    C     0.27666   0.34809   0.27627   0.00000  Uiso   1.00
C15    C     0.15669   0.35478   0.29276   0.00000  Uiso   1.00
C16    C     0.06787   0.31619   0.29002   0.00000  Uiso   1.00
C17    C     0.96461   0.33012   0.30702   0.00000  Uiso   1.00
C18    C     0.35819   0.38387   0.31839   0.00000  Uiso   1.00
C19    C     0.43880   0.36973   0.33719   0.00000  Uiso   1.00
C20    C     0.50519   0.40815   0.37576   0.00000  Uiso   1.00
C21    C     0.29767   0.36959   0.24171   0.00000  Uiso   1.00
C22    C     0.32742   0.34346   0.19603   0.00000  Uiso   1.00
C23    C     0.34288   0.36986   0.17005   0.00000  Uiso   1.00
H24    H     0.24048   0.48093   0.32619   0.00000  Uiso   1.00
H25    H     0.02909   0.45873   0.34358   0.00000  Uiso   1.00
H26    H     0.39997   0.51226   0.39073   0.00000  Uiso   1.00
H27    H     0.28860   0.48599   0.24960   0.00000  Uiso   1.00
H28    H     0.80082   0.41176   0.35447   0.00000  Uiso   1.00
H29    H     0.58287   0.52464   0.45389   0.00000  Uiso   1.00
H30    H     0.34803   0.46924   0.15629   0.00000  Uiso   1.00
H31    H     0.28741   0.30861   0.26144   0.00000  Uiso   1.00
H32    H     0.07858   0.27695   0.27527   0.00000  Uiso   1.00
H33    H     0.44947   0.33049   0.32243   0.00000  Uiso   1.00
H34    H     0.33810   0.30422   0.18130   0.00000  Uiso   1.00
H35    H     0.84099   0.26422   0.29903   0.00000  Uiso   1.00
H36    H     0.62305   0.37710   0.39845   0.00000  Uiso   1.00
H37    H     0.38820   0.32170   0.10085   0.00000  Uiso   1.00
O38    O     0.68270   0.32028   0.33703   0.00000  Uiso   1.00
O39    O     0.70873   0.46837   0.46746   0.00000  Uiso   1.00
O40    O     0.40062   0.39569   0.07702   0.00000  Uiso   1.00
N41    N     0.83893   0.38138   0.33951   0.00000  Uiso   1.00
N42    N     0.57008   0.48691   0.43247   0.00000  Uiso   1.00
N43    N     0.35056   0.43513   0.15425   0.00000  Uiso   1.00
N44    N     0.86054   0.30199   0.30968   0.00000  Uiso   1.00
N45    N     0.59170   0.40752   0.40264   0.00000  Uiso   1.00
N46    N     0.37217   0.35574   0.12441   0.00000  Uiso   1.00
C47    C     0.89560   0.68471   0.11556   0.00000  Uiso   1.00
C48    C     0.83421   0.71266   0.09739   0.00000  Uiso   1.00
C49    C     0.71703   0.70423   0.08919   0.00000  Uiso   1.00
C50    C     0.67764   0.73373   0.07256   0.00000  Uiso   1.00
C51    C     0.57089   0.77154   0.04557   0.00000  Uiso   1.00
C52    C     0.98207   0.66180   0.07970   0.00000  Uiso   1.00
C53    C     0.98921   0.61062   0.05663   0.00000  Uiso   1.00
C54    C     0.07430   0.59732   0.02512   0.00000  Uiso   1.00
C55    C     0.19714   0.55618   0.97068   0.00000  Uiso   1.00
C56    C     0.96539   0.72585   0.15934   0.00000  Uiso   1.00
C57    C     0.95853   0.72851   0.20323   0.00000  Uiso   1.00
C58    C     0.02960   0.76912   0.23876   0.00000  Uiso   1.00
C59    C     0.12654   0.82742   0.30798   0.00000  Uiso   1.00
C60    C     0.03403   0.75209   0.10063   0.00000  Uiso   1.00
C61    C     0.90940   0.74925   0.08928   0.00000  Uiso   1.00
C62    C     0.87018   0.77878   0.07267   0.00000  Uiso   1.00
C63    C     0.75296   0.77040   0.06444   0.00000  Uiso   1.00
C64    C     0.05725   0.69840   0.07159   0.00000  Uiso   1.00
C65    C     0.14236   0.68517   0.04011   0.00000  Uiso   1.00
C66    C     0.14962   0.63398   0.01699   0.00000  Uiso   1.00
C67    C     0.04057   0.76245   0.15124   0.00000  Uiso   1.00
C68    C     0.11167   0.80306   0.18671   0.00000  Uiso   1.00
C69    C     0.10492   0.80578   0.23064   0.00000  Uiso   1.00
H70    H     0.83707   0.65622   0.12187   0.00000  Uiso   1.00
H71    H     0.65887   0.67590   0.09546   0.00000  Uiso   1.00
H72    H     0.93102   0.58231   0.06291   0.00000  Uiso   1.00
H73    H     0.90034   0.70018   0.20949   0.00000  Uiso   1.00
H74    H     0.49447   0.71385   0.06259   0.00000  Uiso   1.00
H75    H     0.06833   0.51651   0.99397   0.00000  Uiso   1.00
H76    H     0.00363   0.76506   0.30306   0.00000  Uiso   1.00
H77    H     0.09257   0.78058   0.09432   0.00000  Uiso   1.00
H78    H     0.92838   0.80709   0.06640   0.00000  Uiso   1.00
H79    H     0.20053   0.71350   0.03385   0.00000  Uiso   1.00
H80    H     0.16984   0.83137   0.18042   0.00000  Uiso   1.00
H81    H     0.71321   0.82033   0.03900   0.00000  Uiso   1.00
H82    H     0.28707   0.62299   0.97038   0.00000  Uiso   1.00
H83    H     0.22237   0.87154   0.27947   0.00000  Uiso   1.00
O84    O     0.49123   0.78228   0.03291   0.00000  Uiso   1.00
O85    O     0.24412   0.52337   0.94290   0.00000  Uiso   1.00
O86    O     0.15923   0.84947   0.34840   0.00000  Uiso   1.00
N87    N     0.56848   0.73528   0.06088   0.00000  Uiso   1.00
N88    N     0.10499   0.55078   0.99672   0.00000  Uiso   1.00
N89    N     0.04453   0.78315   0.28568   0.00000  Uiso   1.00
N90    N     0.68619   0.79258   0.04819   0.00000  Uiso   1.00
N91    N     0.22269   0.60807   0.98403   0.00000  Uiso   1.00
N92    N     0.16223   0.84044   0.27299   0.00000  Uiso   1.00
C93    C     0.17479   0.84299   0.46017   0.00000  Uiso   1.00
C94    C     0.08840   0.85812   0.49786   0.00000  Uiso   1.00
C95    C     0.98798   0.87362   0.49513   0.00000  Uiso   1.00
C96    C     0.92046   0.88584   0.53331   0.00000  Uiso   1.00
C97    C     0.78149   0.90983   0.58584   0.00000  Uiso   1.00
C98    C     0.28905   0.87754   0.48315   0.00000  Uiso   1.00
C99    C     0.35734   0.90936   0.46805   0.00000  Uiso   1.00
C100   C     0.45874   0.93793   0.49386   0.00000  Uiso   1.00
C101   C     0.63132   0.99204   0.52353   0.00000  Uiso   1.00
C102   C     0.18715   0.78931   0.44930   0.00000  Uiso   1.00
C103   C     0.16979   0.74695   0.40574   0.00000  Uiso   1.00
C104   C     0.18542   0.70123   0.40304   0.00000  Uiso   1.00
C105   C     0.19978   0.61836   0.38016   0.00000  Uiso   1.00
C106   C     0.23346   0.83712   0.53284   0.00000  Uiso   1.00
C107   C     0.12027   0.85493   0.53733   0.00000  Uiso   1.00
C108   C     0.05288   0.86712   0.57553   0.00000  Uiso   1.00
C109   C     0.95238   0.88264   0.57285   0.00000  Uiso   1.00
C110   C     0.32092   0.87435   0.52262   0.00000  Uiso   1.00
C111   C     0.42224   0.90287   0.54845   0.00000  Uiso   1.00
C112   C     0.49066   0.93473   0.53340   0.00000  Uiso   1.00
C113   C     0.21901   0.78612   0.48877   0.00000  Uiso   1.00
C114   C     0.23468   0.74046   0.48614   0.00000  Uiso   1.00
C115   C     0.21734   0.69804   0.44258   0.00000  Uiso   1.00
H116   H     0.14999   0.84548   0.42944   0.00000  Uiso   1.00
H117   H     0.96335   0.87609   0.46458   0.00000  Uiso   1.00
H118   H     0.33266   0.91182   0.43751   0.00000  Uiso   1.00
H119   H     0.14513   0.74943   0.37520   0.00000  Uiso   1.00
H120   H     0.77050   0.90863   0.52095   0.00000  Uiso   1.00
H121   H     0.54922   0.98397   0.46385   0.00000  Uiso   1.00
H122   H     0.15378   0.64154   0.33247   0.00000  Uiso   1.00
H123   H     0.25827   0.83464   0.56357   0.00000  Uiso   1.00
H124   H     0.07756   0.86465   0.60606   0.00000  Uiso   1.00
H125   H     0.44688   0.90039   0.57899   0.00000  Uiso   1.00
H126   H     0.25934   0.73800   0.51669   0.00000  Uiso   1.00
H127   H     0.86320   0.89936   0.63578   0.00000  Uiso   1.00
H128   H     0.64193   0.97469   0.57869   0.00000  Uiso   1.00
H129   H     0.24648   0.63227   0.44731   0.00000  Uiso   1.00
O130   O     0.69604   0.92395   0.60391   0.00000  Uiso   1.00
O131   O     0.71770   0.02278   0.52899   0.00000  Uiso   1.00
O132   O     0.19889   0.57353   0.35663   0.00000  Uiso   1.00
N133   N     0.81710   0.90232   0.54214   0.00000  Uiso   1.00
N134   N     0.54516   0.97276   0.48876   0.00000  Uiso   1.00
N135   N     0.17548   0.65263   0.36593   0.00000  Uiso   1.00
N136   N     0.86698   0.89733   0.60393   0.00000  Uiso   1.00
N137   N     0.59504   0.96777   0.55055   0.00000  Uiso   1.00
N138   N     0.22536   0.64763   0.42772   0.00000  Uiso   1.00
C139   C     0.78340   0.12386   0.64842   0.00000  Uiso   1.00
C140   C     0.67833   0.08961   0.65388   0.00000  Uiso   1.00
C141   C     0.56889   0.08113   0.63547   0.00000  Uiso   1.00
C142   C     0.48440   0.04848   0.64437   0.00000  Uiso   1.00
C143   C     0.31758   0.99883   0.64881   0.00000  Uiso   1.00
C144   C     0.87195   0.09026   0.62698   0.00000  Uiso   1.00
C145   C     0.92532   0.08232   0.58596   0.00000  Uiso   1.00
C146   C     0.00382   0.05022   0.57223   0.00000  Uiso   1.00
C147   C     0.13767   0.00160   0.53493   0.00000  Uiso   1.00
C148   C     0.83045   0.16232   0.69766   0.00000  Uiso   1.00
C149   C     0.84895   0.21497   0.71607   0.00000  Uiso   1.00
C150   C     0.89254   0.24354   0.76183   0.00000  Uiso   1.00
C151   C     0.96195   0.30680   0.83427   0.00000  Uiso   1.00
C152   C     0.82795   0.08097   0.69696   0.00000  Uiso   1.00
C153   C     0.70253   0.06632   0.68024   0.00000  Uiso   1.00
C154   C     0.61818   0.03368   0.68918   0.00000  Uiso   1.00
C155   C     0.50863   0.02514   0.67078   0.00000  Uiso   1.00
C156   C     0.89615   0.06696   0.65335   0.00000  Uiso   1.00
C157   C     0.97460   0.03487   0.63967   0.00000  Uiso   1.00
C158   C     0.02806   0.02688   0.59864   0.00000  Uiso   1.00
C159   C     0.85464   0.13902   0.72403   0.00000  Uiso   1.00
C160   C     0.89823   0.16752   0.76977   0.00000  Uiso   1.00
C161   C     0.91678   0.22020   0.78824   0.00000  Uiso   1.00
H162   H     0.76457   0.14200   0.62789   0.00000  Uiso   1.00
H163   H     0.55021   0.09916   0.61506   0.00000  Uiso   1.00
H164   H     0.90658   0.10036   0.56557   0.00000  Uiso   1.00
H165   H     0.83022   0.23299   0.69565   0.00000  Uiso   1.00
H166   H     0.32322   0.04138   0.61246   0.00000  Uiso   1.00
H167   H     0.07469   0.04392   0.50810   0.00000  Uiso   1.00
H168   H     0.91367   0.32359   0.78241   0.00000  Uiso   1.00
H169   H     0.84679   0.06283   0.71749   0.00000  Uiso   1.00
H170   H     0.63693   0.01565   0.70958   0.00000  Uiso   1.00
H171   H     0.99330   0.01685   0.66008   0.00000  Uiso   1.00
H172   H     0.91694   0.14948   0.79016   0.00000  Uiso   1.00
H173   H     0.39361   0.97360   0.68916   0.00000  Uiso   1.00
H174   H     0.14508   0.97614   0.58481   0.00000  Uiso   1.00
H175   H     0.98406   0.25581   0.85911   0.00000  Uiso   1.00
O176   O     0.21889   0.97787   0.64398   0.00000  Uiso   1.00
O177   O     0.20480   0.98121   0.50708   0.00000  Uiso   1.00
O178   O     0.99353   0.34813   0.86695   0.00000  Uiso   1.00
N179   N     0.36858   0.03191   0.63160   0.00000  Uiso   1.00
N180   N     0.07115   0.03428   0.53404   0.00000  Uiso   1.00
N181   N     0.92063   0.29575   0.79048   0.00000  Uiso   1.00
N182   N     0.40646   0.99544   0.67288   0.00000  Uiso   1.00
N183   N     0.10902   0.99781   0.57531   0.00000  Uiso   1.00
N184   N     0.95851   0.25928   0.83176   0.00000  Uiso   1.00
C185   C     0.37415   0.59989   0.86598   0.00000  Uiso   1.00
C186   C     0.33118   0.64931   0.89502   0.00000  Uiso   1.00
C187   C     0.21979   0.65301   0.90803   0.00000  Uiso   1.00
C188   C     0.19773   0.70171   0.93463   0.00000  Uiso   1.00
C189   C     0.11790   0.77184   0.97775   0.00000  Uiso   1.00
C190   C     0.47210   0.60063   0.89513   0.00000  Uiso   1.00
C191   C     0.47920   0.56341   0.90821   0.00000  Uiso   1.00
C192   C     0.57578   0.57113   0.93489   0.00000  Uiso   1.00
C193   C     0.71477   0.56567   0.97815   0.00000  Uiso   1.00
C194   C     0.42807   0.60448   0.82432   0.00000  Uiso   1.00
C195   C     0.39816   0.57049   0.77786   0.00000  Uiso   1.00
C196   C     0.45768   0.58145   0.74493   0.00000  Uiso   1.00
C197   C     0.52830   0.58197   0.67824   0.00000  Uiso   1.00
C198   C     0.53307   0.67979   0.89009   0.00000  Uiso   1.00
C199   C     0.41751   0.69270   0.90812   0.00000  Uiso   1.00
C200   C     0.39561   0.74141   0.93470   0.00000  Uiso   1.00
C201   C     0.28420   0.74518   0.94774   0.00000  Uiso   1.00
C202   C     0.55842   0.64403   0.90822   0.00000  Uiso   1.00
C203   C     0.65502   0.65181   0.93488   0.00000  Uiso   1.00
C204   C     0.66225   0.61461   0.94801   0.00000  Uiso   1.00
C205   C     0.51438   0.64788   0.83741   0.00000  Uiso   1.00
C206   C     0.57398   0.65889   0.80454   0.00000  Uiso   1.00
C207   C     0.54416   0.62492   0.75804   0.00000  Uiso   1.00
H208   H     0.30695   0.56611   0.85579   0.00000  Uiso   1.00
H209   H     0.15301   0.61942   0.89790   0.00000  Uiso   1.00
H210   H     0.41239   0.52983   0.89807   0.00000  Uiso   1.00
H211   H     0.33136   0.53691   0.76775   0.00000  Uiso   1.00
H212   H     0.02042   0.69767   0.95036   0.00000  Uiso   1.00
H213   H     0.56735   0.50875   0.95073   0.00000  Uiso   1.00
H214   H     0.39648   0.52368   0.67591   0.00000  Uiso   1.00
H215   H     0.60027   0.71357   0.90028   0.00000  Uiso   1.00
H216   H     0.46243   0.77498   0.94483   0.00000  Uiso   1.00
H217   H     0.72180   0.68539   0.94501   0.00000  Uiso   1.00
H218   H     0.64077   0.69248   0.81468   0.00000  Uiso   1.00
H219   H     0.27155   0.82393   0.98846   0.00000  Uiso   1.00
H220   H     0.81848   0.63501   0.98882   0.00000  Uiso   1.00
H221   H     0.64761   0.64995   0.71400   0.00000  Uiso   1.00
O222   O     0.05002   0.79853   0.99792   0.00000  Uiso   1.00
O223   O     0.76757   0.55068   0.99839   0.00000  Uiso   1.00
O224   O     0.54339   0.57027   0.63784   0.00000  Uiso   1.00
N225   N     0.09844   0.71895   0.95321   0.00000  Uiso   1.00
N226   N     0.60977   0.54233   0.95355   0.00000  Uiso   1.00
N227   N     0.45004   0.55629   0.69662   0.00000  Uiso   1.00
N228   N     0.23357   0.78689   0.97371   0.00000  Uiso   1.00
N229   N     0.74490   0.61027   0.97405   0.00000  Uiso   1.00
N230   N     0.58517   0.62423   0.71712   0.00000  Uiso   1.00
C231   C     0.67688   0.37306   0.51655   0.00000  Uiso   1.00
C232   C     0.58094   0.34978   0.47871   0.00000  Uiso   1.00
C233   C     0.48349   0.36918   0.48033   0.00000  Uiso   1.00
C234   C     0.40588   0.34227   0.44220   0.00000  Uiso   1.00
C235   C     0.25401   0.31293   0.38927   0.00000  Uiso   1.00
C236   C     0.78636   0.38163   0.49304   0.00000  Uiso   1.00
C237   C     0.86162   0.42780   0.50672   0.00000  Uiso   1.00
C238   C     0.95693   0.42770   0.48066   0.00000  Uiso   1.00
C239   C     0.12400   0.44780   0.45000   0.00000  Uiso   1.00
C240   C     0.68765   0.33140   0.52952   0.00000  Uiso   1.00
C241   C     0.67996   0.33536   0.57387   0.00000  Uiso   1.00
C242   C     0.69220   0.29298   0.57852   0.00000  Uiso   1.00
C243   C     0.70603   0.23509   0.60449   0.00000  Uiso   1.00
C244   C     0.71233   0.29078   0.44596   0.00000  Uiso   1.00
C245   C     0.60020   0.30509   0.44037   0.00000  Uiso   1.00
C246   C     0.52271   0.27814   0.40223   0.00000  Uiso   1.00
C247   C     0.42516   0.29750   0.40379   0.00000  Uiso   1.00
C248   C     0.80561   0.33694   0.45470   0.00000  Uiso   1.00
C249   C     0.90084   0.33677   0.42861   0.00000  Uiso   1.00
C250   C     0.97622   0.38293   0.44224   0.00000  Uiso   1.00
C251   C     0.70691   0.28671   0.49118   0.00000  Uiso   1.00
C252   C     0.71917   0.24432   0.49576   0.00000  Uiso   1.00
C253   C     0.71149   0.24820   0.54010   0.00000  Uiso   1.00
H254   H     0.66190   0.40786   0.54640   0.00000  Uiso   1.00
H255   H     0.46863   0.40377   0.51001   0.00000  Uiso   1.00
H256   H     0.84670   0.46238   0.53639   0.00000  Uiso   1.00
H257   H     0.66506   0.36995   0.60353   0.00000  Uiso   1.00
H258   H     0.26287   0.37953   0.45274   0.00000  Uiso   1.00
H259   H     0.06007   0.50312   0.50839   0.00000  Uiso   1.00
H260   H     0.67705   0.30820   0.64996   0.00000  Uiso   1.00
H261   H     0.72732   0.25598   0.41610   0.00000  Uiso   1.00
H262   H     0.53763   0.24356   0.37256   0.00000  Uiso   1.00
H263   H     0.91571   0.30217   0.39895   0.00000  Uiso   1.00
H264   H     0.73407   0.20974   0.46608   0.00000  Uiso   1.00
H265   H     0.31887   0.24950   0.34118   0.00000  Uiso   1.00
H266   H     0.11608   0.37309   0.39683   0.00000  Uiso   1.00
H267   H     0.73306   0.17817   0.53840   0.00000  Uiso   1.00
O268   O     0.16492   0.30909   0.37066   0.00000  Uiso   1.00
O269   O     0.21083   0.47123   0.44367   0.00000  Uiso   1.00
O270   O     0.70832   0.21551   0.62941   0.00000  Uiso   1.00
N271   N     0.30207   0.35063   0.43247   0.00000  Uiso   1.00
N272   N     0.04740   0.46618   0.48449   0.00000  Uiso   1.00
N273   N     0.68934   0.28395   0.61685   0.00000  Uiso   1.00
N274   N     0.33220   0.28066   0.37244   0.00000  Uiso   1.00
N275   N     0.07753   0.39621   0.42446   0.00000  Uiso   1.00
N276   N     0.71947   0.21398   0.55682   0.00000  Uiso   1.00
C277   C     0.06753   0.60121   0.66783   0.00000  Uiso   1.00
C278   C     0.17584   0.63781   0.66846   0.00000  Uiso   1.00
C279   C     0.27917   0.62433   0.65116   0.00000  Uiso   1.00
C280   C     0.36805   0.66344   0.65503   0.00000  Uiso   1.00
C281   C     0.53834   0.71256   0.65289   0.00000  Uiso   1.00
C282   C     0.97452   0.60917   0.64252   0.00000  Uiso   1.00
C283   C     0.90859   0.57160   0.60342   0.00000  Uiso   1.00
C284   C     0.82799   0.58661   0.58545   0.00000  Uiso   1.00
C285   C     0.68569   0.59125   0.54306   0.00000  Uiso   1.00
C286   C     0.03446   0.62067   0.71828   0.00000  Uiso   1.00
C287   C     0.01888   0.59277   0.74288   0.00000  Uiso   1.00
C288   C     0.98871   0.61746   0.78870   0.00000  Uiso   1.00
C289   C     0.93947   0.63996   0.86393   0.00000  Uiso   1.00
C290   C     0.04160   0.69466   0.70546   0.00000  Uiso   1.00
C291   C     0.16175   0.68857   0.68890   0.00000  Uiso   1.00
C292   C     0.25049   0.72772   0.69280   0.00000  Uiso   1.00
C293   C     0.35394   0.71429   0.67551   0.00000  Uiso   1.00
C294   C     0.96044   0.65993   0.66296   0.00000  Uiso   1.00
C295   C     0.87990   0.67499   0.64505   0.00000  Uiso   1.00
C296   C     0.81388   0.63745   0.60593   0.00000  Uiso   1.00
C297   C     0.02037   0.67143   0.73872   0.00000  Uiso   1.00
C298   C     0.99021   0.69616   0.78451   0.00000  Uiso   1.00
C299   C     0.97460   0.66831   0.80917   0.00000  Uiso   1.00
H300   H     0.07849   0.56169   0.65191   0.00000  Uiso   1.00
H301   H     0.29004   0.58504   0.63534   0.00000  Uiso   1.00
H302   H     0.91950   0.53232   0.58761   0.00000  Uiso   1.00
H303   H     0.02979   0.55349   0.72705   0.00000  Uiso   1.00
H304   H     0.51836   0.63331   0.62597   0.00000  Uiso   1.00
H305   H     0.73704   0.52215   0.52533   0.00000  Uiso   1.00
H306   H     0.96960   0.56679   0.81937   0.00000  Uiso   1.00
H307   H     0.03063   0.73417   0.72137   0.00000  Uiso   1.00
H308   H     0.23956   0.76699   0.70861   0.00000  Uiso   1.00
H309   H     0.86903   0.71427   0.66088   0.00000  Uiso   1.00
H310   H     0.97931   0.73544   0.80032   0.00000  Uiso   1.00
H311   H     0.47739   0.78099   0.68544   0.00000  Uiso   1.00
H312   H     0.69606   0.66983   0.58480   0.00000  Uiso   1.00
H313   H     0.92863   0.71447   0.87883   0.00000  Uiso   1.00
O314   O     0.63616   0.72563   0.64605   0.00000  Uiso   1.00
O315   O     0.61110   0.57978   0.51402   0.00000  Uiso   1.00
O316   O     0.91621   0.63835   0.89978   0.00000  Uiso   1.00
N317   N     0.48005   0.66357   0.64173   0.00000  Uiso   1.00
N318   N     0.74958   0.55964   0.54763   0.00000  Uiso   1.00
N319   N     0.96697   0.60137   0.82252   0.00000  Uiso   1.00
N320   N     0.45800   0.74303   0.67373   0.00000  Uiso   1.00
N321   N     0.72753   0.63910   0.57963   0.00000  Uiso   1.00
N322   N     0.94492   0.68083   0.85452   0.00000  Uiso   1.00
C323   C     0.46794   0.32141   0.84606   0.00000  Uiso   1.00
C324   C     0.54811   0.30845   0.87249   0.00000  Uiso   1.00
C325   C     0.66371   0.32925   0.88308   0.00000  Uiso   1.00
C326   C     0.72216   0.31241   0.90752   0.00000  Uiso   1.00
C327   C     0.85503   0.29783   0.94654   0.00000  Uiso   1.00
C328   C     0.37057   0.33892   0.87786   0.00000  Uiso   1.00
C329   C     0.33690   0.38535   0.89296   0.00000  Uiso   1.00
C330   C     0.24589   0.39415   0.92191   0.00000  Uiso   1.00
C331   C     0.10309   0.42687   0.96925   0.00000  Uiso   1.00
C332   C     0.41540   0.27100   0.80468   0.00000  Uiso   1.00
C333   C     0.41938   0.26032   0.75825   0.00000  Uiso   1.00
C334   C     0.36609   0.21194   0.72559   0.00000  Uiso   1.00
C335   C     0.29288   0.13921   0.65930   0.00000  Uiso   1.00
C336   C     0.36618   0.25449   0.87064   0.00000  Uiso   1.00
C337   C     0.49283   0.27210   0.88585   0.00000  Uiso   1.00
C338   C     0.55112   0.25522   0.91027   0.00000  Uiso   1.00
C339   C     0.66679   0.27599   0.92089   0.00000  Uiso   1.00
C340   C     0.31530   0.30258   0.89122   0.00000  Uiso   1.00
C341   C     0.22431   0.31131   0.92015   0.00000  Uiso   1.00
C342   C     0.19052   0.35774   0.93529   0.00000  Uiso   1.00
C343   C     0.36012   0.23465   0.81803   0.00000  Uiso   1.00
C344   C     0.30680   0.18628   0.78544   0.00000  Uiso   1.00
C345   C     0.31071   0.17553   0.73896   0.00000  Uiso   1.00
H346   H     0.51097   0.34971   0.83567   0.00000  Uiso   1.00
H347   H     0.70645   0.35739   0.87274   0.00000  Uiso   1.00
H348   H     0.37968   0.41347   0.88262   0.00000  Uiso   1.00
H349   H     0.46216   0.28846   0.74793   0.00000  Uiso   1.00
H350   H     0.89880   0.34988   0.91975   0.00000  Uiso   1.00
H351   H     0.20977   0.46813   0.94055   0.00000  Uiso   1.00
H352   H     0.38369   0.20452   0.65653   0.00000  Uiso   1.00
H353   H     0.32314   0.22619   0.88104   0.00000  Uiso   1.00
H354   H     0.50832   0.22709   0.92060   0.00000  Uiso   1.00
H355   H     0.18156   0.28317   0.93048   0.00000  Uiso   1.00
H356   H     0.26404   0.15816   0.79579   0.00000  Uiso   1.00
H357   H     0.73799   0.24413   0.95859   0.00000  Uiso   1.00
H358   H     0.04895   0.36238   0.97940   0.00000  Uiso   1.00
H359   H     0.22288   0.09877   0.69538   0.00000  Uiso   1.00
O360   O     0.94359   0.29983   0.96439   0.00000  Uiso   1.00
O361   O     0.03960   0.45497   0.99168   0.00000  Uiso   1.00
O362   O     0.26779   0.10912   0.61905   0.00000  Uiso   1.00
N363   N     0.83554   0.32486   0.92345   0.00000  Uiso   1.00
N364   N     0.19135   0.43542   0.94291   0.00000  Uiso   1.00
N365   N     0.35393   0.18897   0.67738   0.00000  Uiso   1.00
N366   N     0.74901   0.26795   0.94435   0.00000  Uiso   1.00
N367   N     0.10482   0.37851   0.96381   0.00000  Uiso   1.00
N368   N     0.26740   0.13207   0.69828   0.00000  Uiso   1.00
C369   C     0.14828   0.19985   0.51193   0.00000  Uiso   1.00
C370   C     0.23324   0.18481   0.47367   0.00000  Uiso   1.00
C371   C     0.33029   0.16610   0.47435   0.00000  Uiso   1.00
C372   C     0.39700   0.15457   0.43597   0.00000  Uiso   1.00
C373   C     0.53336   0.13015   0.38227   0.00000  Uiso   1.00
C374   C     0.03179   0.16841   0.48865   0.00000  Uiso   1.00
C375   C     0.95946   0.13591   0.50194   0.00000  Uiso   1.00
C376   C     0.85658   0.11058   0.47618   0.00000  Uiso   1.00
C377   C     0.68014   0.06071   0.44577   0.00000  Uiso   1.00
C378   C     0.14272   0.25509   0.52594   0.00000  Uiso   1.00
C379   C     0.16364   0.29548   0.57059   0.00000  Uiso   1.00
C380   C     0.15414   0.34313   0.57622   0.00000  Uiso   1.00
C381   C     0.14995   0.42785   0.60372   0.00000  Uiso   1.00
C382   C     0.09417   0.21266   0.44257   0.00000  Uiso   1.00
C383   C     0.20384   0.19177   0.43599   0.00000  Uiso   1.00
C384   C     0.27043   0.18027   0.39760   0.00000  Uiso   1.00
C385   C     0.36756   0.16154   0.39823   0.00000  Uiso   1.00
C386   C     0.00239   0.17536   0.45098   0.00000  Uiso   1.00
C387   C     0.89959   0.15008   0.42520   0.00000  Uiso   1.00
C388   C     0.82713   0.11755   0.43843   0.00000  Uiso   1.00
C389   C     0.11333   0.26205   0.48827   0.00000  Uiso   1.00
C390   C     0.10378   0.30965   0.49384   0.00000  Uiso   1.00
C391   C     0.12469   0.35010   0.53848   0.00000  Uiso   1.00
H392   H     0.17116   0.19443   0.54127   0.00000  Uiso   1.00
H393   H     0.35301   0.16072   0.50351   0.00000  Uiso   1.00
H394   H     0.98222   0.13053   0.53110   0.00000  Uiso   1.00
H395   H     0.18639   0.29008   0.59973   0.00000  Uiso   1.00
H396   H     0.54163   0.12639   0.44502   0.00000  Uiso   1.00
H397   H     0.75980   0.06276   0.50321   0.00000  Uiso   1.00
H398   H     0.19032   0.39919   0.64794   0.00000  Uiso   1.00
H399   H     0.07128   0.21807   0.41324   0.00000  Uiso   1.00
H400   H     0.24766   0.18566   0.36845   0.00000  Uiso   1.00
H401   H     0.87687   0.15548   0.39604   0.00000  Uiso   1.00
H402   H     0.08104   0.31502   0.46468   0.00000  Uiso   1.00
H403   H     0.45613   0.14663   0.33541   0.00000  Uiso   1.00
H404   H     0.67429   0.08301   0.39359   0.00000  Uiso   1.00
H405   H     0.10481   0.41943   0.53832   0.00000  Uiso   1.00
O406   O     0.61669   0.11474   0.36306   0.00000  Uiso   1.00
O407   O     0.59095   0.03128   0.43940   0.00000  Uiso   1.00
O408   O     0.15578   0.47266   0.62928   0.00000  Uiso   1.00
N409   N     0.49732   0.13561   0.42538   0.00000  Uiso   1.00
N410   N     0.76636   0.07612   0.47977   0.00000  Uiso   1.00
N411   N     0.16882   0.39065   0.61508   0.00000  Uiso   1.00
N412   N     0.45131   0.14650   0.36639   0.00000  Uiso   1.00
N413   N     0.72035   0.08701   0.42079   0.00000  Uiso   1.00
N414   N     0.12281   0.40154   0.55610   0.00000  Uiso   1.00
C415   C     0.54041   0.92092   0.32036   0.00000  Uiso   1.00
C416   C     0.64574   0.95733   0.31823   0.00000  Uiso   1.00
C417   C     0.75334   0.96608   0.33829   0.00000  Uiso   1.00
C418   C     0.83844   0.00084   0.33241   0.00000  Uiso   1.00
C419   C     0.00528   0.05358   0.33293   0.00000  Uiso   1.00
C420   C     0.44870   0.95288   0.34126   0.00000  Uiso   1.00
C421   C     0.39064   0.95788   0.38069   0.00000  Uiso   1.00
C422   C     0.30985   0.98889   0.39419   0.00000  Uiso   1.00
C423   C     0.17074   0.03469   0.43044   0.00000  Uiso   1.00
C424   C     0.49923   0.88418   0.26998   0.00000  Uiso   1.00
C425   C     0.48361   0.83143   0.24947   0.00000  Uiso   1.00
C426   C     0.44534   0.80460   0.20296   0.00000  Uiso   1.00
C427   C     0.38468   0.74374   0.12854   0.00000  Uiso   1.00
C428   C     0.50018   0.96708   0.27422   0.00000  Uiso   1.00
C429   C     0.62388   0.98240   0.29316   0.00000  Uiso   1.00
C430   C     0.70883   0.01716   0.28724   0.00000  Uiso   1.00
C431   C     0.81655   0.02596   0.30730   0.00000  Uiso   1.00
C432   C     0.42685   0.97795   0.31620   0.00000  Uiso   1.00
C433   C     0.34612   0.00896   0.32964   0.00000  Uiso   1.00
C434   C     0.28796   0.01401   0.36908   0.00000  Uiso   1.00
C435   C     0.47738   0.90926   0.24491   0.00000  Uiso   1.00
C436   C     0.43911   0.88250   0.19842   0.00000  Uiso   1.00
C437   C     0.42345   0.82972   0.17785   0.00000  Uiso   1.00
H438   H     0.55742   0.90140   0.33987   0.00000  Uiso   1.00
H439   H     0.77022   0.94668   0.35769   0.00000  Uiso   1.00
H440   H     0.40756   0.93847   0.40007   0.00000  Uiso   1.00
H441   H     0.50053   0.81204   0.26888   0.00000  Uiso   1.00
H442   H     0.99650   0.00794   0.36641   0.00000  Uiso   1.00
H443   H     0.23178   0.99063   0.45577   0.00000  Uiso   1.00
H444   H     0.42783   0.72402   0.17912   0.00000  Uiso   1.00
H445   H     0.48316   0.98660   0.25470   0.00000  Uiso   1.00
H446   H     0.69189   0.03655   0.26784   0.00000  Uiso   1.00
H447   H     0.32923   0.02835   0.31023   0.00000  Uiso   1.00
H448   H     0.42221   0.90192   0.17904   0.00000  Uiso   1.00
H449   H     0.93292   0.08089   0.29349   0.00000  Uiso   1.00
H450   H     0.16820   0.06358   0.38285   0.00000  Uiso   1.00
H451   H     0.36426   0.79697   0.10620   0.00000  Uiso   1.00
O452   O     0.10335   0.07576   0.34014   0.00000  Uiso   1.00
O453   O     0.10006   0.05304   0.45737   0.00000  Uiso   1.00
O454   O     0.35727   0.70325   0.09442   0.00000  Uiso   1.00
N455   N     0.95289   0.01825   0.34743   0.00000  Uiso   1.00
N456   N     0.23794   0.00207   0.43098   0.00000  Uiso   1.00
N457   N     0.42120   0.75281   0.17234   0.00000  Uiso   1.00
N458   N     0.91869   0.05750   0.30819   0.00000  Uiso   1.00
N459   N     0.20374   0.04133   0.39175   0.00000  Uiso   1.00
N460   N     0.38700   0.79207   0.13311   0.00000  Uiso   1.00
C461   C     0.93755   0.42541   0.10791   0.00000  Uiso   1.00
C462   C     0.98305   0.37610   0.08225   0.00000  Uiso   1.00
C463   C     0.09484   0.37259   0.06977   0.00000  Uiso   1.00
C464   C     0.11936   0.32397   0.04645   0.00000  Uiso   1.00
C465   C     0.20283   0.25404   0.00818   0.00000  Uiso   1.00
C466   C     0.83839   0.42063   0.07705   0.00000  Uiso   1.00
C467   C     0.82854   0.45455   0.06020   0.00000  Uiso   1.00
C468   C     0.73128   0.44341   0.03251   0.00000  Uiso   1.00
C469   C     0.59012   0.44262   0.98619   0.00000  Uiso   1.00
C470   C     0.88481   0.42460   0.15126   0.00000  Uiso   1.00
C471   C     0.91397   0.46187   0.19681   0.00000  Uiso   1.00
C472   C     0.85577   0.45408   0.23161   0.00000  Uiso   1.00
C473   C     0.78669   0.45945   0.30051   0.00000  Uiso   1.00
C474   C     0.78231   0.34531   0.08869   0.00000  Uiso   1.00
C475   C     0.89873   0.33260   0.07181   0.00000  Uiso   1.00
C476   C     0.92309   0.28397   0.04851   0.00000  Uiso   1.00
C477   C     0.03490   0.28039   0.03600   0.00000  Uiso   1.00
C478   C     0.75407   0.37712   0.06661   0.00000  Uiso   1.00
C479   C     0.65680   0.36593   0.03894   0.00000  Uiso   1.00
C480   C     0.64681   0.39983   0.02206   0.00000  Uiso   1.00
C481   C     0.80050   0.38109   0.14082   0.00000  Uiso   1.00
C482   C     0.74223   0.37324   0.17555   0.00000  Uiso   1.00
C483   C     0.77130   0.41049   0.22115   0.00000  Uiso   1.00
H484   H     0.00319   0.45928   0.11603   0.00000  Uiso   1.00
H485   H     0.16007   0.40627   0.07785   0.00000  Uiso   1.00
H486   H     0.89380   0.48822   0.06829   0.00000  Uiso   1.00
H487   H     0.97923   0.49553   0.20488   0.00000  Uiso   1.00
H488   H     0.29680   0.32831   0.03090   0.00000  Uiso   1.00
H489   H     0.73536   0.50112   0.01075   0.00000  Uiso   1.00
H490   H     0.91548   0.51654   0.29877   0.00000  Uiso   1.00
H491   H     0.71666   0.31143   0.08057   0.00000  Uiso   1.00
H492   H     0.85782   0.25031   0.04044   0.00000  Uiso   1.00
H493   H     0.59156   0.33226   0.03087   0.00000  Uiso   1.00
H494   H     0.67698   0.33957   0.16746   0.00000  Uiso   1.00
H495   H     0.05149   0.20173   0.00053   0.00000  Uiso   1.00
H496   H     0.49004   0.37453   0.98038   0.00000  Uiso   1.00
H497   H     0.67017   0.38995   0.26841   0.00000  Uiso   1.00
O498   O     0.27217   0.22748   0.98994   0.00000  Uiso   1.00
O499   O     0.53556   0.45420   0.96351   0.00000  Uiso   1.00
O500   O     0.77189   0.47442   0.34140   0.00000  Uiso   1.00
N501   N     0.21970   0.30691   0.02927   0.00000  Uiso   1.00
N502   N     0.69479   0.46847   0.01042   0.00000  Uiso   1.00
N503   N     0.86317   0.48289   0.27970   0.00000  Uiso   1.00
N504   N     0.08770   0.23880   0.01293   0.00000  Uiso   1.00
N505   N     0.56279   0.40035   0.99408   0.00000  Uiso   1.00
N506   N     0.73117   0.41478   0.26336   0.00000  Uiso   1.00
C507   C     0.62182   0.66965   0.46310   0.00000  Uiso   1.00
C508   C     0.71968   0.69437   0.50021   0.00000  Uiso   1.00
C509   C     0.81966   0.67643   0.49791   0.00000  Uiso   1.00
C510   C     0.89872   0.70450   0.53544   0.00000  Uiso   1.00
C511   C     0.05374   0.73612   0.58723   0.00000  Uiso   1.00
C512   C     0.51501   0.66004   0.48756   0.00000  Uiso   1.00
C513   C     0.44290   0.61323   0.47461   0.00000  Uiso   1.00
C514   C     0.34966   0.61240   0.50148   0.00000  Uiso   1.00
C515   C     0.18687   0.59072   0.53360   0.00000  Uiso   1.00
C516   C     0.60513   0.71055   0.45002   0.00000  Uiso   1.00
C517   C     0.60878   0.70622   0.40550   0.00000  Uiso   1.00
C518   C     0.59139   0.74792   0.40076   0.00000  Uiso   1.00
C519   C     0.56854   0.80467   0.37459   0.00000  Uiso   1.00
C520   C     0.58442   0.75139   0.53384   0.00000  Uiso   1.00
C521   C     0.69936   0.73877   0.53864   0.00000  Uiso   1.00
C522   C     0.77829   0.76688   0.57618   0.00000  Uiso   1.00
C523   C     0.87838   0.74898   0.57394   0.00000  Uiso   1.00
C524   C     0.49469   0.70444   0.52598   0.00000  Uiso   1.00
C525   C     0.40153   0.70367   0.55287   0.00000  Uiso   1.00
C526   C     0.32931   0.65688   0.53997   0.00000  Uiso   1.00
C527   C     0.58482   0.75496   0.48844   0.00000  Uiso   1.00
C528   C     0.56741   0.79666   0.48377   0.00000  Uiso   1.00
C529   C     0.57103   0.79240   0.43926   0.00000  Uiso   1.00
H530   H     0.63762   0.63508   0.43319   0.00000  Uiso   1.00
H531   H     0.83535   0.64207   0.46817   0.00000  Uiso   1.00
H532   H     0.45864   0.57888   0.44487   0.00000  Uiso   1.00
H533   H     0.62450   0.67186   0.37577   0.00000  Uiso   1.00
H534   H     0.04558   0.66939   0.52391   0.00000  Uiso   1.00
H535   H     0.25125   0.53616   0.47477   0.00000  Uiso   1.00
H536   H     0.60099   0.73221   0.32906   0.00000  Uiso   1.00
H537   H     0.56860   0.78596   0.56376   0.00000  Uiso   1.00
H538   H     0.76255   0.80123   0.60591   0.00000  Uiso   1.00
H539   H     0.38584   0.73804   0.58261   0.00000  Uiso   1.00
H540   H     0.55170   0.83102   0.51351   0.00000  Uiso   1.00
H541   H     0.98650   0.79857   0.63571   0.00000  Uiso   1.00
H542   H     0.19216   0.66533   0.58656   0.00000  Uiso   1.00
H543   H     0.54190   0.86139   0.44086   0.00000  Uiso   1.00
O544   O     0.14485   0.74129   0.60519   0.00000  Uiso   1.00
O545   O     0.10270   0.56650   0.54070   0.00000  Uiso   1.00
O546   O     0.56156   0.82372   0.34955   0.00000  Uiso   1.00
N547   N     0.00507   0.69770   0.54444   0.00000  Uiso   1.00
N548   N     0.26243   0.57313   0.49849   0.00000  Uiso   1.00
N549   N     0.58937   0.75642   0.36227   0.00000  Uiso   1.00
N550   N     0.97328   0.76721   0.60459   0.00000  Uiso   1.00
N551   N     0.23063   0.64265   0.55864   0.00000  Uiso   1.00
N552   N     0.55758   0.82594   0.42242   0.00000  Uiso   1.00
