data_job_02504
_audit_creation_date              2018-12-19
_audit_creation_method            'Materials Studio'
_symmetry_space_group_name_H-M    'P1'
_symmetry_Int_Tables_number       1
_symmetry_cell_setting            triclinic
loop_
_symmetry_equiv_pos_as_xyz
  x,y,z
_cell_length_a                    20.3245
_cell_length_b                    20.3245
_cell_length_c                    12.4246
_cell_angle_alpha                 90.0000
_cell_angle_beta                  90.0000
_cell_angle_gamma                 90.0000
loop_
_atom_site_label
_atom_site_type_symbol
_atom_site_fract_x
_atom_site_fract_y
_atom_site_fract_z
_atom_site_U_iso_or_equiv
_atom_site_adp_type
_atom_site_occupancy
C1     C     0.35464   0.42708   0.48707   0.00000  Uiso   1.00
C2     C     0.35627   0.37151   0.56950   0.00000  Uiso   1.00
C3     C     0.39080   0.37209   0.66585   0.00000  Uiso   1.00
C4     C     0.38597   0.31644   0.73016   0.00000  Uiso   1.00
C5     C     0.39431   0.23839   0.86284   0.00000  Uiso   1.00
C6     C     0.37744   0.39695   0.38104   0.00000  Uiso   1.00
C7     C     0.42977   0.41893   0.31893   0.00000  Uiso   1.00
C8     C     0.44275   0.38469   0.22458   0.00000  Uiso   1.00
C9     C     0.48393   0.34617   0.06463   0.00000  Uiso   1.00
C10    C     0.28225   0.44434   0.47153   0.00000  Uiso   1.00
C11    C     0.25454   0.50616   0.48548   0.00000  Uiso   1.00
C12    C     0.18737   0.51182   0.46730   0.00000  Uiso   1.00
C13    C     0.08075   0.54688   0.44787   0.00000  Uiso   1.00
C14    C     0.28464   0.32722   0.42995   0.00000  Uiso   1.00
C15    C     0.31825   0.31727   0.53847   0.00000  Uiso   1.00
C16    C     0.31336   0.26160   0.60265   0.00000  Uiso   1.00
C17    C     0.34788   0.26210   0.69908   0.00000  Uiso   1.00
C18    C     0.33942   0.34271   0.35001   0.00000  Uiso   1.00
C19    C     0.35232   0.30844   0.25573   0.00000  Uiso   1.00
C20    C     0.40466   0.33035   0.19350   0.00000  Uiso   1.00
C21    C     0.24423   0.39010   0.44051   0.00000  Uiso   1.00
C22    C     0.17709   0.39567   0.42229   0.00000  Uiso   1.00
C23    C     0.14928   0.45748   0.43622   0.00000  Uiso   1.00
H24    H     0.38425   0.46931   0.51122   0.00000  Uiso   1.00
H25    H     0.42023   0.41408   0.68983   0.00000  Uiso   1.00
H26    H     0.45918   0.46091   0.34295   0.00000  Uiso   1.00
H27    H     0.28398   0.54812   0.50949   0.00000  Uiso   1.00
H28    H     0.44338   0.32891   0.87414   0.00000  Uiso   1.00
H29    H     0.52550   0.42767   0.14272   0.00000  Uiso   1.00
H30    H     0.15604   0.61158   0.49390   0.00000  Uiso   1.00
H31    H     0.25504   0.28498   0.40579   0.00000  Uiso   1.00
H32    H     0.28393   0.21963   0.57862   0.00000  Uiso   1.00
H33    H     0.32289   0.26647   0.23174   0.00000  Uiso   1.00
H34    H     0.14768   0.35368   0.39828   0.00000  Uiso   1.00
H35    H     0.33275   0.17109   0.78388   0.00000  Uiso   1.00
H36    H     0.41488   0.26986   0.05245   0.00000  Uiso   1.00
H37    H     0.04542   0.45377   0.40364   0.00000  Uiso   1.00
O38    O     0.40942   0.21032   0.94459   0.00000  Uiso   1.00
O39    O     0.51715   0.33991   0.98498   0.00000  Uiso   1.00
O40    O     0.03243   0.58120   0.44573   0.00000  Uiso   1.00
N41    N     0.41336   0.30074   0.82919   0.00000  Uiso   1.00
N42    N     0.49015   0.39307   0.14537   0.00000  Uiso   1.00
N43    N     0.14474   0.56502   0.47366   0.00000  Uiso   1.00
N44    N     0.35384   0.21582   0.78062   0.00000  Uiso   1.00
N45    N     0.43063   0.30815   0.09680   0.00000  Uiso   1.00
N46    N     0.08522   0.48010   0.42509   0.00000  Uiso   1.00
C47    C     0.64536   0.57292   0.48707   0.00000  Uiso   1.00
C48    C     0.64373   0.62849   0.56950   0.00000  Uiso   1.00
C49    C     0.60920   0.62791   0.66585   0.00000  Uiso   1.00
C50    C     0.61403   0.68356   0.73016   0.00000  Uiso   1.00
C51    C     0.60569   0.76161   0.86284   0.00000  Uiso   1.00
C52    C     0.62256   0.60305   0.38104   0.00000  Uiso   1.00
C53    C     0.57023   0.58107   0.31893   0.00000  Uiso   1.00
C54    C     0.55725   0.61531   0.22458   0.00000  Uiso   1.00
C55    C     0.51607   0.65383   0.06463   0.00000  Uiso   1.00
C56    C     0.71775   0.55566   0.47153   0.00000  Uiso   1.00
C57    C     0.74546   0.49384   0.48548   0.00000  Uiso   1.00
C58    C     0.81263   0.48818   0.46730   0.00000  Uiso   1.00
C59    C     0.91925   0.45312   0.44787   0.00000  Uiso   1.00
C60    C     0.71536   0.67278   0.42995   0.00000  Uiso   1.00
C61    C     0.68175   0.68273   0.53847   0.00000  Uiso   1.00
C62    C     0.68664   0.73840   0.60265   0.00000  Uiso   1.00
C63    C     0.65212   0.73790   0.69908   0.00000  Uiso   1.00
C64    C     0.66058   0.65729   0.35001   0.00000  Uiso   1.00
C65    C     0.64768   0.69156   0.25573   0.00000  Uiso   1.00
C66    C     0.59534   0.66965   0.19350   0.00000  Uiso   1.00
C67    C     0.75577   0.60990   0.44051   0.00000  Uiso   1.00
C68    C     0.82291   0.60433   0.42229   0.00000  Uiso   1.00
C69    C     0.85072   0.54252   0.43622   0.00000  Uiso   1.00
H70    H     0.61575   0.53069   0.51122   0.00000  Uiso   1.00
H71    H     0.57977   0.58592   0.68983   0.00000  Uiso   1.00
H72    H     0.54082   0.53909   0.34295   0.00000  Uiso   1.00
H73    H     0.71602   0.45188   0.50949   0.00000  Uiso   1.00
H74    H     0.55662   0.67109   0.87414   0.00000  Uiso   1.00
H75    H     0.47450   0.57233   0.14272   0.00000  Uiso   1.00
H76    H     0.84396   0.38842   0.49390   0.00000  Uiso   1.00
H77    H     0.74496   0.71502   0.40579   0.00000  Uiso   1.00
H78    H     0.71607   0.78037   0.57862   0.00000  Uiso   1.00
H79    H     0.67711   0.73353   0.23174   0.00000  Uiso   1.00
H80    H     0.85232   0.64632   0.39828   0.00000  Uiso   1.00
H81    H     0.66725   0.82891   0.78388   0.00000  Uiso   1.00
H82    H     0.58512   0.73014   0.05245   0.00000  Uiso   1.00
H83    H     0.95458   0.54623   0.40364   0.00000  Uiso   1.00
O84    O     0.59058   0.78968   0.94459   0.00000  Uiso   1.00
O85    O     0.48285   0.66009   0.98498   0.00000  Uiso   1.00
O86    O     0.96757   0.41880   0.44573   0.00000  Uiso   1.00
N87    N     0.58664   0.69926   0.82919   0.00000  Uiso   1.00
N88    N     0.50985   0.60693   0.14537   0.00000  Uiso   1.00
N89    N     0.85526   0.43498   0.47366   0.00000  Uiso   1.00
N90    N     0.64616   0.78418   0.78062   0.00000  Uiso   1.00
N91    N     0.56937   0.69185   0.09680   0.00000  Uiso   1.00
N92    N     0.91478   0.51990   0.42509   0.00000  Uiso   1.00
C93    C     0.07292   0.85464   0.98707   0.00000  Uiso   1.00
C94    C     0.12849   0.85627   0.06950   0.00000  Uiso   1.00
C95    C     0.12791   0.89080   0.16585   0.00000  Uiso   1.00
C96    C     0.18356   0.88597   0.23016   0.00000  Uiso   1.00
C97    C     0.26161   0.89431   0.36284   0.00000  Uiso   1.00
C98    C     0.10305   0.87744   0.88104   0.00000  Uiso   1.00
C99    C     0.08107   0.92977   0.81893   0.00000  Uiso   1.00
C100   C     0.11531   0.94275   0.72458   0.00000  Uiso   1.00
C101   C     0.15383   0.98393   0.56463   0.00000  Uiso   1.00
C102   C     0.05566   0.78225   0.97153   0.00000  Uiso   1.00
C103   C     0.99384   0.75454   0.98548   0.00000  Uiso   1.00
C104   C     0.98818   0.68737   0.96730   0.00000  Uiso   1.00
C105   C     0.95312   0.58075   0.94787   0.00000  Uiso   1.00
C106   C     0.17278   0.78464   0.92995   0.00000  Uiso   1.00
C107   C     0.18273   0.81825   0.03847   0.00000  Uiso   1.00
C108   C     0.23840   0.81336   0.10265   0.00000  Uiso   1.00
C109   C     0.23790   0.84788   0.19908   0.00000  Uiso   1.00
C110   C     0.15729   0.83942   0.85001   0.00000  Uiso   1.00
C111   C     0.19156   0.85232   0.75573   0.00000  Uiso   1.00
C112   C     0.16965   0.90466   0.69350   0.00000  Uiso   1.00
C113   C     0.10990   0.74423   0.94051   0.00000  Uiso   1.00
C114   C     0.10433   0.67709   0.92229   0.00000  Uiso   1.00
C115   C     0.04252   0.64928   0.93622   0.00000  Uiso   1.00
H116   H     0.03069   0.88425   0.01122   0.00000  Uiso   1.00
H117   H     0.08592   0.92023   0.18983   0.00000  Uiso   1.00
H118   H     0.03909   0.95918   0.84295   0.00000  Uiso   1.00
H119   H     0.95188   0.78398   0.00949   0.00000  Uiso   1.00
H120   H     0.17109   0.94338   0.37414   0.00000  Uiso   1.00
H121   H     0.07233   0.02550   0.64272   0.00000  Uiso   1.00
H122   H     0.88842   0.65604   0.99390   0.00000  Uiso   1.00
H123   H     0.21502   0.75504   0.90579   0.00000  Uiso   1.00
H124   H     0.28037   0.78393   0.07862   0.00000  Uiso   1.00
H125   H     0.23353   0.82289   0.73174   0.00000  Uiso   1.00
H126   H     0.14632   0.64768   0.89828   0.00000  Uiso   1.00
H127   H     0.32891   0.83275   0.28388   0.00000  Uiso   1.00
H128   H     0.23014   0.91488   0.55245   0.00000  Uiso   1.00
H129   H     0.04623   0.54542   0.90364   0.00000  Uiso   1.00
O130   O     0.28968   0.90942   0.44459   0.00000  Uiso   1.00
O131   O     0.16009   0.01715   0.48498   0.00000  Uiso   1.00
O132   O     0.91880   0.53243   0.94573   0.00000  Uiso   1.00
N133   N     0.19926   0.91336   0.32919   0.00000  Uiso   1.00
N134   N     0.10693   0.99015   0.64537   0.00000  Uiso   1.00
N135   N     0.93498   0.64474   0.97366   0.00000  Uiso   1.00
N136   N     0.28418   0.85384   0.28062   0.00000  Uiso   1.00
N137   N     0.19185   0.93063   0.59680   0.00000  Uiso   1.00
N138   N     0.01990   0.58522   0.92509   0.00000  Uiso   1.00
C139   C     0.92708   0.14536   0.98707   0.00000  Uiso   1.00
C140   C     0.87151   0.14373   0.06950   0.00000  Uiso   1.00
C141   C     0.87209   0.10920   0.16585   0.00000  Uiso   1.00
C142   C     0.81644   0.11403   0.23016   0.00000  Uiso   1.00
C143   C     0.73839   0.10569   0.36284   0.00000  Uiso   1.00
C144   C     0.89695   0.12256   0.88104   0.00000  Uiso   1.00
C145   C     0.91893   0.07023   0.81893   0.00000  Uiso   1.00
C146   C     0.88469   0.05725   0.72458   0.00000  Uiso   1.00
C147   C     0.84617   0.01607   0.56463   0.00000  Uiso   1.00
C148   C     0.94434   0.21775   0.97153   0.00000  Uiso   1.00
C149   C     0.00616   0.24546   0.98548   0.00000  Uiso   1.00
C150   C     0.01182   0.31263   0.96730   0.00000  Uiso   1.00
C151   C     0.04688   0.41925   0.94787   0.00000  Uiso   1.00
C152   C     0.82722   0.21536   0.92995   0.00000  Uiso   1.00
C153   C     0.81727   0.18175   0.03847   0.00000  Uiso   1.00
C154   C     0.76160   0.18664   0.10265   0.00000  Uiso   1.00
C155   C     0.76210   0.15212   0.19908   0.00000  Uiso   1.00
C156   C     0.84271   0.16058   0.85001   0.00000  Uiso   1.00
C157   C     0.80844   0.14768   0.75573   0.00000  Uiso   1.00
C158   C     0.83035   0.09534   0.69350   0.00000  Uiso   1.00
C159   C     0.89010   0.25577   0.94051   0.00000  Uiso   1.00
C160   C     0.89567   0.32291   0.92229   0.00000  Uiso   1.00
C161   C     0.95748   0.35072   0.93622   0.00000  Uiso   1.00
H162   H     0.96931   0.11575   0.01122   0.00000  Uiso   1.00
H163   H     0.91408   0.07977   0.18983   0.00000  Uiso   1.00
H164   H     0.96091   0.04082   0.84295   0.00000  Uiso   1.00
H165   H     0.04812   0.21602   0.00949   0.00000  Uiso   1.00
H166   H     0.82891   0.05662   0.37414   0.00000  Uiso   1.00
H167   H     0.92767   0.97450   0.64272   0.00000  Uiso   1.00
H168   H     0.11158   0.34396   0.99390   0.00000  Uiso   1.00
H169   H     0.78498   0.24496   0.90579   0.00000  Uiso   1.00
H170   H     0.71963   0.21607   0.07862   0.00000  Uiso   1.00
H171   H     0.76647   0.17711   0.73174   0.00000  Uiso   1.00
H172   H     0.85368   0.35232   0.89828   0.00000  Uiso   1.00
H173   H     0.67109   0.16725   0.28388   0.00000  Uiso   1.00
H174   H     0.76986   0.08512   0.55245   0.00000  Uiso   1.00
H175   H     0.95377   0.45458   0.90364   0.00000  Uiso   1.00
O176   O     0.71032   0.09058   0.44459   0.00000  Uiso   1.00
O177   O     0.83991   0.98285   0.48498   0.00000  Uiso   1.00
O178   O     0.08120   0.46757   0.94573   0.00000  Uiso   1.00
N179   N     0.80074   0.08664   0.32919   0.00000  Uiso   1.00
N180   N     0.89307   0.00985   0.64537   0.00000  Uiso   1.00
N181   N     0.06502   0.35526   0.97366   0.00000  Uiso   1.00
N182   N     0.71582   0.14616   0.28062   0.00000  Uiso   1.00
N183   N     0.80815   0.06937   0.59680   0.00000  Uiso   1.00
N184   N     0.98010   0.41478   0.92509   0.00000  Uiso   1.00
C185   C     0.14536   0.07292   0.01293   0.00000  Uiso   1.00
C186   C     0.14373   0.12849   0.93050   0.00000  Uiso   1.00
C187   C     0.10920   0.12791   0.83415   0.00000  Uiso   1.00
C188   C     0.11403   0.18356   0.76984   0.00000  Uiso   1.00
C189   C     0.10569   0.26161   0.63716   0.00000  Uiso   1.00
C190   C     0.12256   0.10305   0.11896   0.00000  Uiso   1.00
C191   C     0.07023   0.08107   0.18107   0.00000  Uiso   1.00
C192   C     0.05725   0.11531   0.27542   0.00000  Uiso   1.00
C193   C     0.01607   0.15383   0.43537   0.00000  Uiso   1.00
C194   C     0.21775   0.05566   0.02847   0.00000  Uiso   1.00
C195   C     0.24546   0.99384   0.01452   0.00000  Uiso   1.00
C196   C     0.31263   0.98818   0.03270   0.00000  Uiso   1.00
C197   C     0.41925   0.95312   0.05213   0.00000  Uiso   1.00
C198   C     0.21536   0.17278   0.07005   0.00000  Uiso   1.00
C199   C     0.18175   0.18273   0.96153   0.00000  Uiso   1.00
C200   C     0.18664   0.23840   0.89735   0.00000  Uiso   1.00
C201   C     0.15212   0.23790   0.80092   0.00000  Uiso   1.00
C202   C     0.16058   0.15729   0.14999   0.00000  Uiso   1.00
C203   C     0.14768   0.19156   0.24427   0.00000  Uiso   1.00
C204   C     0.09534   0.16965   0.30650   0.00000  Uiso   1.00
C205   C     0.25577   0.10990   0.05949   0.00000  Uiso   1.00
C206   C     0.32291   0.10433   0.07771   0.00000  Uiso   1.00
C207   C     0.35072   0.04252   0.06378   0.00000  Uiso   1.00
H208   H     0.11575   0.03069   0.98878   0.00000  Uiso   1.00
H209   H     0.07977   0.08592   0.81017   0.00000  Uiso   1.00
H210   H     0.04082   0.03909   0.15705   0.00000  Uiso   1.00
H211   H     0.21602   0.95188   0.99051   0.00000  Uiso   1.00
H212   H     0.05662   0.17109   0.62586   0.00000  Uiso   1.00
H213   H     0.97450   0.07233   0.35728   0.00000  Uiso   1.00
H214   H     0.34396   0.88842   0.00610   0.00000  Uiso   1.00
H215   H     0.24496   0.21502   0.09421   0.00000  Uiso   1.00
H216   H     0.21607   0.28037   0.92138   0.00000  Uiso   1.00
H217   H     0.17711   0.23353   0.26826   0.00000  Uiso   1.00
H218   H     0.35232   0.14632   0.10172   0.00000  Uiso   1.00
H219   H     0.16725   0.32891   0.71612   0.00000  Uiso   1.00
H220   H     0.08512   0.23014   0.44755   0.00000  Uiso   1.00
H221   H     0.45458   0.04623   0.09636   0.00000  Uiso   1.00
O222   O     0.09058   0.28968   0.55541   0.00000  Uiso   1.00
O223   O     0.98285   0.16009   0.51502   0.00000  Uiso   1.00
O224   O     0.46757   0.91880   0.05427   0.00000  Uiso   1.00
N225   N     0.08664   0.19926   0.67081   0.00000  Uiso   1.00
N226   N     0.00985   0.10693   0.35463   0.00000  Uiso   1.00
N227   N     0.35526   0.93498   0.02634   0.00000  Uiso   1.00
N228   N     0.14616   0.28418   0.71938   0.00000  Uiso   1.00
N229   N     0.06937   0.19185   0.40320   0.00000  Uiso   1.00
N230   N     0.41478   0.01990   0.07491   0.00000  Uiso   1.00
C231   C     0.85464   0.92708   0.01293   0.00000  Uiso   1.00
C232   C     0.85627   0.87151   0.93050   0.00000  Uiso   1.00
C233   C     0.89080   0.87209   0.83415   0.00000  Uiso   1.00
C234   C     0.88597   0.81644   0.76984   0.00000  Uiso   1.00
C235   C     0.89431   0.73839   0.63716   0.00000  Uiso   1.00
C236   C     0.87744   0.89695   0.11896   0.00000  Uiso   1.00
C237   C     0.92977   0.91893   0.18107   0.00000  Uiso   1.00
C238   C     0.94275   0.88469   0.27542   0.00000  Uiso   1.00
C239   C     0.98393   0.84617   0.43537   0.00000  Uiso   1.00
C240   C     0.78225   0.94434   0.02847   0.00000  Uiso   1.00
C241   C     0.75454   0.00616   0.01452   0.00000  Uiso   1.00
C242   C     0.68737   0.01182   0.03270   0.00000  Uiso   1.00
C243   C     0.58075   0.04688   0.05213   0.00000  Uiso   1.00
C244   C     0.78464   0.82722   0.07005   0.00000  Uiso   1.00
C245   C     0.81825   0.81727   0.96153   0.00000  Uiso   1.00
C246   C     0.81336   0.76160   0.89735   0.00000  Uiso   1.00
C247   C     0.84788   0.76210   0.80092   0.00000  Uiso   1.00
C248   C     0.83942   0.84271   0.14999   0.00000  Uiso   1.00
C249   C     0.85232   0.80844   0.24427   0.00000  Uiso   1.00
C250   C     0.90466   0.83035   0.30650   0.00000  Uiso   1.00
C251   C     0.74423   0.89010   0.05949   0.00000  Uiso   1.00
C252   C     0.67709   0.89567   0.07771   0.00000  Uiso   1.00
C253   C     0.64928   0.95748   0.06378   0.00000  Uiso   1.00
H254   H     0.88425   0.96931   0.98878   0.00000  Uiso   1.00
H255   H     0.92023   0.91408   0.81017   0.00000  Uiso   1.00
H256   H     0.95918   0.96091   0.15705   0.00000  Uiso   1.00
H257   H     0.78398   0.04812   0.99051   0.00000  Uiso   1.00
H258   H     0.94338   0.82891   0.62586   0.00000  Uiso   1.00
H259   H     0.02550   0.92767   0.35728   0.00000  Uiso   1.00
H260   H     0.65604   0.11158   0.00610   0.00000  Uiso   1.00
H261   H     0.75504   0.78498   0.09421   0.00000  Uiso   1.00
H262   H     0.78393   0.71963   0.92138   0.00000  Uiso   1.00
H263   H     0.82289   0.76647   0.26826   0.00000  Uiso   1.00
H264   H     0.64768   0.85368   0.10172   0.00000  Uiso   1.00
H265   H     0.83275   0.67109   0.71612   0.00000  Uiso   1.00
H266   H     0.91488   0.76986   0.44755   0.00000  Uiso   1.00
H267   H     0.54542   0.95377   0.09636   0.00000  Uiso   1.00
O268   O     0.90942   0.71032   0.55541   0.00000  Uiso   1.00
O269   O     0.01715   0.83991   0.51502   0.00000  Uiso   1.00
O270   O     0.53243   0.08120   0.05427   0.00000  Uiso   1.00
N271   N     0.91336   0.80074   0.67081   0.00000  Uiso   1.00
N272   N     0.99015   0.89307   0.35463   0.00000  Uiso   1.00
N273   N     0.64474   0.06502   0.02634   0.00000  Uiso   1.00
N274   N     0.85384   0.71582   0.71938   0.00000  Uiso   1.00
N275   N     0.93063   0.80815   0.40320   0.00000  Uiso   1.00
N276   N     0.58522   0.98010   0.07491   0.00000  Uiso   1.00
C277   C     0.42708   0.64536   0.51293   0.00000  Uiso   1.00
C278   C     0.37151   0.64373   0.43050   0.00000  Uiso   1.00
C279   C     0.37209   0.60920   0.33415   0.00000  Uiso   1.00
C280   C     0.31644   0.61403   0.26984   0.00000  Uiso   1.00
C281   C     0.23839   0.60569   0.13716   0.00000  Uiso   1.00
C282   C     0.39695   0.62256   0.61896   0.00000  Uiso   1.00
C283   C     0.41893   0.57023   0.68107   0.00000  Uiso   1.00
C284   C     0.38469   0.55725   0.77542   0.00000  Uiso   1.00
C285   C     0.34617   0.51607   0.93537   0.00000  Uiso   1.00
C286   C     0.44434   0.71775   0.52847   0.00000  Uiso   1.00
C287   C     0.50616   0.74546   0.51452   0.00000  Uiso   1.00
C288   C     0.51182   0.81263   0.53270   0.00000  Uiso   1.00
C289   C     0.54688   0.91925   0.55213   0.00000  Uiso   1.00
C290   C     0.32722   0.71536   0.57005   0.00000  Uiso   1.00
C291   C     0.31727   0.68175   0.46153   0.00000  Uiso   1.00
C292   C     0.26160   0.68664   0.39735   0.00000  Uiso   1.00
C293   C     0.26210   0.65212   0.30092   0.00000  Uiso   1.00
C294   C     0.34271   0.66058   0.64999   0.00000  Uiso   1.00
C295   C     0.30844   0.64768   0.74427   0.00000  Uiso   1.00
C296   C     0.33035   0.59534   0.80650   0.00000  Uiso   1.00
C297   C     0.39010   0.75577   0.55949   0.00000  Uiso   1.00
C298   C     0.39567   0.82291   0.57771   0.00000  Uiso   1.00
C299   C     0.45748   0.85072   0.56378   0.00000  Uiso   1.00
H300   H     0.46931   0.61575   0.48878   0.00000  Uiso   1.00
H301   H     0.41408   0.57977   0.31017   0.00000  Uiso   1.00
H302   H     0.46091   0.54082   0.65705   0.00000  Uiso   1.00
H303   H     0.54812   0.71602   0.49051   0.00000  Uiso   1.00
H304   H     0.32891   0.55662   0.12586   0.00000  Uiso   1.00
H305   H     0.42767   0.47450   0.85728   0.00000  Uiso   1.00
H306   H     0.61158   0.84396   0.50610   0.00000  Uiso   1.00
H307   H     0.28498   0.74496   0.59421   0.00000  Uiso   1.00
H308   H     0.21963   0.71607   0.42138   0.00000  Uiso   1.00
H309   H     0.26647   0.67711   0.76826   0.00000  Uiso   1.00
H310   H     0.35368   0.85232   0.60172   0.00000  Uiso   1.00
H311   H     0.17109   0.66725   0.21612   0.00000  Uiso   1.00
H312   H     0.26986   0.58512   0.94755   0.00000  Uiso   1.00
H313   H     0.45377   0.95458   0.59636   0.00000  Uiso   1.00
O314   O     0.21032   0.59058   0.05541   0.00000  Uiso   1.00
O315   O     0.33991   0.48285   0.01502   0.00000  Uiso   1.00
O316   O     0.58120   0.96757   0.55427   0.00000  Uiso   1.00
N317   N     0.30074   0.58664   0.17081   0.00000  Uiso   1.00
N318   N     0.39307   0.50985   0.85463   0.00000  Uiso   1.00
N319   N     0.56502   0.85526   0.52634   0.00000  Uiso   1.00
N320   N     0.21582   0.64616   0.21938   0.00000  Uiso   1.00
N321   N     0.30815   0.56937   0.90320   0.00000  Uiso   1.00
N322   N     0.48010   0.91478   0.57491   0.00000  Uiso   1.00
C323   C     0.57292   0.35464   0.51293   0.00000  Uiso   1.00
C324   C     0.62849   0.35627   0.43050   0.00000  Uiso   1.00
C325   C     0.62791   0.39080   0.33415   0.00000  Uiso   1.00
C326   C     0.68356   0.38597   0.26984   0.00000  Uiso   1.00
C327   C     0.76161   0.39431   0.13716   0.00000  Uiso   1.00
C328   C     0.60305   0.37744   0.61896   0.00000  Uiso   1.00
C329   C     0.58107   0.42977   0.68107   0.00000  Uiso   1.00
C330   C     0.61531   0.44275   0.77542   0.00000  Uiso   1.00
C331   C     0.65383   0.48393   0.93537   0.00000  Uiso   1.00
C332   C     0.55566   0.28225   0.52847   0.00000  Uiso   1.00
C333   C     0.49384   0.25454   0.51452   0.00000  Uiso   1.00
C334   C     0.48818   0.18737   0.53270   0.00000  Uiso   1.00
C335   C     0.45312   0.08075   0.55213   0.00000  Uiso   1.00
C336   C     0.67278   0.28464   0.57005   0.00000  Uiso   1.00
C337   C     0.68273   0.31825   0.46153   0.00000  Uiso   1.00
C338   C     0.73840   0.31336   0.39735   0.00000  Uiso   1.00
C339   C     0.73790   0.34788   0.30092   0.00000  Uiso   1.00
C340   C     0.65729   0.33942   0.64999   0.00000  Uiso   1.00
C341   C     0.69156   0.35232   0.74427   0.00000  Uiso   1.00
C342   C     0.66965   0.40466   0.80650   0.00000  Uiso   1.00
C343   C     0.60990   0.24423   0.55949   0.00000  Uiso   1.00
C344   C     0.60433   0.17709   0.57771   0.00000  Uiso   1.00
C345   C     0.54252   0.14928   0.56378   0.00000  Uiso   1.00
H346   H     0.53069   0.38425   0.48878   0.00000  Uiso   1.00
H347   H     0.58592   0.42023   0.31017   0.00000  Uiso   1.00
H348   H     0.53909   0.45918   0.65705   0.00000  Uiso   1.00
H349   H     0.45188   0.28398   0.49051   0.00000  Uiso   1.00
H350   H     0.67109   0.44338   0.12586   0.00000  Uiso   1.00
H351   H     0.57233   0.52550   0.85728   0.00000  Uiso   1.00
H352   H     0.38842   0.15604   0.50610   0.00000  Uiso   1.00
H353   H     0.71502   0.25504   0.59421   0.00000  Uiso   1.00
H354   H     0.78037   0.28393   0.42138   0.00000  Uiso   1.00
H355   H     0.73353   0.32289   0.76826   0.00000  Uiso   1.00
H356   H     0.64632   0.14768   0.60172   0.00000  Uiso   1.00
H357   H     0.82891   0.33275   0.21612   0.00000  Uiso   1.00
H358   H     0.73014   0.41488   0.94755   0.00000  Uiso   1.00
H359   H     0.54623   0.04542   0.59636   0.00000  Uiso   1.00
O360   O     0.78968   0.40942   0.05541   0.00000  Uiso   1.00
O361   O     0.66009   0.51715   0.01502   0.00000  Uiso   1.00
O362   O     0.41880   0.03243   0.55427   0.00000  Uiso   1.00
N363   N     0.69926   0.41336   0.17081   0.00000  Uiso   1.00
N364   N     0.60693   0.49015   0.85463   0.00000  Uiso   1.00
N365   N     0.43498   0.14474   0.52634   0.00000  Uiso   1.00
N366   N     0.78418   0.35384   0.21938   0.00000  Uiso   1.00
N367   N     0.69185   0.43063   0.90320   0.00000  Uiso   1.00
N368   N     0.51990   0.08522   0.57491   0.00000  Uiso   1.00
