data_job_05329
_audit_creation_date              2018-12-19
_audit_creation_method            'Materials Studio'
_symmetry_space_group_name_H-M    'P1'
_symmetry_Int_Tables_number       1
_symmetry_cell_setting            triclinic
loop_
_symmetry_equiv_pos_as_xyz
  x,y,z
_cell_length_a                    22.1126
_cell_length_b                    11.6761
_cell_length_c                    13.6091
_cell_angle_alpha                 90.0000
_cell_angle_beta                  73.6217
_cell_angle_gamma                 90.0000
loop_
_atom_site_label
_atom_site_type_symbol
_atom_site_fract_x
_atom_site_fract_y
_atom_site_fract_z
_atom_site_U_iso_or_equiv
_atom_site_adp_type
_atom_site_occupancy
C1     C     0.19006   0.31472   0.86192   0.00000  Uiso   1.00
C2     C     0.16374   0.22398   0.80462   0.00000  Uiso   1.00
C3     C     0.14626   0.11360   0.83883   0.00000  Uiso   1.00
C4     C     0.12324   0.04359   0.77513   0.00000  Uiso   1.00
C5     C     0.08321   0.89673   0.70050   0.00000  Uiso   1.00
C6     C     0.25316   0.35138   0.78952   0.00000  Uiso   1.00
C7     C     0.31086   0.34813   0.81105   0.00000  Uiso   1.00
C8     C     0.36311   0.38538   0.73465   0.00000  Uiso   1.00
C9     C     0.46190   0.43639   0.63661   0.00000  Uiso   1.00
C10    C     0.14657   0.41812   0.87241   0.00000  Uiso   1.00
C11    C     0.11467   0.47100   0.96362   0.00000  Uiso   1.00
C12    C     0.07719   0.56446   0.95700   0.00000  Uiso   1.00
C13    C     0.01049   0.71909   0.98766   0.00000  Uiso   1.00
C14    C     0.18025   0.38669   0.68796   0.00000  Uiso   1.00
C15    C     0.15842   0.26308   0.71013   0.00000  Uiso   1.00
C16    C     0.13541   0.19322   0.64636   0.00000  Uiso   1.00
C17    C     0.11790   0.08275   0.68048   0.00000  Uiso   1.00
C18    C     0.24783   0.39047   0.69503   0.00000  Uiso   1.00
C19    C     0.30001   0.42775   0.61858   0.00000  Uiso   1.00
C20    C     0.35778   0.42454   0.63999   0.00000  Uiso   1.00
C21    C     0.14124   0.45721   0.77792   0.00000  Uiso   1.00
C22    C     0.10382   0.55062   0.77115   0.00000  Uiso   1.00
C23    C     0.07186   0.60362   0.86234   0.00000  Uiso   1.00
H24    H     0.19421   0.28429   0.93548   0.00000  Uiso   1.00
H25    H     0.15040   0.08337   0.91196   0.00000  Uiso   1.00
H26    H     0.31497   0.31788   0.88418   0.00000  Uiso   1.00
H27    H     0.11880   0.44072   0.03673   0.00000  Uiso   1.00
H28    H     0.09949   0.87784   0.84418   0.00000  Uiso   1.00
H29    H     0.44649   0.37235   0.78564   0.00000  Uiso   1.00
H30    H     0.03284   0.63140   0.10731   0.00000  Uiso   1.00
H31    H     0.17611   0.41713   0.61439   0.00000  Uiso   1.00
H32    H     0.13130   0.22350   0.57324   0.00000  Uiso   1.00
H33    H     0.29587   0.45800   0.54547   0.00000  Uiso   1.00
H34    H     0.09970   0.58085   0.69802   0.00000  Uiso   1.00
H35    H     0.08399   0.99157   0.56927   0.00000  Uiso   1.00
H36    H     0.43099   0.48608   0.51073   0.00000  Uiso   1.00
H37    H     0.01734   0.74512   0.83240   0.00000  Uiso   1.00
O38    O     0.06261   0.80492   0.68544   0.00000  Uiso   1.00
O39    O     0.51786   0.45371   0.60864   0.00000  Uiso   1.00
O40    O     0.97516   0.79357   0.03067   0.00000  Uiso   1.00
N41    N     0.10198   0.93119   0.78514   0.00000  Uiso   1.00
N42    N     0.42641   0.39350   0.73040   0.00000  Uiso   1.00
N43    N     0.03970   0.63571   0.03114   0.00000  Uiso   1.00
N44    N     0.09364   0.99239   0.63721   0.00000  Uiso   1.00
N45    N     0.41807   0.45470   0.58247   0.00000  Uiso   1.00
N46    N     0.03135   0.69691   0.88321   0.00000  Uiso   1.00
C47    C     0.80994   0.31472   0.63808   0.00000  Uiso   1.00
C48    C     0.83626   0.22398   0.69538   0.00000  Uiso   1.00
C49    C     0.85374   0.11360   0.66117   0.00000  Uiso   1.00
C50    C     0.87676   0.04359   0.72487   0.00000  Uiso   1.00
C51    C     0.91679   0.89673   0.79950   0.00000  Uiso   1.00
C52    C     0.74684   0.35138   0.71048   0.00000  Uiso   1.00
C53    C     0.68914   0.34813   0.68895   0.00000  Uiso   1.00
C54    C     0.63689   0.38538   0.76535   0.00000  Uiso   1.00
C55    C     0.53810   0.43639   0.86339   0.00000  Uiso   1.00
C56    C     0.85343   0.41812   0.62759   0.00000  Uiso   1.00
C57    C     0.88533   0.47100   0.53638   0.00000  Uiso   1.00
C58    C     0.92281   0.56446   0.54300   0.00000  Uiso   1.00
C59    C     0.98951   0.71909   0.51234   0.00000  Uiso   1.00
C60    C     0.81975   0.38669   0.81204   0.00000  Uiso   1.00
C61    C     0.84158   0.26308   0.78987   0.00000  Uiso   1.00
C62    C     0.86459   0.19322   0.85364   0.00000  Uiso   1.00
C63    C     0.88210   0.08275   0.81952   0.00000  Uiso   1.00
C64    C     0.75217   0.39047   0.80497   0.00000  Uiso   1.00
C65    C     0.69999   0.42775   0.88142   0.00000  Uiso   1.00
C66    C     0.64222   0.42454   0.86001   0.00000  Uiso   1.00
C67    C     0.85876   0.45721   0.72208   0.00000  Uiso   1.00
C68    C     0.89618   0.55062   0.72885   0.00000  Uiso   1.00
C69    C     0.92814   0.60362   0.63766   0.00000  Uiso   1.00
H70    H     0.80579   0.28429   0.56452   0.00000  Uiso   1.00
H71    H     0.84960   0.08337   0.58804   0.00000  Uiso   1.00
H72    H     0.68503   0.31788   0.61582   0.00000  Uiso   1.00
H73    H     0.88120   0.44072   0.46327   0.00000  Uiso   1.00
H74    H     0.90051   0.87784   0.65582   0.00000  Uiso   1.00
H75    H     0.55351   0.37235   0.71436   0.00000  Uiso   1.00
H76    H     0.96716   0.63140   0.39269   0.00000  Uiso   1.00
H77    H     0.82389   0.41713   0.88561   0.00000  Uiso   1.00
H78    H     0.86870   0.22350   0.92676   0.00000  Uiso   1.00
H79    H     0.70413   0.45800   0.95453   0.00000  Uiso   1.00
H80    H     0.90030   0.58085   0.80198   0.00000  Uiso   1.00
H81    H     0.91601   0.99157   0.93073   0.00000  Uiso   1.00
H82    H     0.56901   0.48608   0.98927   0.00000  Uiso   1.00
H83    H     0.98266   0.74512   0.66760   0.00000  Uiso   1.00
O84    O     0.93739   0.80492   0.81456   0.00000  Uiso   1.00
O85    O     0.48214   0.45371   0.89136   0.00000  Uiso   1.00
O86    O     0.02484   0.79357   0.46933   0.00000  Uiso   1.00
N87    N     0.89802   0.93119   0.71486   0.00000  Uiso   1.00
N88    N     0.57359   0.39350   0.76960   0.00000  Uiso   1.00
N89    N     0.96030   0.63571   0.46886   0.00000  Uiso   1.00
N90    N     0.90636   0.99239   0.86279   0.00000  Uiso   1.00
N91    N     0.58193   0.45470   0.91753   0.00000  Uiso   1.00
N92    N     0.96865   0.69691   0.61679   0.00000  Uiso   1.00
C93    C     0.80994   0.68528   0.13808   0.00000  Uiso   1.00
C94    C     0.83626   0.77602   0.19538   0.00000  Uiso   1.00
C95    C     0.85374   0.88640   0.16117   0.00000  Uiso   1.00
C96    C     0.87676   0.95641   0.22487   0.00000  Uiso   1.00
C97    C     0.91679   0.10327   0.29950   0.00000  Uiso   1.00
C98    C     0.74684   0.64862   0.21048   0.00000  Uiso   1.00
C99    C     0.68914   0.65187   0.18895   0.00000  Uiso   1.00
C100   C     0.63689   0.61462   0.26535   0.00000  Uiso   1.00
C101   C     0.53810   0.56361   0.36339   0.00000  Uiso   1.00
C102   C     0.85343   0.58188   0.12759   0.00000  Uiso   1.00
C103   C     0.88533   0.52900   0.03638   0.00000  Uiso   1.00
C104   C     0.92281   0.43554   0.04300   0.00000  Uiso   1.00
C105   C     0.98951   0.28091   0.01234   0.00000  Uiso   1.00
C106   C     0.81975   0.61331   0.31204   0.00000  Uiso   1.00
C107   C     0.84158   0.73692   0.28987   0.00000  Uiso   1.00
C108   C     0.86459   0.80678   0.35364   0.00000  Uiso   1.00
C109   C     0.88210   0.91725   0.31952   0.00000  Uiso   1.00
C110   C     0.75217   0.60953   0.30497   0.00000  Uiso   1.00
C111   C     0.69999   0.57225   0.38142   0.00000  Uiso   1.00
C112   C     0.64222   0.57546   0.36001   0.00000  Uiso   1.00
C113   C     0.85876   0.54279   0.22208   0.00000  Uiso   1.00
C114   C     0.89618   0.44938   0.22885   0.00000  Uiso   1.00
C115   C     0.92814   0.39638   0.13766   0.00000  Uiso   1.00
H116   H     0.80579   0.71571   0.06452   0.00000  Uiso   1.00
H117   H     0.84960   0.91663   0.08804   0.00000  Uiso   1.00
H118   H     0.68503   0.68212   0.11582   0.00000  Uiso   1.00
H119   H     0.88120   0.55928   0.96327   0.00000  Uiso   1.00
H120   H     0.90051   0.12216   0.15582   0.00000  Uiso   1.00
H121   H     0.55351   0.62765   0.21436   0.00000  Uiso   1.00
H122   H     0.96716   0.36860   0.89269   0.00000  Uiso   1.00
H123   H     0.82389   0.58287   0.38561   0.00000  Uiso   1.00
H124   H     0.86870   0.77650   0.42676   0.00000  Uiso   1.00
H125   H     0.70413   0.54200   0.45453   0.00000  Uiso   1.00
H126   H     0.90030   0.41915   0.30198   0.00000  Uiso   1.00
H127   H     0.91601   0.00843   0.43073   0.00000  Uiso   1.00
H128   H     0.56901   0.51392   0.48927   0.00000  Uiso   1.00
H129   H     0.98266   0.25488   0.16760   0.00000  Uiso   1.00
O130   O     0.93739   0.19508   0.31456   0.00000  Uiso   1.00
O131   O     0.48214   0.54629   0.39136   0.00000  Uiso   1.00
O132   O     0.02484   0.20643   0.96933   0.00000  Uiso   1.00
N133   N     0.89802   0.06881   0.21486   0.00000  Uiso   1.00
N134   N     0.57359   0.60650   0.26960   0.00000  Uiso   1.00
N135   N     0.96030   0.36429   0.96886   0.00000  Uiso   1.00
N136   N     0.90636   0.00761   0.36279   0.00000  Uiso   1.00
N137   N     0.58193   0.54530   0.41753   0.00000  Uiso   1.00
N138   N     0.96865   0.30309   0.11679   0.00000  Uiso   1.00
C139   C     0.19006   0.68528   0.36192   0.00000  Uiso   1.00
C140   C     0.16374   0.77602   0.30462   0.00000  Uiso   1.00
C141   C     0.14626   0.88640   0.33883   0.00000  Uiso   1.00
C142   C     0.12324   0.95641   0.27513   0.00000  Uiso   1.00
C143   C     0.08321   0.10327   0.20050   0.00000  Uiso   1.00
C144   C     0.25316   0.64862   0.28952   0.00000  Uiso   1.00
C145   C     0.31086   0.65187   0.31105   0.00000  Uiso   1.00
C146   C     0.36311   0.61462   0.23465   0.00000  Uiso   1.00
C147   C     0.46190   0.56361   0.13661   0.00000  Uiso   1.00
C148   C     0.14657   0.58188   0.37241   0.00000  Uiso   1.00
C149   C     0.11467   0.52900   0.46362   0.00000  Uiso   1.00
C150   C     0.07719   0.43554   0.45700   0.00000  Uiso   1.00
C151   C     0.01049   0.28091   0.48766   0.00000  Uiso   1.00
C152   C     0.18025   0.61331   0.18796   0.00000  Uiso   1.00
C153   C     0.15842   0.73692   0.21013   0.00000  Uiso   1.00
C154   C     0.13541   0.80678   0.14636   0.00000  Uiso   1.00
C155   C     0.11790   0.91725   0.18048   0.00000  Uiso   1.00
C156   C     0.24783   0.60953   0.19503   0.00000  Uiso   1.00
C157   C     0.30001   0.57225   0.11858   0.00000  Uiso   1.00
C158   C     0.35778   0.57546   0.13999   0.00000  Uiso   1.00
C159   C     0.14124   0.54279   0.27792   0.00000  Uiso   1.00
C160   C     0.10382   0.44938   0.27115   0.00000  Uiso   1.00
C161   C     0.07186   0.39638   0.36234   0.00000  Uiso   1.00
H162   H     0.19421   0.71571   0.43548   0.00000  Uiso   1.00
H163   H     0.15040   0.91663   0.41196   0.00000  Uiso   1.00
H164   H     0.31497   0.68212   0.38418   0.00000  Uiso   1.00
H165   H     0.11880   0.55928   0.53673   0.00000  Uiso   1.00
H166   H     0.09949   0.12216   0.34418   0.00000  Uiso   1.00
H167   H     0.44649   0.62765   0.28564   0.00000  Uiso   1.00
H168   H     0.03284   0.36860   0.60731   0.00000  Uiso   1.00
H169   H     0.17611   0.58287   0.11439   0.00000  Uiso   1.00
H170   H     0.13130   0.77650   0.07324   0.00000  Uiso   1.00
H171   H     0.29587   0.54200   0.04547   0.00000  Uiso   1.00
H172   H     0.09970   0.41915   0.19802   0.00000  Uiso   1.00
H173   H     0.08399   0.00843   0.06927   0.00000  Uiso   1.00
H174   H     0.43099   0.51392   0.01073   0.00000  Uiso   1.00
H175   H     0.01734   0.25488   0.33240   0.00000  Uiso   1.00
O176   O     0.06261   0.19508   0.18544   0.00000  Uiso   1.00
O177   O     0.51786   0.54629   0.10864   0.00000  Uiso   1.00
O178   O     0.97516   0.20643   0.53067   0.00000  Uiso   1.00
N179   N     0.10198   0.06881   0.28514   0.00000  Uiso   1.00
N180   N     0.42641   0.60650   0.23040   0.00000  Uiso   1.00
N181   N     0.03970   0.36429   0.53114   0.00000  Uiso   1.00
N182   N     0.09364   0.00761   0.13721   0.00000  Uiso   1.00
N183   N     0.41807   0.54530   0.08247   0.00000  Uiso   1.00
N184   N     0.03135   0.30309   0.38321   0.00000  Uiso   1.00
