data_job_03020
_audit_creation_date              2018-12-19
_audit_creation_method            'Materials Studio'
_symmetry_space_group_name_H-M    'P1'
_symmetry_Int_Tables_number       1
_symmetry_cell_setting            triclinic
loop_
_symmetry_equiv_pos_as_xyz
  x,y,z
_cell_length_a                    18.8368
_cell_length_b                    21.8128
_cell_length_c                    16.6969
_cell_angle_alpha                 90.0000
_cell_angle_beta                  155.0151
_cell_angle_gamma                 90.0000
loop_
_atom_site_label
_atom_site_type_symbol
_atom_site_fract_x
_atom_site_fract_y
_atom_site_fract_z
_atom_site_U_iso_or_equiv
_atom_site_adp_type
_atom_site_occupancy
C1     C     0.15136   0.27834   0.15336   0.00000  Uiso   1.00
C2     C     0.10526   0.30863   0.18554   0.00000  Uiso   1.00
C3     C     0.20002   0.35249   0.32226   0.00000  Uiso   1.00
C4     C     0.13619   0.37452   0.32883   0.00000  Uiso   1.00
C5     C     0.08793   0.42473   0.39799   0.00000  Uiso   1.00
C6     C     0.15168   0.20949   0.16953   0.00000  Uiso   1.00
C7     C     0.28547   0.17001   0.29277   0.00000  Uiso   1.00
C8     C     0.26070   0.10860   0.28583   0.00000  Uiso   1.00
C9     C     0.28446   0.00490   0.33003   0.00000  Uiso   1.00
C10    C     0.00399   0.29027   0.94639   0.00000  Uiso   1.00
C11    C     0.01360   0.31869   0.88199   0.00000  Uiso   1.00
C12    C     0.86449   0.32527   0.68717   0.00000  Uiso   1.00
C13    C     0.65896   0.34698   0.38492   0.00000  Uiso   1.00
C14    C     0.86948   0.23947   0.92188   0.00000  Uiso   1.00
C15    C     0.95215   0.28751   0.05981   0.00000  Uiso   1.00
C16    C     0.88815   0.30949   0.06616   0.00000  Uiso   1.00
C17    C     0.98280   0.35338   0.20287   0.00000  Uiso   1.00
C18    C     0.99857   0.18838   0.04381   0.00000  Uiso   1.00
C19    C     0.97359   0.12701   0.03667   0.00000  Uiso   1.00
C20    C     0.10731   0.08745   0.15988   0.00000  Uiso   1.00
C21    C     0.85088   0.26916   0.82065   0.00000  Uiso   1.00
C22    C     0.70173   0.27569   0.62589   0.00000  Uiso   1.00
C23    C     0.71111   0.30411   0.56122   0.00000  Uiso   1.00
H24    H     0.27057   0.29478   0.25125   0.00000  Uiso   1.00
H25    H     0.31852   0.36881   0.41955   0.00000  Uiso   1.00
H26    H     0.40393   0.18636   0.39004   0.00000  Uiso   1.00
H27    H     0.13211   0.33502   0.97933   0.00000  Uiso   1.00
H28    H     0.30418   0.44157   0.55074   0.00000  Uiso   1.00
H29    H     0.48427   0.05686   0.48848   0.00000  Uiso   1.00
H30    H     0.91108   0.37033   0.62242   0.00000  Uiso   1.00
H31    H     0.75027   0.22303   0.82399   0.00000  Uiso   1.00
H32    H     0.76966   0.29314   0.96885   0.00000  Uiso   1.00
H33    H     0.85509   0.11069   0.93935   0.00000  Uiso   1.00
H34    H     0.58327   0.25934   0.52864   0.00000  Uiso   1.00
H35    H     0.85872   0.38015   0.18495   0.00000  Uiso   1.00
H36    H     0.03881   0.99544   0.12268   0.00000  Uiso   1.00
H37    H     0.46562   0.30891   0.25662   0.00000  Uiso   1.00
O38    O     0.10362   0.45825   0.47089   0.00000  Uiso   1.00
O39    O     0.33989   0.95353   0.38917   0.00000  Uiso   1.00
O40    O     0.58788   0.36480   0.25293   0.00000  Uiso   1.00
N41    N     0.19666   0.41750   0.44475   0.00000  Uiso   1.00
N42    N     0.36505   0.05782   0.38656   0.00000  Uiso   1.00
N43    N     0.82917   0.35088   0.57686   0.00000  Uiso   1.00
N44    N     0.95696   0.38445   0.24791   0.00000  Uiso   1.00
N45    N     0.12535   0.02477   0.18972   0.00000  Uiso   1.00
N46    N     0.58947   0.31783   0.38002   0.00000  Uiso   1.00
C47    C     0.84864   0.77834   0.34664   0.00000  Uiso   1.00
C48    C     0.89474   0.80863   0.31446   0.00000  Uiso   1.00
C49    C     0.79998   0.85249   0.17774   0.00000  Uiso   1.00
C50    C     0.86381   0.87452   0.17117   0.00000  Uiso   1.00
C51    C     0.91207   0.92473   0.10201   0.00000  Uiso   1.00
C52    C     0.84832   0.70949   0.33047   0.00000  Uiso   1.00
C53    C     0.71453   0.67001   0.20723   0.00000  Uiso   1.00
C54    C     0.73930   0.60860   0.21417   0.00000  Uiso   1.00
C55    C     0.71554   0.50490   0.16997   0.00000  Uiso   1.00
C56    C     0.99601   0.79027   0.55361   0.00000  Uiso   1.00
C57    C     0.98640   0.81869   0.61801   0.00000  Uiso   1.00
C58    C     0.13551   0.82527   0.81283   0.00000  Uiso   1.00
C59    C     0.34104   0.84698   0.11508   0.00000  Uiso   1.00
C60    C     0.13052   0.73947   0.57812   0.00000  Uiso   1.00
C61    C     0.04785   0.78751   0.44019   0.00000  Uiso   1.00
C62    C     0.11185   0.80949   0.43384   0.00000  Uiso   1.00
C63    C     0.01720   0.85338   0.29713   0.00000  Uiso   1.00
C64    C     0.00143   0.68838   0.45619   0.00000  Uiso   1.00
C65    C     0.02641   0.62701   0.46333   0.00000  Uiso   1.00
C66    C     0.89269   0.58745   0.34012   0.00000  Uiso   1.00
C67    C     0.14912   0.76916   0.67935   0.00000  Uiso   1.00
C68    C     0.29827   0.77569   0.87411   0.00000  Uiso   1.00
C69    C     0.28889   0.80411   0.93878   0.00000  Uiso   1.00
H70    H     0.72943   0.79478   0.24875   0.00000  Uiso   1.00
H71    H     0.68148   0.86881   0.08045   0.00000  Uiso   1.00
H72    H     0.59607   0.68636   0.10996   0.00000  Uiso   1.00
H73    H     0.86789   0.83502   0.52067   0.00000  Uiso   1.00
H74    H     0.69582   0.94157   0.94926   0.00000  Uiso   1.00
H75    H     0.51573   0.55686   0.01152   0.00000  Uiso   1.00
H76    H     0.08892   0.87033   0.87758   0.00000  Uiso   1.00
H77    H     0.24973   0.72303   0.67601   0.00000  Uiso   1.00
H78    H     0.23034   0.79314   0.53115   0.00000  Uiso   1.00
H79    H     0.14491   0.61069   0.56065   0.00000  Uiso   1.00
H80    H     0.41673   0.75934   0.97136   0.00000  Uiso   1.00
H81    H     0.14128   0.88015   0.31505   0.00000  Uiso   1.00
H82    H     0.96119   0.49544   0.37732   0.00000  Uiso   1.00
H83    H     0.53438   0.80891   0.24338   0.00000  Uiso   1.00
O84    O     0.89638   0.95825   0.02911   0.00000  Uiso   1.00
O85    O     0.66011   0.45353   0.11083   0.00000  Uiso   1.00
O86    O     0.41212   0.86480   0.24707   0.00000  Uiso   1.00
N87    N     0.80334   0.91750   0.05525   0.00000  Uiso   1.00
N88    N     0.63495   0.55782   0.11344   0.00000  Uiso   1.00
N89    N     0.17083   0.85088   0.92314   0.00000  Uiso   1.00
N90    N     0.04304   0.88445   0.25209   0.00000  Uiso   1.00
N91    N     0.87465   0.52477   0.31028   0.00000  Uiso   1.00
N92    N     0.41053   0.81783   0.11998   0.00000  Uiso   1.00
C93    C     0.84864   0.72166   0.84664   0.00000  Uiso   1.00
C94    C     0.89474   0.69137   0.81446   0.00000  Uiso   1.00
C95    C     0.79998   0.64751   0.67774   0.00000  Uiso   1.00
C96    C     0.86381   0.62548   0.67117   0.00000  Uiso   1.00
C97    C     0.91207   0.57527   0.60201   0.00000  Uiso   1.00
C98    C     0.84832   0.79051   0.83047   0.00000  Uiso   1.00
C99    C     0.71453   0.82999   0.70723   0.00000  Uiso   1.00
C100   C     0.73930   0.89140   0.71417   0.00000  Uiso   1.00
C101   C     0.71554   0.99510   0.66997   0.00000  Uiso   1.00
C102   C     0.99601   0.70973   0.05361   0.00000  Uiso   1.00
C103   C     0.98640   0.68131   0.11801   0.00000  Uiso   1.00
C104   C     0.13551   0.67473   0.31283   0.00000  Uiso   1.00
C105   C     0.34104   0.65302   0.61508   0.00000  Uiso   1.00
C106   C     0.13052   0.76053   0.07812   0.00000  Uiso   1.00
C107   C     0.04785   0.71249   0.94019   0.00000  Uiso   1.00
C108   C     0.11185   0.69051   0.93384   0.00000  Uiso   1.00
C109   C     0.01720   0.64662   0.79713   0.00000  Uiso   1.00
C110   C     0.00143   0.81162   0.95619   0.00000  Uiso   1.00
C111   C     0.02641   0.87299   0.96333   0.00000  Uiso   1.00
C112   C     0.89269   0.91255   0.84012   0.00000  Uiso   1.00
C113   C     0.14912   0.73084   0.17935   0.00000  Uiso   1.00
C114   C     0.29827   0.72431   0.37411   0.00000  Uiso   1.00
C115   C     0.28889   0.69589   0.43878   0.00000  Uiso   1.00
H116   H     0.72943   0.70522   0.74875   0.00000  Uiso   1.00
H117   H     0.68148   0.63119   0.58045   0.00000  Uiso   1.00
H118   H     0.59607   0.81364   0.60996   0.00000  Uiso   1.00
H119   H     0.86789   0.66498   0.02067   0.00000  Uiso   1.00
H120   H     0.69582   0.55843   0.44926   0.00000  Uiso   1.00
H121   H     0.51573   0.94314   0.51152   0.00000  Uiso   1.00
H122   H     0.08892   0.62967   0.37758   0.00000  Uiso   1.00
H123   H     0.24973   0.77697   0.17601   0.00000  Uiso   1.00
H124   H     0.23034   0.70686   0.03115   0.00000  Uiso   1.00
H125   H     0.14491   0.88931   0.06065   0.00000  Uiso   1.00
H126   H     0.41673   0.74066   0.47136   0.00000  Uiso   1.00
H127   H     0.14128   0.61985   0.81505   0.00000  Uiso   1.00
H128   H     0.96119   0.00456   0.87732   0.00000  Uiso   1.00
H129   H     0.53438   0.69109   0.74338   0.00000  Uiso   1.00
O130   O     0.89638   0.54175   0.52911   0.00000  Uiso   1.00
O131   O     0.66011   0.04647   0.61083   0.00000  Uiso   1.00
O132   O     0.41212   0.63520   0.74707   0.00000  Uiso   1.00
N133   N     0.80334   0.58250   0.55525   0.00000  Uiso   1.00
N134   N     0.63495   0.94218   0.61344   0.00000  Uiso   1.00
N135   N     0.17083   0.64912   0.42314   0.00000  Uiso   1.00
N136   N     0.04304   0.61555   0.75209   0.00000  Uiso   1.00
N137   N     0.87465   0.97523   0.81028   0.00000  Uiso   1.00
N138   N     0.41053   0.68217   0.61998   0.00000  Uiso   1.00
C139   C     0.15136   0.22166   0.65336   0.00000  Uiso   1.00
C140   C     0.10526   0.19137   0.68554   0.00000  Uiso   1.00
C141   C     0.20002   0.14751   0.82226   0.00000  Uiso   1.00
C142   C     0.13619   0.12548   0.82883   0.00000  Uiso   1.00
C143   C     0.08793   0.07527   0.89799   0.00000  Uiso   1.00
C144   C     0.15168   0.29051   0.66953   0.00000  Uiso   1.00
C145   C     0.28547   0.32999   0.79277   0.00000  Uiso   1.00
C146   C     0.26070   0.39140   0.78583   0.00000  Uiso   1.00
C147   C     0.28446   0.49510   0.83003   0.00000  Uiso   1.00
C148   C     0.00399   0.20973   0.44639   0.00000  Uiso   1.00
C149   C     0.01360   0.18131   0.38199   0.00000  Uiso   1.00
C150   C     0.86449   0.17473   0.18717   0.00000  Uiso   1.00
C151   C     0.65896   0.15302   0.88492   0.00000  Uiso   1.00
C152   C     0.86948   0.26053   0.42188   0.00000  Uiso   1.00
C153   C     0.95215   0.21249   0.55981   0.00000  Uiso   1.00
C154   C     0.88815   0.19051   0.56616   0.00000  Uiso   1.00
C155   C     0.98280   0.14662   0.70287   0.00000  Uiso   1.00
C156   C     0.99857   0.31162   0.54381   0.00000  Uiso   1.00
C157   C     0.97359   0.37299   0.53667   0.00000  Uiso   1.00
C158   C     0.10731   0.41255   0.65988   0.00000  Uiso   1.00
C159   C     0.85088   0.23084   0.32065   0.00000  Uiso   1.00
C160   C     0.70173   0.22431   0.12589   0.00000  Uiso   1.00
C161   C     0.71111   0.19589   0.06122   0.00000  Uiso   1.00
H162   H     0.27057   0.20522   0.75125   0.00000  Uiso   1.00
H163   H     0.31852   0.13119   0.91955   0.00000  Uiso   1.00
H164   H     0.40393   0.31364   0.89004   0.00000  Uiso   1.00
H165   H     0.13211   0.16498   0.47933   0.00000  Uiso   1.00
H166   H     0.30418   0.05843   0.05074   0.00000  Uiso   1.00
H167   H     0.48427   0.44314   0.98848   0.00000  Uiso   1.00
H168   H     0.91108   0.12967   0.12242   0.00000  Uiso   1.00
H169   H     0.75027   0.27697   0.32399   0.00000  Uiso   1.00
H170   H     0.76966   0.20686   0.46885   0.00000  Uiso   1.00
H171   H     0.85509   0.38931   0.43935   0.00000  Uiso   1.00
H172   H     0.58327   0.24066   0.02864   0.00000  Uiso   1.00
H173   H     0.85872   0.11985   0.68495   0.00000  Uiso   1.00
H174   H     0.03881   0.50456   0.62268   0.00000  Uiso   1.00
H175   H     0.46562   0.19109   0.75662   0.00000  Uiso   1.00
O176   O     0.10362   0.04175   0.97089   0.00000  Uiso   1.00
O177   O     0.33989   0.54647   0.88917   0.00000  Uiso   1.00
O178   O     0.58788   0.13520   0.75293   0.00000  Uiso   1.00
N179   N     0.19666   0.08250   0.94475   0.00000  Uiso   1.00
N180   N     0.36505   0.44218   0.88656   0.00000  Uiso   1.00
N181   N     0.82917   0.14912   0.07686   0.00000  Uiso   1.00
N182   N     0.95696   0.11555   0.74791   0.00000  Uiso   1.00
N183   N     0.12535   0.47523   0.68972   0.00000  Uiso   1.00
N184   N     0.58947   0.18217   0.88002   0.00000  Uiso   1.00
