data_job_03811
_audit_creation_date              2018-12-19
_audit_creation_method            'Materials Studio'
_symmetry_space_group_name_H-M    'P1'
_symmetry_Int_Tables_number       1
_symmetry_cell_setting            triclinic
loop_
_symmetry_equiv_pos_as_xyz
  x,y,z
_cell_length_a                    12.5607
_cell_length_b                    12.5607
_cell_length_c                    72.7105
_cell_angle_alpha                 90.0000
_cell_angle_beta                  90.0000
_cell_angle_gamma                 120.0000
loop_
_atom_site_label
_atom_site_type_symbol
_atom_site_fract_x
_atom_site_fract_y
_atom_site_fract_z
_atom_site_U_iso_or_equiv
_atom_site_adp_type
_atom_site_occupancy
C1     C     0.47304   0.93036   0.47438   0.00000  Uiso   1.00
C2     C     0.38121   0.96807   0.46787   0.00000  Uiso   1.00
C3     C     0.35730   0.05255   0.47647   0.00000  Uiso   1.00
C4     C     0.26998   0.07438   0.46835   0.00000  Uiso   1.00
C5     C     0.13664   0.14209   0.46069   0.00000  Uiso   1.00
C6     C     0.40018   0.79101   0.47660   0.00000  Uiso   1.00
C7     C     0.39223   0.72663   0.49253   0.00000  Uiso   1.00
C8     C     0.32089   0.59941   0.49176   0.00000  Uiso   1.00
C9     C     0.21707   0.39222   0.49765   0.00000  Uiso   1.00
C10    C     0.56060   0.95562   0.45832   0.00000  Uiso   1.00
C11    C     0.68754   0.02962   0.45889   0.00000  Uiso   1.00
C12    C     0.75127   0.04096   0.44273   0.00000  Uiso   1.00
C13    C     0.89653   0.08937   0.42024   0.00000  Uiso   1.00
C14    C     0.36049   0.81890   0.44467   0.00000  Uiso   1.00
C15    C     0.32007   0.90752   0.45173   0.00000  Uiso   1.00
C16    C     0.23277   0.92923   0.44359   0.00000  Uiso   1.00
C17    C     0.20874   0.01373   0.45218   0.00000  Uiso   1.00
C18    C     0.33904   0.73047   0.46046   0.00000  Uiso   1.00
C19    C     0.26770   0.60331   0.45966   0.00000  Uiso   1.00
C20    C     0.25964   0.53875   0.47559   0.00000  Uiso   1.00
C21    C     0.49946   0.89508   0.44218   0.00000  Uiso   1.00
C22    C     0.56300   0.90630   0.42601   0.00000  Uiso   1.00
C23    C     0.69002   0.98031   0.42656   0.00000  Uiso   1.00
H24    H     0.52064   0.97749   0.48695   0.00000  Uiso   1.00
H25    H     0.40463   0.09937   0.48896   0.00000  Uiso   1.00
H26    H     0.43956   0.77350   0.50502   0.00000  Uiso   1.00
H27    H     0.73482   0.07645   0.47138   0.00000  Uiso   1.00
H28    H     0.24901   0.20777   0.48407   0.00000  Uiso   1.00
H29    H     0.32271   0.52065   0.51794   0.00000  Uiso   1.00
H30    H     0.94532   0.15948   0.44701   0.00000  Uiso   1.00
H31    H     0.31289   0.77176   0.43210   0.00000  Uiso   1.00
H32    H     0.18547   0.88237   0.43110   0.00000  Uiso   1.00
H33    H     0.22041   0.55649   0.44717   0.00000  Uiso   1.00
H34    H     0.51566   0.85944   0.41353   0.00000  Uiso   1.00
H35    H     0.07113   0.03164   0.43712   0.00000  Uiso   1.00
H36    H     0.14484   0.34452   0.47098   0.00000  Uiso   1.00
H37    H     0.76744   0.98335   0.40005   0.00000  Uiso   1.00
O38    O     0.07998   0.19614   0.46093   0.00000  Uiso   1.00
O39    O     0.17669   0.29467   0.50536   0.00000  Uiso   1.00
O40    O     0.99353   0.13280   0.41230   0.00000  Uiso   1.00
N41    N     0.22465   0.15116   0.47316   0.00000  Uiso   1.00
N42    N     0.29354   0.50874   0.50482   0.00000  Uiso   1.00
N43    N     0.87563   0.10597   0.43851   0.00000  Uiso   1.00
N44    N     0.12894   0.05638   0.44789   0.00000  Uiso   1.00
N45    N     0.19783   0.41397   0.47956   0.00000  Uiso   1.00
N46    N     0.77992   0.01119   0.41324   0.00000  Uiso   1.00
C47    C     0.06964   0.54268   0.14105   0.00000  Uiso   1.00
C48    C     0.03193   0.41315   0.13453   0.00000  Uiso   1.00
C49    C     0.94745   0.30476   0.14313   0.00000  Uiso   1.00
C50    C     0.92562   0.19560   0.13501   0.00000  Uiso   1.00
C51    C     0.85791   0.99456   0.12736   0.00000  Uiso   1.00
C52    C     0.20899   0.60917   0.14326   0.00000  Uiso   1.00
C53    C     0.27337   0.66561   0.15920   0.00000  Uiso   1.00
C54    C     0.40059   0.72148   0.15843   0.00000  Uiso   1.00
C55    C     0.60778   0.82485   0.16432   0.00000  Uiso   1.00
C56    C     0.04438   0.60498   0.12499   0.00000  Uiso   1.00
C57    C     0.97038   0.65793   0.12556   0.00000  Uiso   1.00
C58    C     0.95904   0.71030   0.10939   0.00000  Uiso   1.00
C59    C     0.91063   0.80716   0.08691   0.00000  Uiso   1.00
C60    C     0.18110   0.54159   0.11133   0.00000  Uiso   1.00
C61    C     0.09248   0.41255   0.11839   0.00000  Uiso   1.00
C62    C     0.07077   0.30354   0.11026   0.00000  Uiso   1.00
C63    C     0.98627   0.19500   0.11884   0.00000  Uiso   1.00
C64    C     0.26953   0.60858   0.12712   0.00000  Uiso   1.00
C65    C     0.39669   0.66439   0.12632   0.00000  Uiso   1.00
C66    C     0.46125   0.72089   0.14226   0.00000  Uiso   1.00
C67    C     0.10492   0.60438   0.10885   0.00000  Uiso   1.00
C68    C     0.09370   0.65670   0.09268   0.00000  Uiso   1.00
C69    C     0.01969   0.70971   0.09323   0.00000  Uiso   1.00
H70    H     0.02251   0.54315   0.15361   0.00000  Uiso   1.00
H71    H     0.90063   0.30526   0.15563   0.00000  Uiso   1.00
H72    H     0.22650   0.66606   0.17169   0.00000  Uiso   1.00
H73    H     0.92355   0.65837   0.13805   0.00000  Uiso   1.00
H74    H     0.79223   0.04124   0.15074   0.00000  Uiso   1.00
H75    H     0.47935   0.80206   0.18461   0.00000  Uiso   1.00
H76    H     0.84052   0.78585   0.11367   0.00000  Uiso   1.00
H77    H     0.22824   0.54112   0.09877   0.00000  Uiso   1.00
H78    H     0.11763   0.30311   0.09777   0.00000  Uiso   1.00
H79    H     0.44351   0.66391   0.11383   0.00000  Uiso   1.00
H80    H     0.14056   0.65622   0.08019   0.00000  Uiso   1.00
H81    H     0.96836   0.03949   0.10378   0.00000  Uiso   1.00
H82    H     0.65548   0.80032   0.13765   0.00000  Uiso   1.00
H83    H     0.01665   0.78410   0.06672   0.00000  Uiso   1.00
O84    O     0.80386   0.88383   0.12760   0.00000  Uiso   1.00
O85    O     0.70533   0.88201   0.17203   0.00000  Uiso   1.00
O86    O     0.86720   0.86073   0.07897   0.00000  Uiso   1.00
N87    N     0.84884   0.07349   0.13982   0.00000  Uiso   1.00
N88    N     0.49126   0.78480   0.17149   0.00000  Uiso   1.00
N89    N     0.89403   0.76967   0.10517   0.00000  Uiso   1.00
N90    N     0.94362   0.07255   0.11456   0.00000  Uiso   1.00
N91    N     0.58603   0.78386   0.14622   0.00000  Uiso   1.00
N92    N     0.98881   0.76873   0.07990   0.00000  Uiso   1.00
C93    C     0.45732   0.52696   0.80772   0.00000  Uiso   1.00
C94    C     0.58685   0.61879   0.80120   0.00000  Uiso   1.00
C95    C     0.69524   0.64270   0.80980   0.00000  Uiso   1.00
C96    C     0.80440   0.73002   0.80168   0.00000  Uiso   1.00
C97    C     0.00544   0.86336   0.79403   0.00000  Uiso   1.00
C98    C     0.39083   0.59982   0.80993   0.00000  Uiso   1.00
C99    C     0.33439   0.60777   0.82587   0.00000  Uiso   1.00
C100   C     0.27852   0.67911   0.82509   0.00000  Uiso   1.00
C101   C     0.17515   0.78293   0.83099   0.00000  Uiso   1.00
C102   C     0.39502   0.43940   0.79165   0.00000  Uiso   1.00
C103   C     0.34207   0.31246   0.79222   0.00000  Uiso   1.00
C104   C     0.28970   0.24873   0.77606   0.00000  Uiso   1.00
C105   C     0.19284   0.10347   0.75358   0.00000  Uiso   1.00
C106   C     0.45841   0.63951   0.77800   0.00000  Uiso   1.00
C107   C     0.58745   0.67993   0.78506   0.00000  Uiso   1.00
C108   C     0.69646   0.76723   0.77692   0.00000  Uiso   1.00
C109   C     0.80500   0.79126   0.78551   0.00000  Uiso   1.00
C110   C     0.39142   0.66096   0.79379   0.00000  Uiso   1.00
C111   C     0.33561   0.73230   0.79299   0.00000  Uiso   1.00
C112   C     0.27911   0.74036   0.80892   0.00000  Uiso   1.00
C113   C     0.39562   0.50054   0.77551   0.00000  Uiso   1.00
C114   C     0.34330   0.43700   0.75935   0.00000  Uiso   1.00
C115   C     0.29029   0.30998   0.75989   0.00000  Uiso   1.00
H116   H     0.45685   0.47936   0.82028   0.00000  Uiso   1.00
H117   H     0.69474   0.59537   0.82229   0.00000  Uiso   1.00
H118   H     0.33394   0.56044   0.83835   0.00000  Uiso   1.00
H119   H     0.34163   0.26518   0.80472   0.00000  Uiso   1.00
H120   H     0.95876   0.75099   0.81741   0.00000  Uiso   1.00
H121   H     0.19794   0.67729   0.85128   0.00000  Uiso   1.00
H122   H     0.21415   0.05468   0.78034   0.00000  Uiso   1.00
H123   H     0.45888   0.68711   0.76543   0.00000  Uiso   1.00
H124   H     0.69689   0.81453   0.76443   0.00000  Uiso   1.00
H125   H     0.33609   0.77959   0.78050   0.00000  Uiso   1.00
H126   H     0.34378   0.48434   0.74686   0.00000  Uiso   1.00
H127   H     0.96051   0.92887   0.77045   0.00000  Uiso   1.00
H128   H     0.19968   0.85516   0.80432   0.00000  Uiso   1.00
H129   H     0.21590   0.23256   0.73338   0.00000  Uiso   1.00
O130   O     0.11617   0.92002   0.79426   0.00000  Uiso   1.00
O131   O     0.11799   0.82331   0.83870   0.00000  Uiso   1.00
O132   O     0.13927   0.00647   0.74563   0.00000  Uiso   1.00
N133   N     0.92651   0.77535   0.80649   0.00000  Uiso   1.00
N134   N     0.21520   0.70646   0.83816   0.00000  Uiso   1.00
N135   N     0.23033   0.12437   0.77184   0.00000  Uiso   1.00
N136   N     0.92745   0.87106   0.78122   0.00000  Uiso   1.00
N137   N     0.21614   0.80217   0.81289   0.00000  Uiso   1.00
N138   N     0.23127   0.22008   0.74657   0.00000  Uiso   1.00
C139   C     0.52696   0.06964   0.97438   0.00000  Uiso   1.00
C140   C     0.61879   0.03193   0.96787   0.00000  Uiso   1.00
C141   C     0.64270   0.94745   0.97647   0.00000  Uiso   1.00
C142   C     0.73002   0.92562   0.96835   0.00000  Uiso   1.00
C143   C     0.86336   0.85791   0.96069   0.00000  Uiso   1.00
C144   C     0.59982   0.20899   0.97660   0.00000  Uiso   1.00
C145   C     0.60777   0.27337   0.99253   0.00000  Uiso   1.00
C146   C     0.67911   0.40059   0.99176   0.00000  Uiso   1.00
C147   C     0.78293   0.60778   0.99765   0.00000  Uiso   1.00
C148   C     0.43940   0.04438   0.95832   0.00000  Uiso   1.00
C149   C     0.31246   0.97038   0.95889   0.00000  Uiso   1.00
C150   C     0.24873   0.95904   0.94273   0.00000  Uiso   1.00
C151   C     0.10347   0.91063   0.92024   0.00000  Uiso   1.00
C152   C     0.63951   0.18110   0.94467   0.00000  Uiso   1.00
C153   C     0.67993   0.09248   0.95173   0.00000  Uiso   1.00
C154   C     0.76723   0.07077   0.94359   0.00000  Uiso   1.00
C155   C     0.79126   0.98627   0.95218   0.00000  Uiso   1.00
C156   C     0.66096   0.26953   0.96046   0.00000  Uiso   1.00
C157   C     0.73230   0.39669   0.95966   0.00000  Uiso   1.00
C158   C     0.74036   0.46125   0.97559   0.00000  Uiso   1.00
C159   C     0.50054   0.10492   0.94218   0.00000  Uiso   1.00
C160   C     0.43700   0.09370   0.92601   0.00000  Uiso   1.00
C161   C     0.30998   0.01969   0.92656   0.00000  Uiso   1.00
H162   H     0.47936   0.02251   0.98695   0.00000  Uiso   1.00
H163   H     0.59537   0.90063   0.98896   0.00000  Uiso   1.00
H164   H     0.56044   0.22650   0.00502   0.00000  Uiso   1.00
H165   H     0.26518   0.92355   0.97138   0.00000  Uiso   1.00
H166   H     0.75099   0.79223   0.98407   0.00000  Uiso   1.00
H167   H     0.67729   0.47935   0.01794   0.00000  Uiso   1.00
H168   H     0.05468   0.84052   0.94701   0.00000  Uiso   1.00
H169   H     0.68711   0.22824   0.93210   0.00000  Uiso   1.00
H170   H     0.81453   0.11763   0.93110   0.00000  Uiso   1.00
H171   H     0.77959   0.44351   0.94717   0.00000  Uiso   1.00
H172   H     0.48434   0.14056   0.91353   0.00000  Uiso   1.00
H173   H     0.92887   0.96836   0.93712   0.00000  Uiso   1.00
H174   H     0.85516   0.65548   0.97098   0.00000  Uiso   1.00
H175   H     0.23256   0.01665   0.90005   0.00000  Uiso   1.00
O176   O     0.92002   0.80386   0.96093   0.00000  Uiso   1.00
O177   O     0.82331   0.70533   0.00536   0.00000  Uiso   1.00
O178   O     0.00647   0.86720   0.91230   0.00000  Uiso   1.00
N179   N     0.77535   0.84884   0.97316   0.00000  Uiso   1.00
N180   N     0.70646   0.49126   0.00482   0.00000  Uiso   1.00
N181   N     0.12437   0.89403   0.93851   0.00000  Uiso   1.00
N182   N     0.87106   0.94362   0.94789   0.00000  Uiso   1.00
N183   N     0.80217   0.58603   0.97956   0.00000  Uiso   1.00
N184   N     0.22008   0.98881   0.91324   0.00000  Uiso   1.00
C185   C     0.93036   0.45732   0.64105   0.00000  Uiso   1.00
C186   C     0.96807   0.58685   0.63453   0.00000  Uiso   1.00
C187   C     0.05255   0.69524   0.64313   0.00000  Uiso   1.00
C188   C     0.07438   0.80440   0.63501   0.00000  Uiso   1.00
C189   C     0.14209   0.00544   0.62736   0.00000  Uiso   1.00
C190   C     0.79101   0.39083   0.64326   0.00000  Uiso   1.00
C191   C     0.72663   0.33439   0.65920   0.00000  Uiso   1.00
C192   C     0.59941   0.27852   0.65843   0.00000  Uiso   1.00
C193   C     0.39222   0.17515   0.66432   0.00000  Uiso   1.00
C194   C     0.95562   0.39502   0.62499   0.00000  Uiso   1.00
C195   C     0.02962   0.34207   0.62556   0.00000  Uiso   1.00
C196   C     0.04096   0.28970   0.60939   0.00000  Uiso   1.00
C197   C     0.08937   0.19284   0.58691   0.00000  Uiso   1.00
C198   C     0.81890   0.45841   0.61133   0.00000  Uiso   1.00
C199   C     0.90752   0.58745   0.61839   0.00000  Uiso   1.00
C200   C     0.92923   0.69646   0.61026   0.00000  Uiso   1.00
C201   C     0.01373   0.80500   0.61884   0.00000  Uiso   1.00
C202   C     0.73047   0.39142   0.62712   0.00000  Uiso   1.00
C203   C     0.60331   0.33561   0.62632   0.00000  Uiso   1.00
C204   C     0.53875   0.27911   0.64226   0.00000  Uiso   1.00
C205   C     0.89508   0.39562   0.60885   0.00000  Uiso   1.00
C206   C     0.90630   0.34330   0.59268   0.00000  Uiso   1.00
C207   C     0.98031   0.29029   0.59323   0.00000  Uiso   1.00
H208   H     0.97749   0.45685   0.65361   0.00000  Uiso   1.00
H209   H     0.09937   0.69474   0.65563   0.00000  Uiso   1.00
H210   H     0.77350   0.33394   0.67169   0.00000  Uiso   1.00
H211   H     0.07645   0.34163   0.63805   0.00000  Uiso   1.00
H212   H     0.20777   0.95876   0.65074   0.00000  Uiso   1.00
H213   H     0.52065   0.19794   0.68461   0.00000  Uiso   1.00
H214   H     0.15948   0.21415   0.61367   0.00000  Uiso   1.00
H215   H     0.77176   0.45888   0.59877   0.00000  Uiso   1.00
H216   H     0.88237   0.69689   0.59777   0.00000  Uiso   1.00
H217   H     0.55649   0.33609   0.61383   0.00000  Uiso   1.00
H218   H     0.85944   0.34378   0.58019   0.00000  Uiso   1.00
H219   H     0.03164   0.96051   0.60378   0.00000  Uiso   1.00
H220   H     0.34452   0.19968   0.63765   0.00000  Uiso   1.00
H221   H     0.98335   0.21590   0.56672   0.00000  Uiso   1.00
O222   O     0.19614   0.11617   0.62760   0.00000  Uiso   1.00
O223   O     0.29467   0.11799   0.67203   0.00000  Uiso   1.00
O224   O     0.13280   0.13927   0.57897   0.00000  Uiso   1.00
N225   N     0.15116   0.92651   0.63982   0.00000  Uiso   1.00
N226   N     0.50874   0.21520   0.67149   0.00000  Uiso   1.00
N227   N     0.10597   0.23033   0.60517   0.00000  Uiso   1.00
N228   N     0.05638   0.92745   0.61456   0.00000  Uiso   1.00
N229   N     0.41397   0.21614   0.64622   0.00000  Uiso   1.00
N230   N     0.01119   0.23127   0.57990   0.00000  Uiso   1.00
C231   C     0.54268   0.47304   0.30772   0.00000  Uiso   1.00
C232   C     0.41315   0.38121   0.30120   0.00000  Uiso   1.00
C233   C     0.30476   0.35730   0.30980   0.00000  Uiso   1.00
C234   C     0.19560   0.26998   0.30168   0.00000  Uiso   1.00
C235   C     0.99456   0.13664   0.29403   0.00000  Uiso   1.00
C236   C     0.60917   0.40018   0.30993   0.00000  Uiso   1.00
C237   C     0.66561   0.39223   0.32587   0.00000  Uiso   1.00
C238   C     0.72148   0.32089   0.32509   0.00000  Uiso   1.00
C239   C     0.82485   0.21707   0.33099   0.00000  Uiso   1.00
C240   C     0.60498   0.56060   0.29165   0.00000  Uiso   1.00
C241   C     0.65793   0.68754   0.29222   0.00000  Uiso   1.00
C242   C     0.71030   0.75127   0.27606   0.00000  Uiso   1.00
C243   C     0.80716   0.89653   0.25358   0.00000  Uiso   1.00
C244   C     0.54159   0.36049   0.27800   0.00000  Uiso   1.00
C245   C     0.41255   0.32007   0.28506   0.00000  Uiso   1.00
C246   C     0.30354   0.23277   0.27692   0.00000  Uiso   1.00
C247   C     0.19500   0.20874   0.28551   0.00000  Uiso   1.00
C248   C     0.60858   0.33904   0.29379   0.00000  Uiso   1.00
C249   C     0.66439   0.26770   0.29299   0.00000  Uiso   1.00
C250   C     0.72089   0.25964   0.30892   0.00000  Uiso   1.00
C251   C     0.60438   0.49946   0.27551   0.00000  Uiso   1.00
C252   C     0.65670   0.56300   0.25935   0.00000  Uiso   1.00
C253   C     0.70971   0.69002   0.25989   0.00000  Uiso   1.00
H254   H     0.54315   0.52064   0.32028   0.00000  Uiso   1.00
H255   H     0.30526   0.40463   0.32229   0.00000  Uiso   1.00
H256   H     0.66606   0.43956   0.33835   0.00000  Uiso   1.00
H257   H     0.65837   0.73482   0.30472   0.00000  Uiso   1.00
H258   H     0.04124   0.24901   0.31741   0.00000  Uiso   1.00
H259   H     0.80206   0.32271   0.35128   0.00000  Uiso   1.00
H260   H     0.78585   0.94532   0.28034   0.00000  Uiso   1.00
H261   H     0.54112   0.31289   0.26543   0.00000  Uiso   1.00
H262   H     0.30311   0.18547   0.26443   0.00000  Uiso   1.00
H263   H     0.66391   0.22041   0.28050   0.00000  Uiso   1.00
H264   H     0.65622   0.51566   0.24686   0.00000  Uiso   1.00
H265   H     0.03949   0.07113   0.27045   0.00000  Uiso   1.00
H266   H     0.80032   0.14484   0.30432   0.00000  Uiso   1.00
H267   H     0.78410   0.76744   0.23338   0.00000  Uiso   1.00
O268   O     0.88383   0.07998   0.29426   0.00000  Uiso   1.00
O269   O     0.88201   0.17669   0.33870   0.00000  Uiso   1.00
O270   O     0.86073   0.99353   0.24563   0.00000  Uiso   1.00
N271   N     0.07349   0.22465   0.30649   0.00000  Uiso   1.00
N272   N     0.78480   0.29354   0.33816   0.00000  Uiso   1.00
N273   N     0.76967   0.87563   0.27184   0.00000  Uiso   1.00
N274   N     0.07255   0.12894   0.28122   0.00000  Uiso   1.00
N275   N     0.78386   0.19783   0.31289   0.00000  Uiso   1.00
N276   N     0.76873   0.77992   0.24657   0.00000  Uiso   1.00
C277   C     0.93036   0.47304   0.19228   0.00000  Uiso   1.00
C278   C     0.96807   0.38121   0.19880   0.00000  Uiso   1.00
C279   C     0.05255   0.35730   0.19020   0.00000  Uiso   1.00
C280   C     0.07438   0.26998   0.19832   0.00000  Uiso   1.00
C281   C     0.14209   0.13664   0.20597   0.00000  Uiso   1.00
C282   C     0.79101   0.40018   0.19007   0.00000  Uiso   1.00
C283   C     0.72663   0.39223   0.17413   0.00000  Uiso   1.00
C284   C     0.59941   0.32089   0.17491   0.00000  Uiso   1.00
C285   C     0.39222   0.21707   0.16901   0.00000  Uiso   1.00
C286   C     0.95562   0.56060   0.20835   0.00000  Uiso   1.00
C287   C     0.02962   0.68754   0.20778   0.00000  Uiso   1.00
C288   C     0.04096   0.75127   0.22394   0.00000  Uiso   1.00
C289   C     0.08937   0.89653   0.24642   0.00000  Uiso   1.00
C290   C     0.81890   0.36049   0.22200   0.00000  Uiso   1.00
C291   C     0.90752   0.32007   0.21494   0.00000  Uiso   1.00
C292   C     0.92923   0.23277   0.22308   0.00000  Uiso   1.00
C293   C     0.01373   0.20874   0.21449   0.00000  Uiso   1.00
C294   C     0.73047   0.33904   0.20621   0.00000  Uiso   1.00
C295   C     0.60331   0.26770   0.20701   0.00000  Uiso   1.00
C296   C     0.53875   0.25964   0.19108   0.00000  Uiso   1.00
C297   C     0.89508   0.49946   0.22449   0.00000  Uiso   1.00
C298   C     0.90630   0.56300   0.24065   0.00000  Uiso   1.00
C299   C     0.98031   0.69002   0.24011   0.00000  Uiso   1.00
H300   H     0.97749   0.52064   0.17972   0.00000  Uiso   1.00
H301   H     0.09937   0.40463   0.17771   0.00000  Uiso   1.00
H302   H     0.77350   0.43956   0.16165   0.00000  Uiso   1.00
H303   H     0.07645   0.73482   0.19528   0.00000  Uiso   1.00
H304   H     0.20777   0.24901   0.18259   0.00000  Uiso   1.00
H305   H     0.52065   0.32271   0.14872   0.00000  Uiso   1.00
H306   H     0.15948   0.94532   0.21966   0.00000  Uiso   1.00
H307   H     0.77176   0.31289   0.23457   0.00000  Uiso   1.00
H308   H     0.88237   0.18547   0.23557   0.00000  Uiso   1.00
H309   H     0.55649   0.22041   0.21950   0.00000  Uiso   1.00
H310   H     0.85944   0.51566   0.25314   0.00000  Uiso   1.00
H311   H     0.03164   0.07113   0.22955   0.00000  Uiso   1.00
H312   H     0.34452   0.14484   0.19568   0.00000  Uiso   1.00
H313   H     0.98335   0.76744   0.26662   0.00000  Uiso   1.00
O314   O     0.19614   0.07998   0.20574   0.00000  Uiso   1.00
O315   O     0.29467   0.17669   0.16130   0.00000  Uiso   1.00
O316   O     0.13280   0.99353   0.25437   0.00000  Uiso   1.00
N317   N     0.15116   0.22465   0.19351   0.00000  Uiso   1.00
N318   N     0.50874   0.29354   0.16184   0.00000  Uiso   1.00
N319   N     0.10597   0.87563   0.22816   0.00000  Uiso   1.00
N320   N     0.05638   0.12894   0.21878   0.00000  Uiso   1.00
N321   N     0.41397   0.19783   0.18711   0.00000  Uiso   1.00
N322   N     0.01119   0.77992   0.25343   0.00000  Uiso   1.00
C323   C     0.54268   0.06964   0.52562   0.00000  Uiso   1.00
C324   C     0.41315   0.03193   0.53213   0.00000  Uiso   1.00
C325   C     0.30476   0.94745   0.52353   0.00000  Uiso   1.00
C326   C     0.19560   0.92562   0.53165   0.00000  Uiso   1.00
C327   C     0.99456   0.85791   0.53931   0.00000  Uiso   1.00
C328   C     0.60917   0.20899   0.52340   0.00000  Uiso   1.00
C329   C     0.66561   0.27337   0.50747   0.00000  Uiso   1.00
C330   C     0.72148   0.40059   0.50824   0.00000  Uiso   1.00
C331   C     0.82485   0.60778   0.50235   0.00000  Uiso   1.00
C332   C     0.60498   0.04438   0.54168   0.00000  Uiso   1.00
C333   C     0.65793   0.97038   0.54111   0.00000  Uiso   1.00
C334   C     0.71030   0.95904   0.55727   0.00000  Uiso   1.00
C335   C     0.80716   0.91063   0.57976   0.00000  Uiso   1.00
C336   C     0.54159   0.18110   0.55533   0.00000  Uiso   1.00
C337   C     0.41255   0.09248   0.54827   0.00000  Uiso   1.00
C338   C     0.30354   0.07077   0.55641   0.00000  Uiso   1.00
C339   C     0.19500   0.98627   0.54782   0.00000  Uiso   1.00
C340   C     0.60858   0.26953   0.53954   0.00000  Uiso   1.00
C341   C     0.66439   0.39669   0.54034   0.00000  Uiso   1.00
C342   C     0.72089   0.46125   0.52441   0.00000  Uiso   1.00
C343   C     0.60438   0.10492   0.55782   0.00000  Uiso   1.00
C344   C     0.65670   0.09370   0.57399   0.00000  Uiso   1.00
C345   C     0.70971   0.01969   0.57344   0.00000  Uiso   1.00
H346   H     0.54315   0.02251   0.51305   0.00000  Uiso   1.00
H347   H     0.30526   0.90063   0.51104   0.00000  Uiso   1.00
H348   H     0.66606   0.22650   0.49498   0.00000  Uiso   1.00
H349   H     0.65837   0.92355   0.52862   0.00000  Uiso   1.00
H350   H     0.04124   0.79223   0.51593   0.00000  Uiso   1.00
H351   H     0.80206   0.47935   0.48206   0.00000  Uiso   1.00
H352   H     0.78585   0.84052   0.55299   0.00000  Uiso   1.00
H353   H     0.54112   0.22824   0.56790   0.00000  Uiso   1.00
H354   H     0.30311   0.11763   0.56890   0.00000  Uiso   1.00
H355   H     0.66391   0.44351   0.55283   0.00000  Uiso   1.00
H356   H     0.65622   0.14056   0.58647   0.00000  Uiso   1.00
H357   H     0.03949   0.96836   0.56288   0.00000  Uiso   1.00
H358   H     0.80032   0.65548   0.52902   0.00000  Uiso   1.00
H359   H     0.78410   0.01665   0.59995   0.00000  Uiso   1.00
O360   O     0.88383   0.80386   0.53907   0.00000  Uiso   1.00
O361   O     0.88201   0.70533   0.49464   0.00000  Uiso   1.00
O362   O     0.86073   0.86720   0.58770   0.00000  Uiso   1.00
N363   N     0.07349   0.84884   0.52684   0.00000  Uiso   1.00
N364   N     0.78480   0.49126   0.49518   0.00000  Uiso   1.00
N365   N     0.76967   0.89403   0.56149   0.00000  Uiso   1.00
N366   N     0.07255   0.94362   0.55211   0.00000  Uiso   1.00
N367   N     0.78386   0.58603   0.52044   0.00000  Uiso   1.00
N368   N     0.76873   0.98881   0.58676   0.00000  Uiso   1.00
C369   C     0.52696   0.45732   0.85895   0.00000  Uiso   1.00
C370   C     0.61879   0.58685   0.86547   0.00000  Uiso   1.00
C371   C     0.64270   0.69524   0.85687   0.00000  Uiso   1.00
C372   C     0.73002   0.80440   0.86499   0.00000  Uiso   1.00
C373   C     0.86336   0.00544   0.87264   0.00000  Uiso   1.00
C374   C     0.59982   0.39083   0.85674   0.00000  Uiso   1.00
C375   C     0.60777   0.33439   0.84080   0.00000  Uiso   1.00
C376   C     0.67911   0.27852   0.84157   0.00000  Uiso   1.00
C377   C     0.78293   0.17515   0.83568   0.00000  Uiso   1.00
C378   C     0.43940   0.39502   0.87501   0.00000  Uiso   1.00
C379   C     0.31246   0.34207   0.87444   0.00000  Uiso   1.00
C380   C     0.24873   0.28970   0.89061   0.00000  Uiso   1.00
C381   C     0.10347   0.19284   0.91309   0.00000  Uiso   1.00
C382   C     0.63951   0.45841   0.88867   0.00000  Uiso   1.00
C383   C     0.67993   0.58745   0.88161   0.00000  Uiso   1.00
C384   C     0.76723   0.69646   0.88974   0.00000  Uiso   1.00
C385   C     0.79126   0.80500   0.88116   0.00000  Uiso   1.00
C386   C     0.66096   0.39142   0.87288   0.00000  Uiso   1.00
C387   C     0.73230   0.33561   0.87368   0.00000  Uiso   1.00
C388   C     0.74036   0.27911   0.85774   0.00000  Uiso   1.00
C389   C     0.50054   0.39562   0.89115   0.00000  Uiso   1.00
C390   C     0.43700   0.34330   0.90732   0.00000  Uiso   1.00
C391   C     0.30998   0.29029   0.90677   0.00000  Uiso   1.00
H392   H     0.47936   0.45685   0.84639   0.00000  Uiso   1.00
H393   H     0.59537   0.69474   0.84437   0.00000  Uiso   1.00
H394   H     0.56044   0.33394   0.82831   0.00000  Uiso   1.00
H395   H     0.26518   0.34163   0.86195   0.00000  Uiso   1.00
H396   H     0.75099   0.95876   0.84926   0.00000  Uiso   1.00
H397   H     0.67729   0.19794   0.81539   0.00000  Uiso   1.00
H398   H     0.05468   0.21415   0.88633   0.00000  Uiso   1.00
H399   H     0.68711   0.45888   0.90123   0.00000  Uiso   1.00
H400   H     0.81453   0.69689   0.90223   0.00000  Uiso   1.00
H401   H     0.77959   0.33609   0.88617   0.00000  Uiso   1.00
H402   H     0.48434   0.34378   0.91981   0.00000  Uiso   1.00
H403   H     0.92887   0.96051   0.89622   0.00000  Uiso   1.00
H404   H     0.85516   0.19968   0.86235   0.00000  Uiso   1.00
H405   H     0.23256   0.21590   0.93328   0.00000  Uiso   1.00
O406   O     0.92002   0.11617   0.87240   0.00000  Uiso   1.00
O407   O     0.82331   0.11799   0.82797   0.00000  Uiso   1.00
O408   O     0.00647   0.13927   0.92103   0.00000  Uiso   1.00
N409   N     0.77535   0.92651   0.86018   0.00000  Uiso   1.00
N410   N     0.70646   0.21520   0.82851   0.00000  Uiso   1.00
N411   N     0.12437   0.23033   0.89483   0.00000  Uiso   1.00
N412   N     0.87106   0.92745   0.88544   0.00000  Uiso   1.00
N413   N     0.80217   0.21614   0.85378   0.00000  Uiso   1.00
N414   N     0.22008   0.23127   0.92010   0.00000  Uiso   1.00
C415   C     0.06964   0.52696   0.69228   0.00000  Uiso   1.00
C416   C     0.03193   0.61879   0.69880   0.00000  Uiso   1.00
C417   C     0.94745   0.64270   0.69020   0.00000  Uiso   1.00
C418   C     0.92562   0.73002   0.69832   0.00000  Uiso   1.00
C419   C     0.85791   0.86336   0.70597   0.00000  Uiso   1.00
C420   C     0.20899   0.59982   0.69007   0.00000  Uiso   1.00
C421   C     0.27337   0.60777   0.67413   0.00000  Uiso   1.00
C422   C     0.40059   0.67911   0.67491   0.00000  Uiso   1.00
C423   C     0.60778   0.78293   0.66901   0.00000  Uiso   1.00
C424   C     0.04438   0.43940   0.70835   0.00000  Uiso   1.00
C425   C     0.97038   0.31246   0.70778   0.00000  Uiso   1.00
C426   C     0.95904   0.24873   0.72394   0.00000  Uiso   1.00
C427   C     0.91063   0.10347   0.74642   0.00000  Uiso   1.00
C428   C     0.18110   0.63951   0.72200   0.00000  Uiso   1.00
C429   C     0.09248   0.67993   0.71494   0.00000  Uiso   1.00
C430   C     0.07077   0.76723   0.72308   0.00000  Uiso   1.00
C431   C     0.98627   0.79126   0.71449   0.00000  Uiso   1.00
C432   C     0.26953   0.66096   0.70621   0.00000  Uiso   1.00
C433   C     0.39669   0.73230   0.70701   0.00000  Uiso   1.00
C434   C     0.46125   0.74036   0.69108   0.00000  Uiso   1.00
C435   C     0.10492   0.50054   0.72449   0.00000  Uiso   1.00
C436   C     0.09370   0.43700   0.74065   0.00000  Uiso   1.00
C437   C     0.01969   0.30998   0.74011   0.00000  Uiso   1.00
H438   H     0.02251   0.47936   0.67972   0.00000  Uiso   1.00
H439   H     0.90063   0.59537   0.67771   0.00000  Uiso   1.00
H440   H     0.22650   0.56044   0.66165   0.00000  Uiso   1.00
H441   H     0.92355   0.26518   0.69528   0.00000  Uiso   1.00
H442   H     0.79223   0.75099   0.68259   0.00000  Uiso   1.00
H443   H     0.47935   0.67729   0.64872   0.00000  Uiso   1.00
H444   H     0.84052   0.05468   0.71966   0.00000  Uiso   1.00
H445   H     0.22824   0.68711   0.73457   0.00000  Uiso   1.00
H446   H     0.11763   0.81453   0.73557   0.00000  Uiso   1.00
H447   H     0.44351   0.77959   0.71950   0.00000  Uiso   1.00
H448   H     0.14056   0.48434   0.75314   0.00000  Uiso   1.00
H449   H     0.96836   0.92887   0.72955   0.00000  Uiso   1.00
H450   H     0.65548   0.85516   0.69568   0.00000  Uiso   1.00
H451   H     0.01665   0.23256   0.76662   0.00000  Uiso   1.00
O452   O     0.80386   0.92002   0.70574   0.00000  Uiso   1.00
O453   O     0.70533   0.82331   0.66130   0.00000  Uiso   1.00
O454   O     0.86720   0.00647   0.75437   0.00000  Uiso   1.00
N455   N     0.84884   0.77535   0.69351   0.00000  Uiso   1.00
N456   N     0.49126   0.70646   0.66184   0.00000  Uiso   1.00
N457   N     0.89403   0.12437   0.72816   0.00000  Uiso   1.00
N458   N     0.94362   0.87106   0.71878   0.00000  Uiso   1.00
N459   N     0.58603   0.80217   0.68711   0.00000  Uiso   1.00
N460   N     0.98881   0.22008   0.75343   0.00000  Uiso   1.00
C461   C     0.45732   0.93036   0.02562   0.00000  Uiso   1.00
C462   C     0.58685   0.96807   0.03213   0.00000  Uiso   1.00
C463   C     0.69524   0.05255   0.02353   0.00000  Uiso   1.00
C464   C     0.80440   0.07438   0.03165   0.00000  Uiso   1.00
C465   C     0.00544   0.14209   0.03931   0.00000  Uiso   1.00
C466   C     0.39083   0.79101   0.02340   0.00000  Uiso   1.00
C467   C     0.33439   0.72663   0.00747   0.00000  Uiso   1.00
C468   C     0.27852   0.59941   0.00824   0.00000  Uiso   1.00
C469   C     0.17515   0.39222   0.00235   0.00000  Uiso   1.00
C470   C     0.39502   0.95562   0.04168   0.00000  Uiso   1.00
C471   C     0.34207   0.02962   0.04111   0.00000  Uiso   1.00
C472   C     0.28970   0.04096   0.05727   0.00000  Uiso   1.00
C473   C     0.19284   0.08937   0.07976   0.00000  Uiso   1.00
C474   C     0.45841   0.81890   0.05533   0.00000  Uiso   1.00
C475   C     0.58745   0.90752   0.04827   0.00000  Uiso   1.00
C476   C     0.69646   0.92923   0.05641   0.00000  Uiso   1.00
C477   C     0.80500   0.01373   0.04782   0.00000  Uiso   1.00
C478   C     0.39142   0.73047   0.03954   0.00000  Uiso   1.00
C479   C     0.33561   0.60331   0.04034   0.00000  Uiso   1.00
C480   C     0.27911   0.53875   0.02441   0.00000  Uiso   1.00
C481   C     0.39562   0.89508   0.05782   0.00000  Uiso   1.00
C482   C     0.34330   0.90630   0.07399   0.00000  Uiso   1.00
C483   C     0.29029   0.98031   0.07344   0.00000  Uiso   1.00
H484   H     0.45685   0.97749   0.01305   0.00000  Uiso   1.00
H485   H     0.69474   0.09937   0.01104   0.00000  Uiso   1.00
H486   H     0.33394   0.77350   0.99498   0.00000  Uiso   1.00
H487   H     0.34163   0.07645   0.02862   0.00000  Uiso   1.00
H488   H     0.95876   0.20777   0.01593   0.00000  Uiso   1.00
H489   H     0.19794   0.52065   0.98206   0.00000  Uiso   1.00
H490   H     0.21415   0.15948   0.05299   0.00000  Uiso   1.00
H491   H     0.45888   0.77176   0.06790   0.00000  Uiso   1.00
H492   H     0.69689   0.88237   0.06890   0.00000  Uiso   1.00
H493   H     0.33609   0.55649   0.05283   0.00000  Uiso   1.00
H494   H     0.34378   0.85944   0.08647   0.00000  Uiso   1.00
H495   H     0.96051   0.03164   0.06288   0.00000  Uiso   1.00
H496   H     0.19968   0.34452   0.02902   0.00000  Uiso   1.00
H497   H     0.21590   0.98335   0.09995   0.00000  Uiso   1.00
O498   O     0.11617   0.19614   0.03907   0.00000  Uiso   1.00
O499   O     0.11799   0.29467   0.99464   0.00000  Uiso   1.00
O500   O     0.13927   0.13280   0.08770   0.00000  Uiso   1.00
N501   N     0.92651   0.15116   0.02684   0.00000  Uiso   1.00
N502   N     0.21520   0.50874   0.99518   0.00000  Uiso   1.00
N503   N     0.23033   0.10597   0.06149   0.00000  Uiso   1.00
N504   N     0.92745   0.05638   0.05211   0.00000  Uiso   1.00
N505   N     0.21614   0.41397   0.02044   0.00000  Uiso   1.00
N506   N     0.23127   0.01119   0.08676   0.00000  Uiso   1.00
C507   C     0.47304   0.54268   0.35895   0.00000  Uiso   1.00
C508   C     0.38121   0.41315   0.36547   0.00000  Uiso   1.00
C509   C     0.35730   0.30476   0.35687   0.00000  Uiso   1.00
C510   C     0.26998   0.19560   0.36499   0.00000  Uiso   1.00
C511   C     0.13664   0.99456   0.37264   0.00000  Uiso   1.00
C512   C     0.40018   0.60917   0.35674   0.00000  Uiso   1.00
C513   C     0.39223   0.66561   0.34080   0.00000  Uiso   1.00
C514   C     0.32089   0.72148   0.34157   0.00000  Uiso   1.00
C515   C     0.21707   0.82485   0.33568   0.00000  Uiso   1.00
C516   C     0.56060   0.60498   0.37501   0.00000  Uiso   1.00
C517   C     0.68754   0.65793   0.37444   0.00000  Uiso   1.00
C518   C     0.75127   0.71030   0.39061   0.00000  Uiso   1.00
C519   C     0.89653   0.80716   0.41309   0.00000  Uiso   1.00
C520   C     0.36049   0.54159   0.38867   0.00000  Uiso   1.00
C521   C     0.32007   0.41255   0.38161   0.00000  Uiso   1.00
C522   C     0.23277   0.30354   0.38974   0.00000  Uiso   1.00
C523   C     0.20874   0.19500   0.38116   0.00000  Uiso   1.00
C524   C     0.33904   0.60858   0.37288   0.00000  Uiso   1.00
C525   C     0.26770   0.66439   0.37368   0.00000  Uiso   1.00
C526   C     0.25964   0.72089   0.35774   0.00000  Uiso   1.00
C527   C     0.49946   0.60438   0.39115   0.00000  Uiso   1.00
C528   C     0.56300   0.65670   0.40732   0.00000  Uiso   1.00
C529   C     0.69002   0.70971   0.40677   0.00000  Uiso   1.00
H530   H     0.52064   0.54315   0.34639   0.00000  Uiso   1.00
H531   H     0.40463   0.30526   0.34437   0.00000  Uiso   1.00
H532   H     0.43956   0.66606   0.32831   0.00000  Uiso   1.00
H533   H     0.73482   0.65837   0.36195   0.00000  Uiso   1.00
H534   H     0.24901   0.04124   0.34926   0.00000  Uiso   1.00
H535   H     0.32271   0.80206   0.31539   0.00000  Uiso   1.00
H536   H     0.94532   0.78585   0.38633   0.00000  Uiso   1.00
H537   H     0.31289   0.54112   0.40123   0.00000  Uiso   1.00
H538   H     0.18547   0.30311   0.40223   0.00000  Uiso   1.00
H539   H     0.22041   0.66391   0.38617   0.00000  Uiso   1.00
H540   H     0.51566   0.65622   0.41981   0.00000  Uiso   1.00
H541   H     0.07113   0.03949   0.39622   0.00000  Uiso   1.00
H542   H     0.14484   0.80032   0.36235   0.00000  Uiso   1.00
H543   H     0.76744   0.78410   0.43328   0.00000  Uiso   1.00
O544   O     0.07998   0.88383   0.37240   0.00000  Uiso   1.00
O545   O     0.17669   0.88201   0.32797   0.00000  Uiso   1.00
O546   O     0.99353   0.86073   0.42103   0.00000  Uiso   1.00
N547   N     0.22465   0.07349   0.36018   0.00000  Uiso   1.00
N548   N     0.29354   0.78480   0.32851   0.00000  Uiso   1.00
N549   N     0.87563   0.76967   0.39483   0.00000  Uiso   1.00
N550   N     0.12894   0.07255   0.38544   0.00000  Uiso   1.00
N551   N     0.19783   0.78386   0.35378   0.00000  Uiso   1.00
N552   N     0.77992   0.76873   0.42010   0.00000  Uiso   1.00
