data_job_06198
_audit_creation_date              2018-12-19
_audit_creation_method            'Materials Studio'
_symmetry_space_group_name_H-M    'P1'
_symmetry_Int_Tables_number       1
_symmetry_cell_setting            triclinic
loop_
_symmetry_equiv_pos_as_xyz
  x,y,z
_cell_length_a                    19.1255
_cell_length_b                    19.1329
_cell_length_c                    21.7334
_cell_angle_alpha                 115.6625
_cell_angle_beta                  64.3085
_cell_angle_gamma                 119.9298
loop_
_atom_site_label
_atom_site_type_symbol
_atom_site_fract_x
_atom_site_fract_y
_atom_site_fract_z
_atom_site_U_iso_or_equiv
_atom_site_adp_type
_atom_site_occupancy
C1     C     0.79709   0.60296   0.14151   0.00000  Uiso   1.00
C2     C     0.72560   0.61439   0.13803   0.00000  Uiso   1.00
C3     C     0.68107   0.56487   0.08768   0.00000  Uiso   1.00
C4     C     0.61797   0.58559   0.09363   0.00000  Uiso   1.00
C5     C     0.50972   0.59305   0.07993   0.00000  Uiso   1.00
C6     C     0.87201   0.68637   0.13970   0.00000  Uiso   1.00
C7     C     0.95057   0.69736   0.09076   0.00000  Uiso   1.00
C8     C     0.01073   0.77868   0.09812   0.00000  Uiso   1.00
C9     C     0.12979   0.89788   0.08705   0.00000  Uiso   1.00
C10    C     0.77115   0.59369   0.21541   0.00000  Uiso   1.00
C11    C     0.76493   0.52675   0.23013   0.00000  Uiso   1.00
C12    C     0.74019   0.53005   0.30124   0.00000  Uiso   1.00
C13    C     0.70265   0.50534   0.40772   0.00000  Uiso   1.00
C14    C     0.76424   0.72783   0.24164   0.00000  Uiso   1.00
C15    C     0.70776   0.68222   0.19242   0.00000  Uiso   1.00
C16    C     0.64472   0.70302   0.19845   0.00000  Uiso   1.00
C17    C     0.60010   0.65354   0.14811   0.00000  Uiso   1.00
C18    C     0.85417   0.75420   0.19408   0.00000  Uiso   1.00
C19    C     0.91423   0.83552   0.20153   0.00000  Uiso   1.00
C20    C     0.99286   0.84663   0.15260   0.00000  Uiso   1.00
C21    C     0.75331   0.66151   0.26980   0.00000  Uiso   1.00
C22    C     0.72858   0.66491   0.34090   0.00000  Uiso   1.00
C23    C     0.72232   0.59800   0.35572   0.00000  Uiso   1.00
H24    H     0.81099   0.55015   0.09917   0.00000  Uiso   1.00
H25    H     0.69490   0.51238   0.04559   0.00000  Uiso   1.00
H26    H     0.96437   0.64486   0.04868   0.00000  Uiso   1.00
H27    H     0.77874   0.47428   0.18803   0.00000  Uiso   1.00
H28    H     0.55834   0.50044   0.01016   0.00000  Uiso   1.00
H29    H     0.12654   0.77976   0.01668   0.00000  Uiso   1.00
H30    H     0.73512   0.42006   0.31053   0.00000  Uiso   1.00
H31    H     0.75035   0.78064   0.28398   0.00000  Uiso   1.00
H32    H     0.63093   0.75552   0.24054   0.00000  Uiso   1.00
H33    H     0.90040   0.88799   0.24362   0.00000  Uiso   1.00
H34    H     0.71478   0.71741   0.38297   0.00000  Uiso   1.00
H35    H     0.50643   0.69778   0.16838   0.00000  Uiso   1.00
H36    H     0.07463   0.97710   0.17490   0.00000  Uiso   1.00
H37    H     0.68320   0.61740   0.46875   0.00000  Uiso   1.00
O38    O     0.45494   0.57844   0.05734   0.00000  Uiso   1.00
O39    O     0.20039   0.94490   0.06591   0.00000  Uiso   1.00
O40    O     0.68686   0.47298   0.45143   0.00000  Uiso   1.00
N41    N     0.56250   0.55032   0.05336   0.00000  Uiso   1.00
N42    N     0.09373   0.81147   0.05945   0.00000  Uiso   1.00
N43    N     0.72781   0.47519   0.33418   0.00000  Uiso   1.00
N44    N     0.53457   0.65651   0.13850   0.00000  Uiso   1.00
N45    N     0.06579   0.91766   0.14459   0.00000  Uiso   1.00
N46    N     0.69987   0.58138   0.41932   0.00000  Uiso   1.00
C47    C     0.39630   0.33244   0.14045   0.00000  Uiso   1.00
C48    C     0.38478   0.24635   0.13756   0.00000  Uiso   1.00
C49    C     0.43431   0.20151   0.08752   0.00000  Uiso   1.00
C50    C     0.41350   0.12387   0.09401   0.00000  Uiso   1.00
C51    C     0.40591   0.99499   0.08120   0.00000  Uiso   1.00
C52    C     0.31288   0.32212   0.13844   0.00000  Uiso   1.00
C53    C     0.30196   0.34098   0.08914   0.00000  Uiso   1.00
C54    C     0.22061   0.32713   0.09637   0.00000  Uiso   1.00
C55    C     0.10141   0.31593   0.08494   0.00000  Uiso   1.00
C56    C     0.40556   0.38900   0.21422   0.00000  Uiso   1.00
C57    C     0.47256   0.46412   0.22865   0.00000  Uiso   1.00
C58    C     0.46925   0.50659   0.29969   0.00000  Uiso   1.00
C59    C     0.49395   0.59923   0.40593   0.00000  Uiso   1.00
C60    C     0.27127   0.27431   0.24095   0.00000  Uiso   1.00
C61    C     0.31687   0.21478   0.19215   0.00000  Uiso   1.00
C62    C     0.29598   0.13719   0.19872   0.00000  Uiso   1.00
C63    C     0.34547   0.09224   0.14870   0.00000  Uiso   1.00
C64    C     0.24497   0.29055   0.19302   0.00000  Uiso   1.00
C65    C     0.16362   0.27667   0.20033   0.00000  Uiso   1.00
C66    C     0.15258   0.29550   0.15105   0.00000  Uiso   1.00
C67    C     0.33765   0.35743   0.26881   0.00000  Uiso   1.00
C68    C     0.33423   0.39980   0.33984   0.00000  Uiso   1.00
C69    C     0.40121   0.47496   0.35437   0.00000  Uiso   1.00
H70    H     0.44917   0.35702   0.09795   0.00000  Uiso   1.00
H71    H     0.48686   0.22596   0.04528   0.00000  Uiso   1.00
H72    H     0.35452   0.36542   0.04690   0.00000  Uiso   1.00
H73    H     0.52510   0.48853   0.18639   0.00000  Uiso   1.00
H74    H     0.49867   0.06672   0.01095   0.00000  Uiso   1.00
H75    H     0.21964   0.36081   0.01438   0.00000  Uiso   1.00
H76    H     0.57934   0.62041   0.30852   0.00000  Uiso   1.00
H77    H     0.21840   0.24973   0.28345   0.00000  Uiso   1.00
H78    H     0.24342   0.11278   0.24097   0.00000  Uiso   1.00
H79    H     0.11109   0.25224   0.24258   0.00000  Uiso   1.00
H80    H     0.28167   0.37534   0.38207   0.00000  Uiso   1.00
H81    H     0.30108   0.97485   0.16977   0.00000  Uiso   1.00
H82    H     0.02206   0.26894   0.17320   0.00000  Uiso   1.00
H83    H     0.38176   0.52854   0.46734   0.00000  Uiso   1.00
O84    O     0.42048   0.93262   0.05905   0.00000  Uiso   1.00
O85    O     0.05442   0.31847   0.06356   0.00000  Uiso   1.00
O86    O     0.52633   0.65905   0.44946   0.00000  Uiso   1.00
N87    N     0.44874   0.06390   0.05416   0.00000  Uiso   1.00
N88    N     0.18787   0.33884   0.05737   0.00000  Uiso   1.00
N89    N     0.52415   0.58156   0.33236   0.00000  Uiso   1.00
N90    N     0.34242   0.01447   0.13963   0.00000  Uiso   1.00
N91    N     0.08155   0.28941   0.14283   0.00000  Uiso   1.00
N92    N     0.41783   0.53213   0.41782   0.00000  Uiso   1.00
C93    C     0.66749   0.20296   0.14214   0.00000  Uiso   1.00
C94    C     0.75365   0.27446   0.13899   0.00000  Uiso   1.00
C95    C     0.79859   0.31899   0.08859   0.00000  Uiso   1.00
C96    C     0.87629   0.38210   0.09488   0.00000  Uiso   1.00
C97    C     0.00529   0.49038   0.08164   0.00000  Uiso   1.00
C98    C     0.67773   0.12813   0.14071   0.00000  Uiso   1.00
C99    C     0.65883   0.04962   0.09176   0.00000  Uiso   1.00
C100   C     0.67261   0.98955   0.09951   0.00000  Uiso   1.00
C101   C     0.68370   0.87062   0.08897   0.00000  Uiso   1.00
C102   C     0.61088   0.22882   0.21579   0.00000  Uiso   1.00
C103   C     0.53576   0.23496   0.22998   0.00000  Uiso   1.00
C104   C     0.49324   0.25964   0.30095   0.00000  Uiso   1.00
C105   C     0.40054   0.29705   0.40699   0.00000  Uiso   1.00
C106   C     0.72555   0.23585   0.24295   0.00000  Uiso   1.00
C107   C     0.78519   0.29232   0.19374   0.00000  Uiso   1.00
C108   C     0.86284   0.35538   0.20012   0.00000  Uiso   1.00
C109   C     0.90789   0.40000   0.14973   0.00000  Uiso   1.00
C110   C     0.70927   0.14599   0.19546   0.00000  Uiso   1.00
C111   C     0.72308   0.08601   0.20329   0.00000  Uiso   1.00
C112   C     0.70421   0.00744   0.15436   0.00000  Uiso   1.00
C113   C     0.64242   0.24669   0.27055   0.00000  Uiso   1.00
C114   C     0.60001   0.27135   0.34151   0.00000  Uiso   1.00
C115   C     0.52484   0.27753   0.35580   0.00000  Uiso   1.00
H116   H     0.64293   0.18905   0.09951   0.00000  Uiso   1.00
H117   H     0.77416   0.30515   0.04622   0.00000  Uiso   1.00
H118   H     0.63441   0.03582   0.04940   0.00000  Uiso   1.00
H119   H     0.51137   0.22113   0.18760   0.00000  Uiso   1.00
H120   H     0.93358   0.44172   0.01127   0.00000  Uiso   1.00
H121   H     0.63889   0.87382   0.01798   0.00000  Uiso   1.00
H122   H     0.37942   0.26458   0.30940   0.00000  Uiso   1.00
H123   H     0.75011   0.24975   0.28557   0.00000  Uiso   1.00
H124   H     0.88723   0.36919   0.24249   0.00000  Uiso   1.00
H125   H     0.74748   0.09985   0.24567   0.00000  Uiso   1.00
H126   H     0.62444   0.28517   0.38386   0.00000  Uiso   1.00
H127   H     0.02535   0.49369   0.17057   0.00000  Uiso   1.00
H128   H     0.73066   0.92579   0.17728   0.00000  Uiso   1.00
H129   H     0.47119   0.31656   0.46870   0.00000  Uiso   1.00
O130   O     0.06774   0.54516   0.05921   0.00000  Uiso   1.00
O131   O     0.68111   0.80009   0.06802   0.00000  Uiso   1.00
O132   O     0.34069   0.31277   0.45035   0.00000  Uiso   1.00
N133   N     0.93635   0.43757   0.05468   0.00000  Uiso   1.00
N134   N     0.66085   0.90662   0.06095   0.00000  Uiso   1.00
N135   N     0.41825   0.27193   0.33340   0.00000  Uiso   1.00
N136   N     0.98574   0.46554   0.14040   0.00000  Uiso   1.00
N137   N     0.71023   0.93459   0.14667   0.00000  Uiso   1.00
N138   N     0.46764   0.29990   0.41912   0.00000  Uiso   1.00
C139   C     0.20291   0.39705   0.85849   0.00000  Uiso   1.00
C140   C     0.27440   0.38561   0.86197   0.00000  Uiso   1.00
C141   C     0.31893   0.43513   0.91232   0.00000  Uiso   1.00
C142   C     0.38203   0.41441   0.90637   0.00000  Uiso   1.00
C143   C     0.49028   0.40695   0.92007   0.00000  Uiso   1.00
C144   C     0.12799   0.31363   0.86030   0.00000  Uiso   1.00
C145   C     0.04943   0.30264   0.90924   0.00000  Uiso   1.00
C146   C     0.98927   0.22132   0.90188   0.00000  Uiso   1.00
C147   C     0.87021   0.10212   0.91295   0.00000  Uiso   1.00
C148   C     0.22885   0.40631   0.78459   0.00000  Uiso   1.00
C149   C     0.23507   0.47325   0.76987   0.00000  Uiso   1.00
C150   C     0.25981   0.46995   0.69876   0.00000  Uiso   1.00
C151   C     0.29735   0.49466   0.59228   0.00000  Uiso   1.00
C152   C     0.23576   0.27217   0.75836   0.00000  Uiso   1.00
C153   C     0.29224   0.31778   0.80758   0.00000  Uiso   1.00
C154   C     0.35528   0.29698   0.80155   0.00000  Uiso   1.00
C155   C     0.39990   0.34646   0.85189   0.00000  Uiso   1.00
C156   C     0.14583   0.24580   0.80592   0.00000  Uiso   1.00
C157   C     0.08577   0.16448   0.79847   0.00000  Uiso   1.00
C158   C     0.00714   0.15337   0.84740   0.00000  Uiso   1.00
C159   C     0.24669   0.33849   0.73020   0.00000  Uiso   1.00
C160   C     0.27142   0.33509   0.65910   0.00000  Uiso   1.00
C161   C     0.27768   0.40200   0.64428   0.00000  Uiso   1.00
H162   H     0.18901   0.44985   0.90083   0.00000  Uiso   1.00
H163   H     0.30510   0.48762   0.95441   0.00000  Uiso   1.00
H164   H     0.03564   0.35514   0.95132   0.00000  Uiso   1.00
H165   H     0.22126   0.52572   0.81197   0.00000  Uiso   1.00
H166   H     0.44166   0.49956   0.98984   0.00000  Uiso   1.00
H167   H     0.87346   0.22024   0.98332   0.00000  Uiso   1.00
H168   H     0.26488   0.57994   0.68947   0.00000  Uiso   1.00
H169   H     0.24965   0.21936   0.71602   0.00000  Uiso   1.00
H170   H     0.36907   0.24448   0.75946   0.00000  Uiso   1.00
H171   H     0.09960   0.11201   0.75638   0.00000  Uiso   1.00
H172   H     0.28522   0.28259   0.61703   0.00000  Uiso   1.00
H173   H     0.49357   0.30222   0.83162   0.00000  Uiso   1.00
H174   H     0.92537   0.02290   0.82510   0.00000  Uiso   1.00
H175   H     0.31680   0.38260   0.53125   0.00000  Uiso   1.00
O176   O     0.54506   0.42156   0.94266   0.00000  Uiso   1.00
O177   O     0.79961   0.05510   0.93409   0.00000  Uiso   1.00
O178   O     0.31314   0.52702   0.54857   0.00000  Uiso   1.00
N179   N     0.43750   0.44968   0.94664   0.00000  Uiso   1.00
N180   N     0.90627   0.18853   0.94055   0.00000  Uiso   1.00
N181   N     0.27219   0.52481   0.66582   0.00000  Uiso   1.00
N182   N     0.46543   0.34349   0.86150   0.00000  Uiso   1.00
N183   N     0.93421   0.08234   0.85541   0.00000  Uiso   1.00
N184   N     0.30013   0.41862   0.58068   0.00000  Uiso   1.00
C185   C     0.60370   0.66756   0.85955   0.00000  Uiso   1.00
C186   C     0.61522   0.75365   0.86244   0.00000  Uiso   1.00
C187   C     0.56569   0.79849   0.91248   0.00000  Uiso   1.00
C188   C     0.58650   0.87613   0.90599   0.00000  Uiso   1.00
C189   C     0.59409   0.00501   0.91880   0.00000  Uiso   1.00
C190   C     0.68712   0.67788   0.86156   0.00000  Uiso   1.00
C191   C     0.69804   0.65902   0.91086   0.00000  Uiso   1.00
C192   C     0.77939   0.67287   0.90363   0.00000  Uiso   1.00
C193   C     0.89859   0.68407   0.91506   0.00000  Uiso   1.00
C194   C     0.59444   0.61100   0.78578   0.00000  Uiso   1.00
C195   C     0.52744   0.53588   0.77135   0.00000  Uiso   1.00
C196   C     0.53075   0.49341   0.70031   0.00000  Uiso   1.00
C197   C     0.50605   0.40077   0.59407   0.00000  Uiso   1.00
C198   C     0.72873   0.72569   0.75905   0.00000  Uiso   1.00
C199   C     0.68313   0.78522   0.80785   0.00000  Uiso   1.00
C200   C     0.70402   0.86281   0.80128   0.00000  Uiso   1.00
C201   C     0.65453   0.90776   0.85130   0.00000  Uiso   1.00
C202   C     0.75503   0.70946   0.80698   0.00000  Uiso   1.00
C203   C     0.83638   0.72333   0.79967   0.00000  Uiso   1.00
C204   C     0.84742   0.70450   0.84895   0.00000  Uiso   1.00
C205   C     0.66235   0.64257   0.73119   0.00000  Uiso   1.00
C206   C     0.66577   0.60020   0.66016   0.00000  Uiso   1.00
C207   C     0.59879   0.52504   0.64563   0.00000  Uiso   1.00
H208   H     0.55083   0.64298   0.90205   0.00000  Uiso   1.00
H209   H     0.51314   0.77404   0.95472   0.00000  Uiso   1.00
H210   H     0.64548   0.63458   0.95310   0.00000  Uiso   1.00
H211   H     0.47490   0.51147   0.81361   0.00000  Uiso   1.00
H212   H     0.50133   0.93328   0.98905   0.00000  Uiso   1.00
H213   H     0.78036   0.63919   0.98562   0.00000  Uiso   1.00
H214   H     0.42066   0.37959   0.69148   0.00000  Uiso   1.00
H215   H     0.78160   0.75027   0.71655   0.00000  Uiso   1.00
H216   H     0.75658   0.88722   0.75903   0.00000  Uiso   1.00
H217   H     0.88891   0.74776   0.75742   0.00000  Uiso   1.00
H218   H     0.71833   0.62466   0.61793   0.00000  Uiso   1.00
H219   H     0.69892   0.02515   0.83023   0.00000  Uiso   1.00
H220   H     0.97794   0.73106   0.82680   0.00000  Uiso   1.00
H221   H     0.61824   0.47146   0.53266   0.00000  Uiso   1.00
O222   O     0.57952   0.06738   0.94095   0.00000  Uiso   1.00
O223   O     0.94558   0.68153   0.93644   0.00000  Uiso   1.00
O224   O     0.47367   0.34095   0.55054   0.00000  Uiso   1.00
N225   N     0.55126   0.93610   0.94584   0.00000  Uiso   1.00
N226   N     0.81213   0.66116   0.94263   0.00000  Uiso   1.00
N227   N     0.47585   0.41844   0.66764   0.00000  Uiso   1.00
N228   N     0.65758   0.98553   0.86037   0.00000  Uiso   1.00
N229   N     0.91845   0.71059   0.85717   0.00000  Uiso   1.00
N230   N     0.58217   0.46787   0.58218   0.00000  Uiso   1.00
C231   C     0.33252   0.79704   0.85786   0.00000  Uiso   1.00
C232   C     0.24635   0.72554   0.86101   0.00000  Uiso   1.00
C233   C     0.20141   0.68101   0.91141   0.00000  Uiso   1.00
C234   C     0.12371   0.61790   0.90512   0.00000  Uiso   1.00
C235   C     0.99471   0.50962   0.91836   0.00000  Uiso   1.00
C236   C     0.32227   0.87187   0.85929   0.00000  Uiso   1.00
C237   C     0.34117   0.95038   0.90824   0.00000  Uiso   1.00
C238   C     0.32739   0.01045   0.90049   0.00000  Uiso   1.00
C239   C     0.31630   0.12938   0.91103   0.00000  Uiso   1.00
C240   C     0.38912   0.77118   0.78421   0.00000  Uiso   1.00
C241   C     0.46424   0.76504   0.77002   0.00000  Uiso   1.00
C242   C     0.50676   0.74036   0.69905   0.00000  Uiso   1.00
C243   C     0.59947   0.70295   0.59301   0.00000  Uiso   1.00
C244   C     0.27445   0.76415   0.75705   0.00000  Uiso   1.00
C245   C     0.21481   0.70768   0.80626   0.00000  Uiso   1.00
C246   C     0.13716   0.64462   0.79988   0.00000  Uiso   1.00
C247   C     0.09211   0.60000   0.85027   0.00000  Uiso   1.00
C248   C     0.29073   0.85401   0.80454   0.00000  Uiso   1.00
C249   C     0.27692   0.91399   0.79671   0.00000  Uiso   1.00
C250   C     0.29579   0.99256   0.84564   0.00000  Uiso   1.00
C251   C     0.35758   0.75331   0.72945   0.00000  Uiso   1.00
C252   C     0.39999   0.72865   0.65849   0.00000  Uiso   1.00
C253   C     0.47516   0.72247   0.64420   0.00000  Uiso   1.00
H254   H     0.35707   0.81095   0.90049   0.00000  Uiso   1.00
H255   H     0.22584   0.69485   0.95378   0.00000  Uiso   1.00
H256   H     0.36559   0.96418   0.95060   0.00000  Uiso   1.00
H257   H     0.48863   0.77887   0.81240   0.00000  Uiso   1.00
H258   H     0.06642   0.55828   0.98873   0.00000  Uiso   1.00
H259   H     0.36111   0.12618   0.98202   0.00000  Uiso   1.00
H260   H     0.62058   0.73542   0.69060   0.00000  Uiso   1.00
H261   H     0.24989   0.75025   0.71442   0.00000  Uiso   1.00
H262   H     0.11277   0.63081   0.75751   0.00000  Uiso   1.00
H263   H     0.25252   0.90015   0.75433   0.00000  Uiso   1.00
H264   H     0.37556   0.71483   0.61613   0.00000  Uiso   1.00
H265   H     0.97465   0.50631   0.82943   0.00000  Uiso   1.00
H266   H     0.26934   0.07421   0.82272   0.00000  Uiso   1.00
H267   H     0.52881   0.68344   0.53130   0.00000  Uiso   1.00
O268   O     0.93226   0.45484   0.94079   0.00000  Uiso   1.00
O269   O     0.31889   0.19991   0.93197   0.00000  Uiso   1.00
O270   O     0.65931   0.68723   0.54965   0.00000  Uiso   1.00
N271   N     0.06365   0.56243   0.94532   0.00000  Uiso   1.00
N272   N     0.33915   0.09338   0.93905   0.00000  Uiso   1.00
N273   N     0.58175   0.72807   0.66660   0.00000  Uiso   1.00
N274   N     0.01426   0.53446   0.85960   0.00000  Uiso   1.00
N275   N     0.28977   0.06541   0.85333   0.00000  Uiso   1.00
N276   N     0.53236   0.70010   0.58088   0.00000  Uiso   1.00
