data_job_06264
_audit_creation_date              2018-12-19
_audit_creation_method            'Materials Studio'
_symmetry_space_group_name_H-M    'P1'
_symmetry_Int_Tables_number       1
_symmetry_cell_setting            triclinic
loop_
_symmetry_equiv_pos_as_xyz
  x,y,z
_cell_length_a                    16.6885
_cell_length_b                    16.2542
_cell_length_c                    15.4718
_cell_angle_alpha                 102.7300
_cell_angle_beta                  102.9670
_cell_angle_gamma                 102.1130
loop_
_atom_site_label
_atom_site_type_symbol
_atom_site_fract_x
_atom_site_fract_y
_atom_site_fract_z
_atom_site_U_iso_or_equiv
_atom_site_adp_type
_atom_site_occupancy
C1     C     0.08492   0.34105   0.66317   0.00000  Uiso   1.00
C2     C     0.99904   0.35424   0.67221   0.00000  Uiso   1.00
C3     C     0.97633   0.43236   0.67980   0.00000  Uiso   1.00
C4     C     0.89475   0.43091   0.68743   0.00000  Uiso   1.00
C5     C     0.77005   0.46310   0.70150   0.00000  Uiso   1.00
C6     C     0.11927   0.30482   0.74249   0.00000  Uiso   1.00
C7     C     0.19765   0.34138   0.80916   0.00000  Uiso   1.00
C8     C     0.21728   0.29832   0.87593   0.00000  Uiso   1.00
C9     C     0.27925   0.25374   0.99907   0.00000  Uiso   1.00
C10    C     0.06486   0.26712   0.57486   0.00000  Uiso   1.00
C11    C     0.09751   0.27197   0.50060   0.00000  Uiso   1.00
C12    C     0.07136   0.19715   0.42626   0.00000  Uiso   1.00
C13    C     0.04886   0.09404   0.28913   0.00000  Uiso   1.00
C14    C     0.98044   0.19956   0.66321   0.00000  Uiso   1.00
C15    C     0.94229   0.27739   0.67223   0.00000  Uiso   1.00
C16    C     0.86073   0.27582   0.67984   0.00000  Uiso   1.00
C17    C     0.83790   0.35392   0.68744   0.00000  Uiso   1.00
C18    C     0.06252   0.22797   0.74251   0.00000  Uiso   1.00
C19    C     0.08204   0.18484   0.80920   0.00000  Uiso   1.00
C20    C     0.16043   0.22133   0.87595   0.00000  Uiso   1.00
C21    C     0.00811   0.19027   0.57488   0.00000  Uiso   1.00
C22    C     0.98191   0.11543   0.50064   0.00000  Uiso   1.00
C23    C     0.01451   0.12016   0.42628   0.00000  Uiso   1.00
H24    H     0.12911   0.40088   0.66316   0.00000  Uiso   1.00
H25    H     0.02027   0.49182   0.67979   0.00000  Uiso   1.00
H26    H     0.24155   0.40085   0.80912   0.00000  Uiso   1.00
H27    H     0.14143   0.33145   0.50061   0.00000  Uiso   1.00
H28    H     0.87458   0.55876   0.69827   0.00000  Uiso   1.00
H29    H     0.34118   0.36693   0.97094   0.00000  Uiso   1.00
H30    H     0.13006   0.22059   0.32040   0.00000  Uiso   1.00
H31    H     0.93626   0.13972   0.66323   0.00000  Uiso   1.00
H32    H     0.81682   0.21633   0.67986   0.00000  Uiso   1.00
H33    H     0.03811   0.12536   0.80919   0.00000  Uiso   1.00
H34    H     0.93799   0.05597   0.50068   0.00000  Uiso   1.00
H35    H     0.70946   0.33517   0.69833   0.00000  Uiso   1.00
H36    H     0.17606   0.14334   0.97100   0.00000  Uiso   1.00
H37    H     0.96494   0.99699   0.32045   0.00000  Uiso   1.00
O38    O     0.71695   0.50208   0.70927   0.00000  Uiso   1.00
O39    O     0.32911   0.25040   0.06699   0.00000  Uiso   1.00
O40    O     0.05212   0.05840   0.21349   0.00000  Uiso   1.00
N41    N     0.85210   0.49562   0.69599   0.00000  Uiso   1.00
N42    N     0.28834   0.31628   0.95093   0.00000  Uiso   1.00
N43    N     0.09098   0.17945   0.34273   0.00000  Uiso   1.00
N44    N     0.76325   0.37531   0.69601   0.00000  Uiso   1.00
N45    N     0.19949   0.19596   0.95095   0.00000  Uiso   1.00
N46    N     0.00213   0.05914   0.34276   0.00000  Uiso   1.00
C47    C     0.66553   0.08482   0.33354   0.00000  Uiso   1.00
C48    C     0.67443   0.99667   0.34700   0.00000  Uiso   1.00
C49    C     0.68184   0.97373   0.42911   0.00000  Uiso   1.00
C50    C     0.68937   0.88993   0.42716   0.00000  Uiso   1.00
C51    C     0.70322   0.76199   0.46041   0.00000  Uiso   1.00
C52    C     0.73862   0.11927   0.29561   0.00000  Uiso   1.00
C53    C     0.79999   0.19942   0.33450   0.00000  Uiso   1.00
C54    C     0.86154   0.21882   0.28929   0.00000  Uiso   1.00
C55    C     0.97501   0.28125   0.24272   0.00000  Uiso   1.00
C56    C     0.58367   0.06450   0.25560   0.00000  Uiso   1.00
C57    C     0.51476   0.09861   0.26085   0.00000  Uiso   1.00
C58    C     0.44586   0.07191   0.18195   0.00000  Uiso   1.00
C59    C     0.31875   0.04929   0.07326   0.00000  Uiso   1.00
C60    C     0.66571   0.97678   0.18407   0.00000  Uiso   1.00
C61    C     0.67453   0.93799   0.26581   0.00000  Uiso   1.00
C62    C     0.68205   0.85420   0.26374   0.00000  Uiso   1.00
C63    C     0.68946   0.83114   0.34583   0.00000  Uiso   1.00
C64    C     0.73872   0.06059   0.21442   0.00000  Uiso   1.00
C65    C     0.80019   0.07988   0.16914   0.00000  Uiso   1.00
C66    C     0.86164   0.16003   0.20796   0.00000  Uiso   1.00
C67    C     0.58377   0.00581   0.17441   0.00000  Uiso   1.00
C68    C     0.51497   0.97907   0.09548   0.00000  Uiso   1.00
C69    C     0.44597   0.01312   0.10062   0.00000  Uiso   1.00
H70    H     0.66545   0.13051   0.39675   0.00000  Uiso   1.00
H71    H     0.68177   0.01917   0.49192   0.00000  Uiso   1.00
H72    H     0.79989   0.24482   0.39733   0.00000  Uiso   1.00
H73    H     0.51471   0.14402   0.32369   0.00000  Uiso   1.00
H74    H     0.69993   0.86985   0.56165   0.00000  Uiso   1.00
H75    H     0.94898   0.34566   0.36217   0.00000  Uiso   1.00
H76    H     0.34762   0.13311   0.20689   0.00000  Uiso   1.00
H77    H     0.66579   0.93110   0.12086   0.00000  Uiso   1.00
H78    H     0.68212   0.80880   0.20090   0.00000  Uiso   1.00
H79    H     0.80025   0.03446   0.10631   0.00000  Uiso   1.00
H80    H     0.51507   0.93365   0.03267   0.00000  Uiso   1.00
H81    H     0.70022   0.69911   0.32545   0.00000  Uiso   1.00
H82    H     0.94927   0.17493   0.12597   0.00000  Uiso   1.00
H83    H     0.34791   0.96236   0.97069   0.00000  Uiso   1.00
O84    O     0.71084   0.70764   0.50118   0.00000  Uiso   1.00
O85    O     0.03757   0.33189   0.23947   0.00000  Uiso   1.00
O86    O     0.24860   0.05302   0.03575   0.00000  Uiso   1.00
N87    N     0.69774   0.84644   0.49507   0.00000  Uiso   1.00
N88    N     0.93060   0.29129   0.30858   0.00000  Uiso   1.00
N89    N     0.36838   0.09259   0.16340   0.00000  Uiso   1.00
N90    N     0.69790   0.75457   0.36797   0.00000  Uiso   1.00
N91    N     0.93075   0.19942   0.18148   0.00000  Uiso   1.00
N92    N     0.36854   0.00071   0.03630   0.00000  Uiso   1.00
C93    C     0.34481   0.66566   0.08561   0.00000  Uiso   1.00
C94    C     0.35692   0.67421   0.99287   0.00000  Uiso   1.00
C95    C     0.43281   0.68106   0.96878   0.00000  Uiso   1.00
C96    C     0.43070   0.68833   0.88061   0.00000  Uiso   1.00
C97    C     0.46098   0.70159   0.74602   0.00000  Uiso   1.00
C98    C     0.30938   0.74117   0.12224   0.00000  Uiso   1.00
C99    C     0.34528   0.80432   0.20692   0.00000  Uiso   1.00
C100   C     0.30314   0.86795   0.22765   0.00000  Uiso   1.00
C101   C     0.25958   0.98513   0.29393   0.00000  Uiso   1.00
C102   C     0.27308   0.58212   0.06378   0.00000  Uiso   1.00
C103   C     0.27845   0.51153   0.09933   0.00000  Uiso   1.00
C104   C     0.20573   0.44126   0.07086   0.00000  Uiso   1.00
C105   C     0.10580   0.31149   0.04638   0.00000  Uiso   1.00
C106   C     0.20612   0.66639   0.97185   0.00000  Uiso   1.00
C107   C     0.28159   0.67461   0.93108   0.00000  Uiso   1.00
C108   C     0.27936   0.68187   0.84292   0.00000  Uiso   1.00
C109   C     0.35523   0.68873   0.81870   0.00000  Uiso   1.00
C110   C     0.23405   0.74157   0.06045   0.00000  Uiso   1.00
C111   C     0.19184   0.80513   0.08106   0.00000  Uiso   1.00
C112   C     0.22767   0.86835   0.16575   0.00000  Uiso   1.00
C113   C     0.19774   0.58251   0.00199   0.00000  Uiso   1.00
C114   C     0.12500   0.51234   0.97346   0.00000  Uiso   1.00
C115   C     0.13026   0.44167   0.00896   0.00000  Uiso   1.00
H116   H     0.40345   0.66536   0.13372   0.00000  Uiso   1.00
H117   H     0.49109   0.68076   0.01662   0.00000  Uiso   1.00
H118   H     0.40358   0.80399   0.25473   0.00000  Uiso   1.00
H119   H     0.33675   0.51125   0.14715   0.00000  Uiso   1.00
H120   H     0.55504   0.69804   0.85956   0.00000  Uiso   1.00
H121   H     0.37049   0.95786   0.36163   0.00000  Uiso   1.00
H122   H     0.22958   0.34056   0.13478   0.00000  Uiso   1.00
H123   H     0.14747   0.66671   0.92375   0.00000  Uiso   1.00
H124   H     0.22106   0.68218   0.79512   0.00000  Uiso   1.00
H125   H     0.13355   0.80541   0.03323   0.00000  Uiso   1.00
H126   H     0.06672   0.51267   0.92565   0.00000  Uiso   1.00
H127   H     0.33588   0.69920   0.67978   0.00000  Uiso   1.00
H128   H     0.15133   0.95902   0.18186   0.00000  Uiso   1.00
H129   H     0.01041   0.34172   0.95500   0.00000  Uiso   1.00
O130   O     0.49850   0.70880   0.68885   0.00000  Uiso   1.00
O131   O     0.25637   0.04966   0.34756   0.00000  Uiso   1.00
O132   O     0.07150   0.23979   0.04993   0.00000  Uiso   1.00
N133   N     0.49336   0.69617   0.83489   0.00000  Uiso   1.00
N134   N     0.32082   0.93909   0.30430   0.00000  Uiso   1.00
N135   N     0.18907   0.36199   0.09223   0.00000  Uiso   1.00
N136   N     0.37543   0.69679   0.73815   0.00000  Uiso   1.00
N137   N     0.20289   0.93972   0.20756   0.00000  Uiso   1.00
N138   N     0.07114   0.36261   0.99549   0.00000  Uiso   1.00
C139   C     0.91508   0.65895   0.33683   0.00000  Uiso   1.00
C140   C     0.00096   0.64576   0.32779   0.00000  Uiso   1.00
C141   C     0.02367   0.56764   0.32020   0.00000  Uiso   1.00
C142   C     0.10525   0.56909   0.31257   0.00000  Uiso   1.00
C143   C     0.22995   0.53690   0.29850   0.00000  Uiso   1.00
C144   C     0.88073   0.69518   0.25751   0.00000  Uiso   1.00
C145   C     0.80235   0.65862   0.19084   0.00000  Uiso   1.00
C146   C     0.78272   0.70168   0.12407   0.00000  Uiso   1.00
C147   C     0.72075   0.74626   0.00093   0.00000  Uiso   1.00
C148   C     0.93514   0.73288   0.42514   0.00000  Uiso   1.00
C149   C     0.90249   0.72803   0.49940   0.00000  Uiso   1.00
C150   C     0.92864   0.80285   0.57374   0.00000  Uiso   1.00
C151   C     0.95114   0.90596   0.71087   0.00000  Uiso   1.00
C152   C     0.01956   0.80044   0.33679   0.00000  Uiso   1.00
C153   C     0.05771   0.72261   0.32777   0.00000  Uiso   1.00
C154   C     0.13927   0.72418   0.32016   0.00000  Uiso   1.00
C155   C     0.16210   0.64608   0.31256   0.00000  Uiso   1.00
C156   C     0.93748   0.77203   0.25749   0.00000  Uiso   1.00
C157   C     0.91796   0.81516   0.19080   0.00000  Uiso   1.00
C158   C     0.83957   0.77867   0.12405   0.00000  Uiso   1.00
C159   C     0.99189   0.80973   0.42512   0.00000  Uiso   1.00
C160   C     0.01809   0.88457   0.49936   0.00000  Uiso   1.00
C161   C     0.98549   0.87984   0.57372   0.00000  Uiso   1.00
H162   H     0.87089   0.59912   0.33684   0.00000  Uiso   1.00
H163   H     0.97973   0.50818   0.32021   0.00000  Uiso   1.00
H164   H     0.75845   0.59915   0.19088   0.00000  Uiso   1.00
H165   H     0.85857   0.66855   0.49939   0.00000  Uiso   1.00
H166   H     0.12542   0.44124   0.30173   0.00000  Uiso   1.00
H167   H     0.65882   0.63307   0.02906   0.00000  Uiso   1.00
H168   H     0.86994   0.77941   0.67961   0.00000  Uiso   1.00
H169   H     0.06374   0.86028   0.33677   0.00000  Uiso   1.00
H170   H     0.18318   0.78367   0.32014   0.00000  Uiso   1.00
H171   H     0.96189   0.87464   0.19081   0.00000  Uiso   1.00
H172   H     0.06201   0.94404   0.49932   0.00000  Uiso   1.00
H173   H     0.29054   0.66483   0.30167   0.00000  Uiso   1.00
H174   H     0.82394   0.85667   0.02900   0.00000  Uiso   1.00
H175   H     0.03506   0.00301   0.67955   0.00000  Uiso   1.00
O176   O     0.28305   0.49792   0.29073   0.00000  Uiso   1.00
O177   O     0.67089   0.74960   0.93301   0.00000  Uiso   1.00
O178   O     0.94788   0.94160   0.78651   0.00000  Uiso   1.00
N179   N     0.14790   0.50438   0.30401   0.00000  Uiso   1.00
N180   N     0.71166   0.68372   0.04907   0.00000  Uiso   1.00
N181   N     0.90902   0.82055   0.65727   0.00000  Uiso   1.00
N182   N     0.23675   0.62469   0.30399   0.00000  Uiso   1.00
N183   N     0.80051   0.80404   0.04905   0.00000  Uiso   1.00
N184   N     0.99787   0.94086   0.65724   0.00000  Uiso   1.00
C185   C     0.33447   0.91518   0.66646   0.00000  Uiso   1.00
C186   C     0.32557   0.00333   0.65300   0.00000  Uiso   1.00
C187   C     0.31816   0.02627   0.57089   0.00000  Uiso   1.00
C188   C     0.31063   0.11007   0.57284   0.00000  Uiso   1.00
C189   C     0.29678   0.23801   0.53959   0.00000  Uiso   1.00
C190   C     0.26138   0.88073   0.70439   0.00000  Uiso   1.00
C191   C     0.20001   0.80058   0.66550   0.00000  Uiso   1.00
C192   C     0.13846   0.78118   0.71071   0.00000  Uiso   1.00
C193   C     0.02499   0.71875   0.75728   0.00000  Uiso   1.00
C194   C     0.41633   0.93551   0.74440   0.00000  Uiso   1.00
C195   C     0.48524   0.90139   0.73915   0.00000  Uiso   1.00
C196   C     0.55414   0.92809   0.81805   0.00000  Uiso   1.00
C197   C     0.68125   0.95071   0.92674   0.00000  Uiso   1.00
C198   C     0.33429   0.02322   0.81593   0.00000  Uiso   1.00
C199   C     0.32547   0.06201   0.73419   0.00000  Uiso   1.00
C200   C     0.31795   0.14580   0.73626   0.00000  Uiso   1.00
C201   C     0.31054   0.16886   0.65417   0.00000  Uiso   1.00
C202   C     0.26128   0.93941   0.78558   0.00000  Uiso   1.00
C203   C     0.19981   0.92012   0.83086   0.00000  Uiso   1.00
C204   C     0.13836   0.83997   0.79204   0.00000  Uiso   1.00
C205   C     0.41623   0.99419   0.82559   0.00000  Uiso   1.00
C206   C     0.48503   0.02093   0.90452   0.00000  Uiso   1.00
C207   C     0.55403   0.98688   0.89939   0.00000  Uiso   1.00
H208   H     0.33455   0.86949   0.60325   0.00000  Uiso   1.00
H209   H     0.31823   0.98083   0.50808   0.00000  Uiso   1.00
H210   H     0.20011   0.75518   0.60267   0.00000  Uiso   1.00
H211   H     0.48529   0.85599   0.67631   0.00000  Uiso   1.00
H212   H     0.30007   0.13015   0.43835   0.00000  Uiso   1.00
H213   H     0.05102   0.65434   0.63783   0.00000  Uiso   1.00
H214   H     0.65238   0.86690   0.79311   0.00000  Uiso   1.00
H215   H     0.33421   0.06890   0.87914   0.00000  Uiso   1.00
H216   H     0.31788   0.19120   0.79910   0.00000  Uiso   1.00
H217   H     0.19975   0.96555   0.89369   0.00000  Uiso   1.00
H218   H     0.48493   0.06635   0.96733   0.00000  Uiso   1.00
H219   H     0.29978   0.30089   0.67455   0.00000  Uiso   1.00
H220   H     0.05073   0.82507   0.87403   0.00000  Uiso   1.00
H221   H     0.65209   0.03764   0.02931   0.00000  Uiso   1.00
O222   O     0.28916   0.29236   0.49882   0.00000  Uiso   1.00
O223   O     0.96243   0.66811   0.76053   0.00000  Uiso   1.00
O224   O     0.75140   0.94698   0.96425   0.00000  Uiso   1.00
N225   N     0.30226   0.15356   0.50493   0.00000  Uiso   1.00
N226   N     0.06940   0.70871   0.69142   0.00000  Uiso   1.00
N227   N     0.63162   0.90741   0.83660   0.00000  Uiso   1.00
N228   N     0.30210   0.24543   0.63203   0.00000  Uiso   1.00
N229   N     0.06925   0.80058   0.81852   0.00000  Uiso   1.00
N230   N     0.63146   0.99929   0.96370   0.00000  Uiso   1.00
C231   C     0.65519   0.33434   0.91439   0.00000  Uiso   1.00
C232   C     0.64308   0.32579   0.00713   0.00000  Uiso   1.00
C233   C     0.56719   0.31894   0.03122   0.00000  Uiso   1.00
C234   C     0.56930   0.31167   0.11939   0.00000  Uiso   1.00
C235   C     0.53902   0.29841   0.25398   0.00000  Uiso   1.00
C236   C     0.69062   0.25883   0.87777   0.00000  Uiso   1.00
C237   C     0.65472   0.19568   0.79308   0.00000  Uiso   1.00
C238   C     0.69686   0.13205   0.77235   0.00000  Uiso   1.00
C239   C     0.74042   0.01487   0.70607   0.00000  Uiso   1.00
C240   C     0.72692   0.41788   0.93622   0.00000  Uiso   1.00
C241   C     0.72155   0.48847   0.90067   0.00000  Uiso   1.00
C242   C     0.79427   0.55874   0.92914   0.00000  Uiso   1.00
C243   C     0.89420   0.68851   0.95362   0.00000  Uiso   1.00
C244   C     0.79388   0.33361   0.02815   0.00000  Uiso   1.00
C245   C     0.71841   0.32539   0.06892   0.00000  Uiso   1.00
C246   C     0.72064   0.31813   0.15708   0.00000  Uiso   1.00
C247   C     0.64477   0.31127   0.18130   0.00000  Uiso   1.00
C248   C     0.76595   0.25843   0.93955   0.00000  Uiso   1.00
C249   C     0.80816   0.19487   0.91894   0.00000  Uiso   1.00
C250   C     0.77233   0.13165   0.83425   0.00000  Uiso   1.00
C251   C     0.80226   0.41749   0.99801   0.00000  Uiso   1.00
C252   C     0.87500   0.48766   0.02654   0.00000  Uiso   1.00
C253   C     0.86974   0.55834   0.99104   0.00000  Uiso   1.00
H254   H     0.59655   0.33464   0.86628   0.00000  Uiso   1.00
H255   H     0.50891   0.31924   0.98338   0.00000  Uiso   1.00
H256   H     0.59642   0.19601   0.74527   0.00000  Uiso   1.00
H257   H     0.66325   0.48875   0.85285   0.00000  Uiso   1.00
H258   H     0.44496   0.30196   0.14044   0.00000  Uiso   1.00
H259   H     0.62951   0.04214   0.63837   0.00000  Uiso   1.00
H260   H     0.77042   0.65944   0.86522   0.00000  Uiso   1.00
H261   H     0.85253   0.33329   0.07625   0.00000  Uiso   1.00
H262   H     0.77894   0.31782   0.20488   0.00000  Uiso   1.00
H263   H     0.86646   0.19459   0.96677   0.00000  Uiso   1.00
H264   H     0.93328   0.48733   0.07435   0.00000  Uiso   1.00
H265   H     0.66412   0.30080   0.32022   0.00000  Uiso   1.00
H266   H     0.84867   0.04098   0.81814   0.00000  Uiso   1.00
H267   H     0.98959   0.65828   0.04500   0.00000  Uiso   1.00
O268   O     0.50150   0.29120   0.31115   0.00000  Uiso   1.00
O269   O     0.74363   0.95034   0.65244   0.00000  Uiso   1.00
O270   O     0.92850   0.76021   0.95007   0.00000  Uiso   1.00
N271   N     0.50664   0.30383   0.16511   0.00000  Uiso   1.00
N272   N     0.67918   0.06091   0.69570   0.00000  Uiso   1.00
N273   N     0.81093   0.63801   0.90777   0.00000  Uiso   1.00
N274   N     0.62457   0.30321   0.26185   0.00000  Uiso   1.00
N275   N     0.79711   0.06028   0.79244   0.00000  Uiso   1.00
N276   N     0.92886   0.63739   0.00451   0.00000  Uiso   1.00
