data_job_03553
_audit_creation_date              2018-12-19
_audit_creation_method            'Materials Studio'
_symmetry_space_group_name_H-M    'P1'
_symmetry_Int_Tables_number       1
_symmetry_cell_setting            triclinic
loop_
_symmetry_equiv_pos_as_xyz
  x,y,z
_cell_length_a                    15.0655
_cell_length_b                    15.0655
_cell_length_c                    22.6768
_cell_angle_alpha                 90.0000
_cell_angle_beta                  90.0000
_cell_angle_gamma                 90.0000
loop_
_atom_site_label
_atom_site_type_symbol
_atom_site_fract_x
_atom_site_fract_y
_atom_site_fract_z
_atom_site_U_iso_or_equiv
_atom_site_adp_type
_atom_site_occupancy
C1     C     0.58744   0.69259   0.10635   0.00000  Uiso   1.00
C2     C     0.53889   0.74410   0.05828   0.00000  Uiso   1.00
C3     C     0.56667   0.75333   0.00026   0.00000  Uiso   1.00
C4     C     0.51295   0.80310   0.96310   0.00000  Uiso   1.00
C5     C     0.44954   0.87717   0.88540   0.00000  Uiso   1.00
C6     C     0.60303   0.75828   0.15646   0.00000  Uiso   1.00
C7     C     0.68474   0.77941   0.18098   0.00000  Uiso   1.00
C8     C     0.68501   0.84111   0.22646   0.00000  Uiso   1.00
C9     C     0.72118   0.93714   0.30120   0.00000  Uiso   1.00
C10    C     0.52116   0.62473   0.12980   0.00000  Uiso   1.00
C11    C     0.53404   0.53357   0.13192   0.00000  Uiso   1.00
C12    C     0.46538   0.48282   0.15498   0.00000  Uiso   1.00
C13    C     0.37444   0.37149   0.18833   0.00000  Uiso   1.00
C14    C     0.44261   0.76457   0.14353   0.00000  Uiso   1.00
C15    C     0.46022   0.78320   0.07848   0.00000  Uiso   1.00
C16    C     0.40643   0.83296   0.04140   0.00000  Uiso   1.00
C17    C     0.43413   0.84226   0.98333   0.00000  Uiso   1.00
C18    C     0.52437   0.79737   0.17665   0.00000  Uiso   1.00
C19    C     0.52451   0.85905   0.22211   0.00000  Uiso   1.00
C20    C     0.60620   0.88027   0.24669   0.00000  Uiso   1.00
C21    C     0.44249   0.66382   0.14999   0.00000  Uiso   1.00
C22    C     0.37380   0.61320   0.17306   0.00000  Uiso   1.00
C23    C     0.38657   0.52198   0.17521   0.00000  Uiso   1.00
H24    H     0.64869   0.66216   0.09063   0.00000  Uiso   1.00
H25    H     0.62756   0.72307   0.98465   0.00000  Uiso   1.00
H26    H     0.74561   0.74914   0.16534   0.00000  Uiso   1.00
H27    H     0.59493   0.50334   0.11629   0.00000  Uiso   1.00
H28    H     0.56946   0.80788   0.87606   0.00000  Uiso   1.00
H29    H     0.81837   0.86283   0.25707   0.00000  Uiso   1.00
H30    H     0.50063   0.34449   0.15364   0.00000  Uiso   1.00
H31    H     0.38136   0.79500   0.15926   0.00000  Uiso   1.00
H32    H     0.34556   0.86321   0.05704   0.00000  Uiso   1.00
H33    H     0.46362   0.88928   0.23773   0.00000  Uiso   1.00
H34    H     0.31293   0.64348   0.18868   0.00000  Uiso   1.00
H35    H     0.34058   0.92162   0.93481   0.00000  Uiso   1.00
H36    H     0.58950   0.97657   0.31583   0.00000  Uiso   1.00
H37    H     0.27175   0.45824   0.21239   0.00000  Uiso   1.00
O38    O     0.43631   0.90724   0.83696   0.00000  Uiso   1.00
O39    O     0.76287   0.97932   0.33684   0.00000  Uiso   1.00
O40    O     0.34600   0.29928   0.20114   0.00000  Uiso   1.00
N41    N     0.52050   0.82527   0.90391   0.00000  Uiso   1.00
N42    N     0.75322   0.87666   0.26013   0.00000  Uiso   1.00
N43    N     0.45616   0.39206   0.16344   0.00000  Uiso   1.00
N44    N     0.39734   0.88647   0.93553   0.00000  Uiso   1.00
N45    N     0.63006   0.93786   0.29175   0.00000  Uiso   1.00
N46    N     0.33301   0.45326   0.19506   0.00000  Uiso   1.00
C47    C     0.41256   0.30741   0.60635   0.00000  Uiso   1.00
C48    C     0.46111   0.25590   0.55828   0.00000  Uiso   1.00
C49    C     0.43333   0.24667   0.50026   0.00000  Uiso   1.00
C50    C     0.48705   0.19690   0.46310   0.00000  Uiso   1.00
C51    C     0.55046   0.12283   0.38540   0.00000  Uiso   1.00
C52    C     0.39697   0.24172   0.65646   0.00000  Uiso   1.00
C53    C     0.31526   0.22059   0.68098   0.00000  Uiso   1.00
C54    C     0.31499   0.15889   0.72646   0.00000  Uiso   1.00
C55    C     0.27882   0.06286   0.80120   0.00000  Uiso   1.00
C56    C     0.47884   0.37527   0.62980   0.00000  Uiso   1.00
C57    C     0.46596   0.46643   0.63192   0.00000  Uiso   1.00
C58    C     0.53462   0.51718   0.65498   0.00000  Uiso   1.00
C59    C     0.62556   0.62851   0.68833   0.00000  Uiso   1.00
C60    C     0.55739   0.23543   0.64353   0.00000  Uiso   1.00
C61    C     0.53978   0.21680   0.57848   0.00000  Uiso   1.00
C62    C     0.59357   0.16704   0.54140   0.00000  Uiso   1.00
C63    C     0.56587   0.15774   0.48333   0.00000  Uiso   1.00
C64    C     0.47563   0.20263   0.67665   0.00000  Uiso   1.00
C65    C     0.47549   0.14095   0.72211   0.00000  Uiso   1.00
C66    C     0.39380   0.11973   0.74669   0.00000  Uiso   1.00
C67    C     0.55751   0.33618   0.64999   0.00000  Uiso   1.00
C68    C     0.62620   0.38680   0.67306   0.00000  Uiso   1.00
C69    C     0.61343   0.47802   0.67521   0.00000  Uiso   1.00
H70    H     0.35131   0.33784   0.59063   0.00000  Uiso   1.00
H71    H     0.37244   0.27693   0.48465   0.00000  Uiso   1.00
H72    H     0.25439   0.25086   0.66534   0.00000  Uiso   1.00
H73    H     0.40507   0.49666   0.61629   0.00000  Uiso   1.00
H74    H     0.43054   0.19212   0.37606   0.00000  Uiso   1.00
H75    H     0.18163   0.13717   0.75707   0.00000  Uiso   1.00
H76    H     0.49937   0.65551   0.65364   0.00000  Uiso   1.00
H77    H     0.61864   0.20500   0.65926   0.00000  Uiso   1.00
H78    H     0.65444   0.13679   0.55704   0.00000  Uiso   1.00
H79    H     0.53638   0.11072   0.73773   0.00000  Uiso   1.00
H80    H     0.68707   0.35652   0.68868   0.00000  Uiso   1.00
H81    H     0.65942   0.07838   0.43481   0.00000  Uiso   1.00
H82    H     0.41050   0.02343   0.81583   0.00000  Uiso   1.00
H83    H     0.72825   0.54176   0.71239   0.00000  Uiso   1.00
O84    O     0.56369   0.09276   0.33696   0.00000  Uiso   1.00
O85    O     0.23713   0.02068   0.83684   0.00000  Uiso   1.00
O86    O     0.65400   0.70072   0.70114   0.00000  Uiso   1.00
N87    N     0.47950   0.17473   0.40391   0.00000  Uiso   1.00
N88    N     0.24678   0.12334   0.76013   0.00000  Uiso   1.00
N89    N     0.54384   0.60794   0.66344   0.00000  Uiso   1.00
N90    N     0.60266   0.11353   0.43553   0.00000  Uiso   1.00
N91    N     0.36994   0.06214   0.79175   0.00000  Uiso   1.00
N92    N     0.66699   0.54674   0.69506   0.00000  Uiso   1.00
C93    C     0.80741   0.08744   0.85635   0.00000  Uiso   1.00
C94    C     0.75590   0.03889   0.80828   0.00000  Uiso   1.00
C95    C     0.74667   0.06667   0.75026   0.00000  Uiso   1.00
C96    C     0.69690   0.01295   0.71310   0.00000  Uiso   1.00
C97    C     0.62283   0.94954   0.63540   0.00000  Uiso   1.00
C98    C     0.74172   0.10303   0.90646   0.00000  Uiso   1.00
C99    C     0.72059   0.18474   0.93098   0.00000  Uiso   1.00
C100   C     0.65889   0.18501   0.97646   0.00000  Uiso   1.00
C101   C     0.56286   0.22118   0.05120   0.00000  Uiso   1.00
C102   C     0.87527   0.02116   0.87980   0.00000  Uiso   1.00
C103   C     0.96643   0.03404   0.88192   0.00000  Uiso   1.00
C104   C     0.01718   0.96538   0.90498   0.00000  Uiso   1.00
C105   C     0.12851   0.87444   0.93833   0.00000  Uiso   1.00
C106   C     0.73543   0.94261   0.89353   0.00000  Uiso   1.00
C107   C     0.71680   0.96022   0.82848   0.00000  Uiso   1.00
C108   C     0.66704   0.90643   0.79140   0.00000  Uiso   1.00
C109   C     0.65774   0.93413   0.73333   0.00000  Uiso   1.00
C110   C     0.70263   0.02437   0.92665   0.00000  Uiso   1.00
C111   C     0.64095   0.02451   0.97211   0.00000  Uiso   1.00
C112   C     0.61973   0.10620   0.99669   0.00000  Uiso   1.00
C113   C     0.83618   0.94249   0.89999   0.00000  Uiso   1.00
C114   C     0.88680   0.87380   0.92306   0.00000  Uiso   1.00
C115   C     0.97802   0.88657   0.92521   0.00000  Uiso   1.00
H116   H     0.83784   0.14869   0.84063   0.00000  Uiso   1.00
H117   H     0.77693   0.12756   0.73465   0.00000  Uiso   1.00
H118   H     0.75086   0.24561   0.91534   0.00000  Uiso   1.00
H119   H     0.99666   0.09493   0.86629   0.00000  Uiso   1.00
H120   H     0.69212   0.06946   0.62606   0.00000  Uiso   1.00
H121   H     0.63717   0.31837   0.00707   0.00000  Uiso   1.00
H122   H     0.15551   0.00063   0.90364   0.00000  Uiso   1.00
H123   H     0.70500   0.88136   0.90926   0.00000  Uiso   1.00
H124   H     0.63679   0.84556   0.80704   0.00000  Uiso   1.00
H125   H     0.61072   0.96362   0.98773   0.00000  Uiso   1.00
H126   H     0.85652   0.81293   0.93868   0.00000  Uiso   1.00
H127   H     0.57838   0.84058   0.68481   0.00000  Uiso   1.00
H128   H     0.52343   0.08950   0.06583   0.00000  Uiso   1.00
H129   H     0.04176   0.77175   0.96239   0.00000  Uiso   1.00
O130   O     0.59276   0.93631   0.58696   0.00000  Uiso   1.00
O131   O     0.52068   0.26287   0.08684   0.00000  Uiso   1.00
O132   O     0.20072   0.84600   0.95114   0.00000  Uiso   1.00
N133   N     0.67473   0.02050   0.65391   0.00000  Uiso   1.00
N134   N     0.62334   0.25322   0.01013   0.00000  Uiso   1.00
N135   N     0.10794   0.95616   0.91344   0.00000  Uiso   1.00
N136   N     0.61353   0.89734   0.68553   0.00000  Uiso   1.00
N137   N     0.56214   0.13006   0.04175   0.00000  Uiso   1.00
N138   N     0.04674   0.83301   0.94506   0.00000  Uiso   1.00
C139   C     0.19259   0.91256   0.35635   0.00000  Uiso   1.00
C140   C     0.24410   0.96111   0.30828   0.00000  Uiso   1.00
C141   C     0.25333   0.93333   0.25026   0.00000  Uiso   1.00
C142   C     0.30310   0.98705   0.21310   0.00000  Uiso   1.00
C143   C     0.37717   0.05046   0.13540   0.00000  Uiso   1.00
C144   C     0.25828   0.89697   0.40646   0.00000  Uiso   1.00
C145   C     0.27941   0.81526   0.43098   0.00000  Uiso   1.00
C146   C     0.34111   0.81499   0.47646   0.00000  Uiso   1.00
C147   C     0.43714   0.77882   0.55120   0.00000  Uiso   1.00
C148   C     0.12473   0.97884   0.37980   0.00000  Uiso   1.00
C149   C     0.03357   0.96596   0.38192   0.00000  Uiso   1.00
C150   C     0.98282   0.03462   0.40498   0.00000  Uiso   1.00
C151   C     0.87149   0.12556   0.43833   0.00000  Uiso   1.00
C152   C     0.26457   0.05739   0.39353   0.00000  Uiso   1.00
C153   C     0.28320   0.03978   0.32848   0.00000  Uiso   1.00
C154   C     0.33296   0.09357   0.29140   0.00000  Uiso   1.00
C155   C     0.34226   0.06587   0.23333   0.00000  Uiso   1.00
C156   C     0.29737   0.97563   0.42665   0.00000  Uiso   1.00
C157   C     0.35905   0.97549   0.47211   0.00000  Uiso   1.00
C158   C     0.38027   0.89380   0.49669   0.00000  Uiso   1.00
C159   C     0.16382   0.05751   0.39999   0.00000  Uiso   1.00
C160   C     0.11320   0.12620   0.42306   0.00000  Uiso   1.00
C161   C     0.02198   0.11343   0.42521   0.00000  Uiso   1.00
H162   H     0.16216   0.85131   0.34063   0.00000  Uiso   1.00
H163   H     0.22307   0.87244   0.23465   0.00000  Uiso   1.00
H164   H     0.24914   0.75439   0.41534   0.00000  Uiso   1.00
H165   H     0.00334   0.90507   0.36629   0.00000  Uiso   1.00
H166   H     0.30788   0.93054   0.12606   0.00000  Uiso   1.00
H167   H     0.36283   0.68163   0.50707   0.00000  Uiso   1.00
H168   H     0.84449   0.99937   0.40364   0.00000  Uiso   1.00
H169   H     0.29500   0.11864   0.40926   0.00000  Uiso   1.00
H170   H     0.36321   0.15444   0.30704   0.00000  Uiso   1.00
H171   H     0.38928   0.03638   0.48773   0.00000  Uiso   1.00
H172   H     0.14348   0.18707   0.43868   0.00000  Uiso   1.00
H173   H     0.42162   0.15942   0.18481   0.00000  Uiso   1.00
H174   H     0.47657   0.91050   0.56583   0.00000  Uiso   1.00
H175   H     0.95824   0.22825   0.46239   0.00000  Uiso   1.00
O176   O     0.40724   0.06369   0.08696   0.00000  Uiso   1.00
O177   O     0.47932   0.73713   0.58684   0.00000  Uiso   1.00
O178   O     0.79928   0.15400   0.45114   0.00000  Uiso   1.00
N179   N     0.32527   0.97950   0.15391   0.00000  Uiso   1.00
N180   N     0.37666   0.74678   0.51013   0.00000  Uiso   1.00
N181   N     0.89206   0.04384   0.41344   0.00000  Uiso   1.00
N182   N     0.38647   0.10266   0.18553   0.00000  Uiso   1.00
N183   N     0.43786   0.86994   0.54175   0.00000  Uiso   1.00
N184   N     0.95326   0.16699   0.44506   0.00000  Uiso   1.00
C185   C     0.91256   0.19259   0.64365   0.00000  Uiso   1.00
C186   C     0.96111   0.24410   0.69172   0.00000  Uiso   1.00
C187   C     0.93333   0.25333   0.74974   0.00000  Uiso   1.00
C188   C     0.98705   0.30310   0.78690   0.00000  Uiso   1.00
C189   C     0.05046   0.37717   0.86460   0.00000  Uiso   1.00
C190   C     0.89697   0.25828   0.59354   0.00000  Uiso   1.00
C191   C     0.81526   0.27941   0.56902   0.00000  Uiso   1.00
C192   C     0.81499   0.34111   0.52354   0.00000  Uiso   1.00
C193   C     0.77882   0.43714   0.44880   0.00000  Uiso   1.00
C194   C     0.97884   0.12473   0.62020   0.00000  Uiso   1.00
C195   C     0.96596   0.03357   0.61808   0.00000  Uiso   1.00
C196   C     0.03462   0.98282   0.59502   0.00000  Uiso   1.00
C197   C     0.12556   0.87149   0.56167   0.00000  Uiso   1.00
C198   C     0.05739   0.26457   0.60647   0.00000  Uiso   1.00
C199   C     0.03978   0.28320   0.67152   0.00000  Uiso   1.00
C200   C     0.09357   0.33296   0.70860   0.00000  Uiso   1.00
C201   C     0.06587   0.34226   0.76667   0.00000  Uiso   1.00
C202   C     0.97563   0.29737   0.57335   0.00000  Uiso   1.00
C203   C     0.97549   0.35905   0.52789   0.00000  Uiso   1.00
C204   C     0.89380   0.38027   0.50331   0.00000  Uiso   1.00
C205   C     0.05751   0.16382   0.60001   0.00000  Uiso   1.00
C206   C     0.12620   0.11320   0.57694   0.00000  Uiso   1.00
C207   C     0.11343   0.02198   0.57479   0.00000  Uiso   1.00
H208   H     0.85131   0.16216   0.65937   0.00000  Uiso   1.00
H209   H     0.87244   0.22307   0.76535   0.00000  Uiso   1.00
H210   H     0.75439   0.24914   0.58466   0.00000  Uiso   1.00
H211   H     0.90507   0.00334   0.63371   0.00000  Uiso   1.00
H212   H     0.93054   0.30788   0.87394   0.00000  Uiso   1.00
H213   H     0.68163   0.36283   0.49293   0.00000  Uiso   1.00
H214   H     0.99937   0.84449   0.59636   0.00000  Uiso   1.00
H215   H     0.11864   0.29500   0.59074   0.00000  Uiso   1.00
H216   H     0.15444   0.36321   0.69296   0.00000  Uiso   1.00
H217   H     0.03638   0.38928   0.51227   0.00000  Uiso   1.00
H218   H     0.18707   0.14348   0.56132   0.00000  Uiso   1.00
H219   H     0.15942   0.42162   0.81519   0.00000  Uiso   1.00
H220   H     0.91050   0.47657   0.43417   0.00000  Uiso   1.00
H221   H     0.22825   0.95824   0.53761   0.00000  Uiso   1.00
O222   O     0.06369   0.40724   0.91304   0.00000  Uiso   1.00
O223   O     0.73713   0.47932   0.41316   0.00000  Uiso   1.00
O224   O     0.15400   0.79928   0.54886   0.00000  Uiso   1.00
N225   N     0.97950   0.32527   0.84609   0.00000  Uiso   1.00
N226   N     0.74678   0.37666   0.48987   0.00000  Uiso   1.00
N227   N     0.04384   0.89206   0.58656   0.00000  Uiso   1.00
N228   N     0.10266   0.38647   0.81447   0.00000  Uiso   1.00
N229   N     0.86994   0.43786   0.45825   0.00000  Uiso   1.00
N230   N     0.16699   0.95326   0.55494   0.00000  Uiso   1.00
C231   C     0.08744   0.80741   0.14365   0.00000  Uiso   1.00
C232   C     0.03889   0.75590   0.19172   0.00000  Uiso   1.00
C233   C     0.06667   0.74667   0.24974   0.00000  Uiso   1.00
C234   C     0.01295   0.69690   0.28690   0.00000  Uiso   1.00
C235   C     0.94954   0.62283   0.36460   0.00000  Uiso   1.00
C236   C     0.10303   0.74172   0.09354   0.00000  Uiso   1.00
C237   C     0.18474   0.72059   0.06902   0.00000  Uiso   1.00
C238   C     0.18501   0.65889   0.02354   0.00000  Uiso   1.00
C239   C     0.22118   0.56286   0.94880   0.00000  Uiso   1.00
C240   C     0.02116   0.87527   0.12020   0.00000  Uiso   1.00
C241   C     0.03404   0.96643   0.11808   0.00000  Uiso   1.00
C242   C     0.96538   0.01718   0.09502   0.00000  Uiso   1.00
C243   C     0.87444   0.12851   0.06167   0.00000  Uiso   1.00
C244   C     0.94261   0.73543   0.10647   0.00000  Uiso   1.00
C245   C     0.96022   0.71680   0.17152   0.00000  Uiso   1.00
C246   C     0.90643   0.66704   0.20860   0.00000  Uiso   1.00
C247   C     0.93413   0.65774   0.26667   0.00000  Uiso   1.00
C248   C     0.02437   0.70263   0.07335   0.00000  Uiso   1.00
C249   C     0.02451   0.64095   0.02789   0.00000  Uiso   1.00
C250   C     0.10620   0.61973   0.00331   0.00000  Uiso   1.00
C251   C     0.94249   0.83618   0.10001   0.00000  Uiso   1.00
C252   C     0.87380   0.88680   0.07694   0.00000  Uiso   1.00
C253   C     0.88657   0.97802   0.07479   0.00000  Uiso   1.00
H254   H     0.14869   0.83784   0.15937   0.00000  Uiso   1.00
H255   H     0.12756   0.77693   0.26535   0.00000  Uiso   1.00
H256   H     0.24561   0.75086   0.08466   0.00000  Uiso   1.00
H257   H     0.09493   0.99666   0.13371   0.00000  Uiso   1.00
H258   H     0.06946   0.69212   0.37394   0.00000  Uiso   1.00
H259   H     0.31837   0.63717   0.99293   0.00000  Uiso   1.00
H260   H     0.00063   0.15551   0.09636   0.00000  Uiso   1.00
H261   H     0.88136   0.70500   0.09074   0.00000  Uiso   1.00
H262   H     0.84556   0.63679   0.19296   0.00000  Uiso   1.00
H263   H     0.96362   0.61072   0.01227   0.00000  Uiso   1.00
H264   H     0.81293   0.85652   0.06132   0.00000  Uiso   1.00
H265   H     0.84058   0.57838   0.31519   0.00000  Uiso   1.00
H266   H     0.08950   0.52343   0.93417   0.00000  Uiso   1.00
H267   H     0.77175   0.04176   0.03761   0.00000  Uiso   1.00
O268   O     0.93631   0.59276   0.41304   0.00000  Uiso   1.00
O269   O     0.26287   0.52068   0.91316   0.00000  Uiso   1.00
O270   O     0.84600   0.20072   0.04886   0.00000  Uiso   1.00
N271   N     0.02050   0.67473   0.34609   0.00000  Uiso   1.00
N272   N     0.25322   0.62334   0.98987   0.00000  Uiso   1.00
N273   N     0.95616   0.10794   0.08656   0.00000  Uiso   1.00
N274   N     0.89734   0.61353   0.31447   0.00000  Uiso   1.00
N275   N     0.13006   0.56214   0.95825   0.00000  Uiso   1.00
N276   N     0.83301   0.04674   0.05494   0.00000  Uiso   1.00
C277   C     0.69259   0.58744   0.89365   0.00000  Uiso   1.00
C278   C     0.74410   0.53889   0.94172   0.00000  Uiso   1.00
C279   C     0.75333   0.56667   0.99974   0.00000  Uiso   1.00
C280   C     0.80310   0.51295   0.03690   0.00000  Uiso   1.00
C281   C     0.87717   0.44954   0.11460   0.00000  Uiso   1.00
C282   C     0.75828   0.60303   0.84354   0.00000  Uiso   1.00
C283   C     0.77941   0.68474   0.81902   0.00000  Uiso   1.00
C284   C     0.84111   0.68501   0.77354   0.00000  Uiso   1.00
C285   C     0.93714   0.72118   0.69880   0.00000  Uiso   1.00
C286   C     0.62473   0.52116   0.87020   0.00000  Uiso   1.00
C287   C     0.53357   0.53404   0.86808   0.00000  Uiso   1.00
C288   C     0.48282   0.46538   0.84502   0.00000  Uiso   1.00
C289   C     0.37149   0.37444   0.81167   0.00000  Uiso   1.00
C290   C     0.76457   0.44261   0.85647   0.00000  Uiso   1.00
C291   C     0.78320   0.46022   0.92152   0.00000  Uiso   1.00
C292   C     0.83296   0.40643   0.95860   0.00000  Uiso   1.00
C293   C     0.84226   0.43413   0.01667   0.00000  Uiso   1.00
C294   C     0.79737   0.52437   0.82335   0.00000  Uiso   1.00
C295   C     0.85905   0.52451   0.77789   0.00000  Uiso   1.00
C296   C     0.88027   0.60620   0.75331   0.00000  Uiso   1.00
C297   C     0.66382   0.44249   0.85001   0.00000  Uiso   1.00
C298   C     0.61320   0.37380   0.82694   0.00000  Uiso   1.00
C299   C     0.52198   0.38657   0.82479   0.00000  Uiso   1.00
H300   H     0.66216   0.64869   0.90937   0.00000  Uiso   1.00
H301   H     0.72307   0.62756   0.01535   0.00000  Uiso   1.00
H302   H     0.74914   0.74561   0.83466   0.00000  Uiso   1.00
H303   H     0.50334   0.59493   0.88371   0.00000  Uiso   1.00
H304   H     0.80788   0.56946   0.12394   0.00000  Uiso   1.00
H305   H     0.86283   0.81837   0.74293   0.00000  Uiso   1.00
H306   H     0.34449   0.50063   0.84636   0.00000  Uiso   1.00
H307   H     0.79500   0.38136   0.84074   0.00000  Uiso   1.00
H308   H     0.86321   0.34556   0.94296   0.00000  Uiso   1.00
H309   H     0.88928   0.46362   0.76227   0.00000  Uiso   1.00
H310   H     0.64348   0.31293   0.81132   0.00000  Uiso   1.00
H311   H     0.92162   0.34058   0.06519   0.00000  Uiso   1.00
H312   H     0.97657   0.58950   0.68417   0.00000  Uiso   1.00
H313   H     0.45824   0.27175   0.78761   0.00000  Uiso   1.00
O314   O     0.90724   0.43631   0.16304   0.00000  Uiso   1.00
O315   O     0.97932   0.76287   0.66316   0.00000  Uiso   1.00
O316   O     0.29928   0.34600   0.79886   0.00000  Uiso   1.00
N317   N     0.82527   0.52050   0.09609   0.00000  Uiso   1.00
N318   N     0.87666   0.75322   0.73987   0.00000  Uiso   1.00
N319   N     0.39206   0.45616   0.83656   0.00000  Uiso   1.00
N320   N     0.88647   0.39734   0.06447   0.00000  Uiso   1.00
N321   N     0.93786   0.63006   0.70825   0.00000  Uiso   1.00
N322   N     0.45326   0.33301   0.80494   0.00000  Uiso   1.00
C323   C     0.30741   0.41256   0.39365   0.00000  Uiso   1.00
C324   C     0.25590   0.46111   0.44172   0.00000  Uiso   1.00
C325   C     0.24667   0.43333   0.49974   0.00000  Uiso   1.00
C326   C     0.19690   0.48705   0.53690   0.00000  Uiso   1.00
C327   C     0.12283   0.55046   0.61460   0.00000  Uiso   1.00
C328   C     0.24172   0.39697   0.34354   0.00000  Uiso   1.00
C329   C     0.22059   0.31526   0.31902   0.00000  Uiso   1.00
C330   C     0.15889   0.31499   0.27354   0.00000  Uiso   1.00
C331   C     0.06286   0.27882   0.19880   0.00000  Uiso   1.00
C332   C     0.37527   0.47884   0.37020   0.00000  Uiso   1.00
C333   C     0.46643   0.46596   0.36808   0.00000  Uiso   1.00
C334   C     0.51718   0.53462   0.34502   0.00000  Uiso   1.00
C335   C     0.62851   0.62556   0.31167   0.00000  Uiso   1.00
C336   C     0.23543   0.55739   0.35647   0.00000  Uiso   1.00
C337   C     0.21680   0.53978   0.42152   0.00000  Uiso   1.00
C338   C     0.16704   0.59357   0.45860   0.00000  Uiso   1.00
C339   C     0.15774   0.56587   0.51667   0.00000  Uiso   1.00
C340   C     0.20263   0.47563   0.32335   0.00000  Uiso   1.00
C341   C     0.14095   0.47549   0.27789   0.00000  Uiso   1.00
C342   C     0.11973   0.39380   0.25331   0.00000  Uiso   1.00
C343   C     0.33618   0.55751   0.35001   0.00000  Uiso   1.00
C344   C     0.38680   0.62620   0.32694   0.00000  Uiso   1.00
C345   C     0.47802   0.61343   0.32479   0.00000  Uiso   1.00
H346   H     0.33784   0.35131   0.40937   0.00000  Uiso   1.00
H347   H     0.27693   0.37244   0.51535   0.00000  Uiso   1.00
H348   H     0.25086   0.25439   0.33466   0.00000  Uiso   1.00
H349   H     0.49666   0.40507   0.38371   0.00000  Uiso   1.00
H350   H     0.19212   0.43054   0.62394   0.00000  Uiso   1.00
H351   H     0.13717   0.18163   0.24293   0.00000  Uiso   1.00
H352   H     0.65551   0.49937   0.34636   0.00000  Uiso   1.00
H353   H     0.20500   0.61864   0.34074   0.00000  Uiso   1.00
H354   H     0.13679   0.65444   0.44296   0.00000  Uiso   1.00
H355   H     0.11072   0.53638   0.26227   0.00000  Uiso   1.00
H356   H     0.35652   0.68707   0.31132   0.00000  Uiso   1.00
H357   H     0.07838   0.65942   0.56519   0.00000  Uiso   1.00
H358   H     0.02343   0.41050   0.18417   0.00000  Uiso   1.00
H359   H     0.54176   0.72825   0.28761   0.00000  Uiso   1.00
O360   O     0.09276   0.56369   0.66304   0.00000  Uiso   1.00
O361   O     0.02068   0.23713   0.16316   0.00000  Uiso   1.00
O362   O     0.70072   0.65400   0.29886   0.00000  Uiso   1.00
N363   N     0.17473   0.47950   0.59609   0.00000  Uiso   1.00
N364   N     0.12334   0.24678   0.23987   0.00000  Uiso   1.00
N365   N     0.60794   0.54384   0.33656   0.00000  Uiso   1.00
N366   N     0.11353   0.60266   0.56447   0.00000  Uiso   1.00
N367   N     0.06214   0.36994   0.20825   0.00000  Uiso   1.00
N368   N     0.54674   0.66699   0.30494   0.00000  Uiso   1.00
