data_job_03008
_audit_creation_date              2018-12-19
_audit_creation_method            'Materials Studio'
_symmetry_space_group_name_H-M    'P1'
_symmetry_Int_Tables_number       1
_symmetry_cell_setting            triclinic
loop_
_symmetry_equiv_pos_as_xyz
  x,y,z
_cell_length_a                    45.4155
_cell_length_b                    8.6034
_cell_length_c                    15.8364
_cell_angle_alpha                 90.0000
_cell_angle_beta                  85.1308
_cell_angle_gamma                 90.0000
loop_
_atom_site_label
_atom_site_type_symbol
_atom_site_fract_x
_atom_site_fract_y
_atom_site_fract_z
_atom_site_U_iso_or_equiv
_atom_site_adp_type
_atom_site_occupancy
C1     C     0.39194   0.63555   0.05989   0.00000  Uiso   1.00
C2     C     0.39061   0.67671   0.15380   0.00000  Uiso   1.00
C3     C     0.39485   0.82363   0.18685   0.00000  Uiso   1.00
C4     C     0.39273   0.83722   0.27451   0.00000  Uiso   1.00
C5     C     0.39162   0.92071   0.41232   0.00000  Uiso   1.00
C6     C     0.41508   0.50759   0.04619   0.00000  Uiso   1.00
C7     C     0.43991   0.51232   0.98875   0.00000  Uiso   1.00
C8     C     0.45839   0.38354   0.98582   0.00000  Uiso   1.00
C9     C     0.49527   0.20443   0.95651   0.00000  Uiso   1.00
C10    C     0.36237   0.55984   0.04611   0.00000  Uiso   1.00
C11    C     0.34287   0.60847   0.98858   0.00000  Uiso   1.00
C12    C     0.31697   0.52365   0.98557   0.00000  Uiso   1.00
C13    C     0.27199   0.42567   0.95614   0.00000  Uiso   1.00
C14    C     0.38062   0.39843   0.15681   0.00000  Uiso   1.00
C15    C     0.38446   0.54792   0.20644   0.00000  Uiso   1.00
C16    C     0.38233   0.56129   0.29408   0.00000  Uiso   1.00
C17    C     0.38657   0.70820   0.32725   0.00000  Uiso   1.00
C18    C     0.40894   0.37881   0.09883   0.00000  Uiso   1.00
C19    C     0.42739   0.24998   0.09598   0.00000  Uiso   1.00
C20    C     0.45224   0.25451   0.03856   0.00000  Uiso   1.00
C21    C     0.35622   0.43105   0.09875   0.00000  Uiso   1.00
C22    C     0.33034   0.34614   0.09582   0.00000  Uiso   1.00
C23    C     0.31081   0.39463   0.03831   0.00000  Uiso   1.00
H24    H     0.39672   0.73581   0.01890   0.00000  Uiso   1.00
H25    H     0.39961   0.92327   0.14608   0.00000  Uiso   1.00
H26    H     0.44466   0.61199   0.94801   0.00000  Uiso   1.00
H27    H     0.34763   0.70814   0.94785   0.00000  Uiso   1.00
H28    H     0.40011   0.07429   0.31030   0.00000  Uiso   1.00
H29    H     0.49510   0.41793   0.89264   0.00000  Uiso   1.00
H30    H     0.29049   0.62067   0.89230   0.00000  Uiso   1.00
H31    H     0.37583   0.29816   0.19780   0.00000  Uiso   1.00
H32    H     0.37757   0.46161   0.33480   0.00000  Uiso   1.00
H33    H     0.42262   0.15034   0.13673   0.00000  Uiso   1.00
H34    H     0.32559   0.24648   0.13657   0.00000  Uiso   1.00
H35    H     0.38223   0.69959   0.46348   0.00000  Uiso   1.00
H36    H     0.47721   0.04323   0.04580   0.00000  Uiso   1.00
H37    H     0.27260   0.24597   0.04547   0.00000  Uiso   1.00
O38    O     0.39270   0.00234   0.47379   0.00000  Uiso   1.00
O39    O     0.51731   0.14122   0.92581   0.00000  Uiso   1.00
O40    O     0.24888   0.40721   0.92537   0.00000  Uiso   1.00
N41    N     0.39566   0.96368   0.32755   0.00000  Uiso   1.00
N42    N     0.48446   0.35004   0.93707   0.00000  Uiso   1.00
N43    N     0.29318   0.53955   0.93673   0.00000  Uiso   1.00
N44    N     0.38603   0.76205   0.40997   0.00000  Uiso   1.00
N45    N     0.47484   0.14841   0.01948   0.00000  Uiso   1.00
N46    N     0.28355   0.33793   0.01915   0.00000  Uiso   1.00
C47    C     0.89194   0.13555   0.05989   0.00000  Uiso   1.00
C48    C     0.89061   0.17671   0.15380   0.00000  Uiso   1.00
C49    C     0.89485   0.32363   0.18685   0.00000  Uiso   1.00
C50    C     0.89273   0.33722   0.27451   0.00000  Uiso   1.00
C51    C     0.89162   0.42071   0.41232   0.00000  Uiso   1.00
C52    C     0.91508   0.00759   0.04619   0.00000  Uiso   1.00
C53    C     0.93991   0.01232   0.98875   0.00000  Uiso   1.00
C54    C     0.95839   0.88354   0.98582   0.00000  Uiso   1.00
C55    C     0.99527   0.70443   0.95651   0.00000  Uiso   1.00
C56    C     0.86237   0.05984   0.04611   0.00000  Uiso   1.00
C57    C     0.84287   0.10847   0.98858   0.00000  Uiso   1.00
C58    C     0.81697   0.02365   0.98557   0.00000  Uiso   1.00
C59    C     0.77199   0.92567   0.95614   0.00000  Uiso   1.00
C60    C     0.88062   0.89843   0.15681   0.00000  Uiso   1.00
C61    C     0.88446   0.04792   0.20644   0.00000  Uiso   1.00
C62    C     0.88233   0.06129   0.29408   0.00000  Uiso   1.00
C63    C     0.88657   0.20820   0.32725   0.00000  Uiso   1.00
C64    C     0.90894   0.87881   0.09883   0.00000  Uiso   1.00
C65    C     0.92739   0.74998   0.09598   0.00000  Uiso   1.00
C66    C     0.95224   0.75451   0.03856   0.00000  Uiso   1.00
C67    C     0.85622   0.93105   0.09875   0.00000  Uiso   1.00
C68    C     0.83034   0.84614   0.09582   0.00000  Uiso   1.00
C69    C     0.81081   0.89463   0.03831   0.00000  Uiso   1.00
H70    H     0.89672   0.23581   0.01890   0.00000  Uiso   1.00
H71    H     0.89961   0.42327   0.14608   0.00000  Uiso   1.00
H72    H     0.94466   0.11199   0.94801   0.00000  Uiso   1.00
H73    H     0.84763   0.20814   0.94785   0.00000  Uiso   1.00
H74    H     0.90011   0.57429   0.31030   0.00000  Uiso   1.00
H75    H     0.99510   0.91793   0.89264   0.00000  Uiso   1.00
H76    H     0.79049   0.12067   0.89230   0.00000  Uiso   1.00
H77    H     0.87583   0.79816   0.19780   0.00000  Uiso   1.00
H78    H     0.87757   0.96161   0.33480   0.00000  Uiso   1.00
H79    H     0.92262   0.65034   0.13673   0.00000  Uiso   1.00
H80    H     0.82559   0.74648   0.13657   0.00000  Uiso   1.00
H81    H     0.88223   0.19959   0.46348   0.00000  Uiso   1.00
H82    H     0.97721   0.54323   0.04580   0.00000  Uiso   1.00
H83    H     0.77260   0.74597   0.04547   0.00000  Uiso   1.00
O84    O     0.89270   0.50234   0.47379   0.00000  Uiso   1.00
O85    O     0.01731   0.64122   0.92581   0.00000  Uiso   1.00
O86    O     0.74888   0.90721   0.92537   0.00000  Uiso   1.00
N87    N     0.89566   0.46368   0.32755   0.00000  Uiso   1.00
N88    N     0.98446   0.85004   0.93707   0.00000  Uiso   1.00
N89    N     0.79318   0.03955   0.93673   0.00000  Uiso   1.00
N90    N     0.88603   0.26205   0.40997   0.00000  Uiso   1.00
N91    N     0.97484   0.64841   0.01948   0.00000  Uiso   1.00
N92    N     0.78355   0.83793   0.01915   0.00000  Uiso   1.00
C93    C     0.60806   0.63555   0.44011   0.00000  Uiso   1.00
C94    C     0.60939   0.67671   0.34620   0.00000  Uiso   1.00
C95    C     0.60515   0.82363   0.31315   0.00000  Uiso   1.00
C96    C     0.60727   0.83722   0.22549   0.00000  Uiso   1.00
C97    C     0.60838   0.92071   0.08768   0.00000  Uiso   1.00
C98    C     0.58492   0.50759   0.45381   0.00000  Uiso   1.00
C99    C     0.56009   0.51232   0.51125   0.00000  Uiso   1.00
C100   C     0.54161   0.38354   0.51418   0.00000  Uiso   1.00
C101   C     0.50473   0.20443   0.54349   0.00000  Uiso   1.00
C102   C     0.63763   0.55984   0.45389   0.00000  Uiso   1.00
C103   C     0.65713   0.60847   0.51142   0.00000  Uiso   1.00
C104   C     0.68303   0.52365   0.51443   0.00000  Uiso   1.00
C105   C     0.72801   0.42567   0.54386   0.00000  Uiso   1.00
C106   C     0.61938   0.39843   0.34319   0.00000  Uiso   1.00
C107   C     0.61554   0.54792   0.29356   0.00000  Uiso   1.00
C108   C     0.61767   0.56129   0.20592   0.00000  Uiso   1.00
C109   C     0.61343   0.70820   0.17275   0.00000  Uiso   1.00
C110   C     0.59106   0.37881   0.40117   0.00000  Uiso   1.00
C111   C     0.57261   0.24998   0.40402   0.00000  Uiso   1.00
C112   C     0.54776   0.25451   0.46144   0.00000  Uiso   1.00
C113   C     0.64378   0.43105   0.40125   0.00000  Uiso   1.00
C114   C     0.66966   0.34614   0.40418   0.00000  Uiso   1.00
C115   C     0.68919   0.39463   0.46169   0.00000  Uiso   1.00
H116   H     0.60328   0.73581   0.48110   0.00000  Uiso   1.00
H117   H     0.60039   0.92327   0.35392   0.00000  Uiso   1.00
H118   H     0.55534   0.61199   0.55199   0.00000  Uiso   1.00
H119   H     0.65237   0.70814   0.55215   0.00000  Uiso   1.00
H120   H     0.59989   0.07429   0.18970   0.00000  Uiso   1.00
H121   H     0.50490   0.41793   0.60736   0.00000  Uiso   1.00
H122   H     0.70951   0.62067   0.60770   0.00000  Uiso   1.00
H123   H     0.62417   0.29816   0.30220   0.00000  Uiso   1.00
H124   H     0.62243   0.46161   0.16520   0.00000  Uiso   1.00
H125   H     0.57738   0.15034   0.36327   0.00000  Uiso   1.00
H126   H     0.67441   0.24648   0.36343   0.00000  Uiso   1.00
H127   H     0.61777   0.69959   0.03652   0.00000  Uiso   1.00
H128   H     0.52279   0.04323   0.45420   0.00000  Uiso   1.00
H129   H     0.72740   0.24597   0.45453   0.00000  Uiso   1.00
O130   O     0.60730   0.00234   0.02621   0.00000  Uiso   1.00
O131   O     0.48269   0.14122   0.57419   0.00000  Uiso   1.00
O132   O     0.75112   0.40721   0.57463   0.00000  Uiso   1.00
N133   N     0.60434   0.96368   0.17245   0.00000  Uiso   1.00
N134   N     0.51554   0.35004   0.56293   0.00000  Uiso   1.00
N135   N     0.70682   0.53955   0.56327   0.00000  Uiso   1.00
N136   N     0.61397   0.76205   0.09003   0.00000  Uiso   1.00
N137   N     0.52516   0.14841   0.48052   0.00000  Uiso   1.00
N138   N     0.71645   0.33793   0.48085   0.00000  Uiso   1.00
C139   C     0.10806   0.13555   0.44011   0.00000  Uiso   1.00
C140   C     0.10939   0.17671   0.34620   0.00000  Uiso   1.00
C141   C     0.10515   0.32363   0.31315   0.00000  Uiso   1.00
C142   C     0.10727   0.33722   0.22549   0.00000  Uiso   1.00
C143   C     0.10838   0.42071   0.08768   0.00000  Uiso   1.00
C144   C     0.08492   0.00759   0.45381   0.00000  Uiso   1.00
C145   C     0.06009   0.01232   0.51125   0.00000  Uiso   1.00
C146   C     0.04161   0.88354   0.51418   0.00000  Uiso   1.00
C147   C     0.00473   0.70443   0.54349   0.00000  Uiso   1.00
C148   C     0.13763   0.05984   0.45389   0.00000  Uiso   1.00
C149   C     0.15713   0.10847   0.51142   0.00000  Uiso   1.00
C150   C     0.18303   0.02365   0.51443   0.00000  Uiso   1.00
C151   C     0.22801   0.92567   0.54386   0.00000  Uiso   1.00
C152   C     0.11938   0.89843   0.34319   0.00000  Uiso   1.00
C153   C     0.11554   0.04792   0.29356   0.00000  Uiso   1.00
C154   C     0.11767   0.06129   0.20592   0.00000  Uiso   1.00
C155   C     0.11343   0.20820   0.17275   0.00000  Uiso   1.00
C156   C     0.09106   0.87881   0.40117   0.00000  Uiso   1.00
C157   C     0.07261   0.74998   0.40402   0.00000  Uiso   1.00
C158   C     0.04776   0.75451   0.46144   0.00000  Uiso   1.00
C159   C     0.14378   0.93105   0.40125   0.00000  Uiso   1.00
C160   C     0.16966   0.84614   0.40418   0.00000  Uiso   1.00
C161   C     0.18919   0.89463   0.46169   0.00000  Uiso   1.00
H162   H     0.10328   0.23581   0.48110   0.00000  Uiso   1.00
H163   H     0.10039   0.42327   0.35392   0.00000  Uiso   1.00
H164   H     0.05534   0.11199   0.55199   0.00000  Uiso   1.00
H165   H     0.15237   0.20814   0.55215   0.00000  Uiso   1.00
H166   H     0.09989   0.57429   0.18970   0.00000  Uiso   1.00
H167   H     0.00490   0.91793   0.60736   0.00000  Uiso   1.00
H168   H     0.20951   0.12067   0.60770   0.00000  Uiso   1.00
H169   H     0.12417   0.79816   0.30220   0.00000  Uiso   1.00
H170   H     0.12243   0.96161   0.16520   0.00000  Uiso   1.00
H171   H     0.07738   0.65034   0.36327   0.00000  Uiso   1.00
H172   H     0.17441   0.74648   0.36343   0.00000  Uiso   1.00
H173   H     0.11777   0.19959   0.03652   0.00000  Uiso   1.00
H174   H     0.02279   0.54323   0.45420   0.00000  Uiso   1.00
H175   H     0.22740   0.74597   0.45453   0.00000  Uiso   1.00
O176   O     0.10730   0.50234   0.02621   0.00000  Uiso   1.00
O177   O     0.98269   0.64122   0.57419   0.00000  Uiso   1.00
O178   O     0.25112   0.90721   0.57463   0.00000  Uiso   1.00
N179   N     0.10434   0.46368   0.17245   0.00000  Uiso   1.00
N180   N     0.01554   0.85004   0.56293   0.00000  Uiso   1.00
N181   N     0.20682   0.03955   0.56327   0.00000  Uiso   1.00
N182   N     0.11397   0.26205   0.09003   0.00000  Uiso   1.00
N183   N     0.02516   0.64841   0.48052   0.00000  Uiso   1.00
N184   N     0.21645   0.83793   0.48085   0.00000  Uiso   1.00
C185   C     0.60806   0.36445   0.94011   0.00000  Uiso   1.00
C186   C     0.60939   0.32329   0.84620   0.00000  Uiso   1.00
C187   C     0.60515   0.17637   0.81315   0.00000  Uiso   1.00
C188   C     0.60727   0.16278   0.72549   0.00000  Uiso   1.00
C189   C     0.60838   0.07929   0.58768   0.00000  Uiso   1.00
C190   C     0.58492   0.49241   0.95381   0.00000  Uiso   1.00
C191   C     0.56009   0.48768   0.01125   0.00000  Uiso   1.00
C192   C     0.54161   0.61646   0.01418   0.00000  Uiso   1.00
C193   C     0.50473   0.79557   0.04349   0.00000  Uiso   1.00
C194   C     0.63763   0.44016   0.95389   0.00000  Uiso   1.00
C195   C     0.65713   0.39153   0.01142   0.00000  Uiso   1.00
C196   C     0.68303   0.47635   0.01443   0.00000  Uiso   1.00
C197   C     0.72801   0.57433   0.04386   0.00000  Uiso   1.00
C198   C     0.61938   0.60157   0.84319   0.00000  Uiso   1.00
C199   C     0.61554   0.45208   0.79356   0.00000  Uiso   1.00
C200   C     0.61767   0.43871   0.70592   0.00000  Uiso   1.00
C201   C     0.61343   0.29180   0.67275   0.00000  Uiso   1.00
C202   C     0.59106   0.62119   0.90117   0.00000  Uiso   1.00
C203   C     0.57261   0.75002   0.90402   0.00000  Uiso   1.00
C204   C     0.54776   0.74549   0.96144   0.00000  Uiso   1.00
C205   C     0.64378   0.56895   0.90125   0.00000  Uiso   1.00
C206   C     0.66966   0.65386   0.90418   0.00000  Uiso   1.00
C207   C     0.68919   0.60537   0.96169   0.00000  Uiso   1.00
H208   H     0.60328   0.26419   0.98110   0.00000  Uiso   1.00
H209   H     0.60039   0.07673   0.85392   0.00000  Uiso   1.00
H210   H     0.55534   0.38801   0.05199   0.00000  Uiso   1.00
H211   H     0.65237   0.29186   0.05215   0.00000  Uiso   1.00
H212   H     0.59989   0.92571   0.68970   0.00000  Uiso   1.00
H213   H     0.50490   0.58207   0.10736   0.00000  Uiso   1.00
H214   H     0.70951   0.37933   0.10770   0.00000  Uiso   1.00
H215   H     0.62417   0.70184   0.80220   0.00000  Uiso   1.00
H216   H     0.62243   0.53839   0.66520   0.00000  Uiso   1.00
H217   H     0.57738   0.84966   0.86327   0.00000  Uiso   1.00
H218   H     0.67441   0.75352   0.86343   0.00000  Uiso   1.00
H219   H     0.61777   0.30041   0.53652   0.00000  Uiso   1.00
H220   H     0.52279   0.95677   0.95420   0.00000  Uiso   1.00
H221   H     0.72740   0.75403   0.95453   0.00000  Uiso   1.00
O222   O     0.60730   0.99766   0.52621   0.00000  Uiso   1.00
O223   O     0.48269   0.85878   0.07419   0.00000  Uiso   1.00
O224   O     0.75112   0.59279   0.07463   0.00000  Uiso   1.00
N225   N     0.60434   0.03632   0.67245   0.00000  Uiso   1.00
N226   N     0.51554   0.64996   0.06293   0.00000  Uiso   1.00
N227   N     0.70682   0.46045   0.06327   0.00000  Uiso   1.00
N228   N     0.61397   0.23795   0.59003   0.00000  Uiso   1.00
N229   N     0.52516   0.85159   0.98052   0.00000  Uiso   1.00
N230   N     0.71645   0.66207   0.98085   0.00000  Uiso   1.00
C231   C     0.10806   0.86445   0.94011   0.00000  Uiso   1.00
C232   C     0.10939   0.82329   0.84620   0.00000  Uiso   1.00
C233   C     0.10515   0.67637   0.81315   0.00000  Uiso   1.00
C234   C     0.10727   0.66278   0.72549   0.00000  Uiso   1.00
C235   C     0.10838   0.57929   0.58768   0.00000  Uiso   1.00
C236   C     0.08492   0.99241   0.95381   0.00000  Uiso   1.00
C237   C     0.06009   0.98768   0.01125   0.00000  Uiso   1.00
C238   C     0.04161   0.11646   0.01418   0.00000  Uiso   1.00
C239   C     0.00473   0.29557   0.04349   0.00000  Uiso   1.00
C240   C     0.13763   0.94016   0.95389   0.00000  Uiso   1.00
C241   C     0.15713   0.89153   0.01142   0.00000  Uiso   1.00
C242   C     0.18303   0.97635   0.01443   0.00000  Uiso   1.00
C243   C     0.22801   0.07433   0.04386   0.00000  Uiso   1.00
C244   C     0.11938   0.10157   0.84319   0.00000  Uiso   1.00
C245   C     0.11554   0.95208   0.79356   0.00000  Uiso   1.00
C246   C     0.11767   0.93871   0.70592   0.00000  Uiso   1.00
C247   C     0.11343   0.79180   0.67275   0.00000  Uiso   1.00
C248   C     0.09106   0.12119   0.90117   0.00000  Uiso   1.00
C249   C     0.07261   0.25002   0.90402   0.00000  Uiso   1.00
C250   C     0.04776   0.24549   0.96144   0.00000  Uiso   1.00
C251   C     0.14378   0.06895   0.90125   0.00000  Uiso   1.00
C252   C     0.16966   0.15386   0.90418   0.00000  Uiso   1.00
C253   C     0.18919   0.10537   0.96169   0.00000  Uiso   1.00
H254   H     0.10328   0.76419   0.98110   0.00000  Uiso   1.00
H255   H     0.10039   0.57673   0.85392   0.00000  Uiso   1.00
H256   H     0.05534   0.88801   0.05199   0.00000  Uiso   1.00
H257   H     0.15237   0.79186   0.05215   0.00000  Uiso   1.00
H258   H     0.09989   0.42571   0.68970   0.00000  Uiso   1.00
H259   H     0.00490   0.08207   0.10736   0.00000  Uiso   1.00
H260   H     0.20951   0.87933   0.10770   0.00000  Uiso   1.00
H261   H     0.12417   0.20184   0.80220   0.00000  Uiso   1.00
H262   H     0.12243   0.03839   0.66520   0.00000  Uiso   1.00
H263   H     0.07738   0.34966   0.86327   0.00000  Uiso   1.00
H264   H     0.17441   0.25352   0.86343   0.00000  Uiso   1.00
H265   H     0.11777   0.80041   0.53652   0.00000  Uiso   1.00
H266   H     0.02279   0.45677   0.95420   0.00000  Uiso   1.00
H267   H     0.22740   0.25403   0.95453   0.00000  Uiso   1.00
O268   O     0.10730   0.49766   0.52621   0.00000  Uiso   1.00
O269   O     0.98269   0.35878   0.07419   0.00000  Uiso   1.00
O270   O     0.25112   0.09279   0.07463   0.00000  Uiso   1.00
N271   N     0.10434   0.53632   0.67245   0.00000  Uiso   1.00
N272   N     0.01554   0.14996   0.06293   0.00000  Uiso   1.00
N273   N     0.20682   0.96045   0.06327   0.00000  Uiso   1.00
N274   N     0.11397   0.73795   0.59003   0.00000  Uiso   1.00
N275   N     0.02516   0.35159   0.98052   0.00000  Uiso   1.00
N276   N     0.21645   0.16207   0.98085   0.00000  Uiso   1.00
C277   C     0.39194   0.36445   0.55989   0.00000  Uiso   1.00
C278   C     0.39061   0.32329   0.65380   0.00000  Uiso   1.00
C279   C     0.39485   0.17637   0.68685   0.00000  Uiso   1.00
C280   C     0.39273   0.16278   0.77451   0.00000  Uiso   1.00
C281   C     0.39162   0.07929   0.91232   0.00000  Uiso   1.00
C282   C     0.41508   0.49241   0.54619   0.00000  Uiso   1.00
C283   C     0.43991   0.48768   0.48875   0.00000  Uiso   1.00
C284   C     0.45839   0.61646   0.48582   0.00000  Uiso   1.00
C285   C     0.49527   0.79557   0.45651   0.00000  Uiso   1.00
C286   C     0.36237   0.44016   0.54611   0.00000  Uiso   1.00
C287   C     0.34287   0.39153   0.48858   0.00000  Uiso   1.00
C288   C     0.31697   0.47635   0.48557   0.00000  Uiso   1.00
C289   C     0.27199   0.57433   0.45614   0.00000  Uiso   1.00
C290   C     0.38062   0.60157   0.65681   0.00000  Uiso   1.00
C291   C     0.38446   0.45208   0.70644   0.00000  Uiso   1.00
C292   C     0.38233   0.43871   0.79408   0.00000  Uiso   1.00
C293   C     0.38657   0.29180   0.82725   0.00000  Uiso   1.00
C294   C     0.40894   0.62119   0.59883   0.00000  Uiso   1.00
C295   C     0.42739   0.75002   0.59598   0.00000  Uiso   1.00
C296   C     0.45224   0.74549   0.53856   0.00000  Uiso   1.00
C297   C     0.35622   0.56895   0.59875   0.00000  Uiso   1.00
C298   C     0.33034   0.65386   0.59582   0.00000  Uiso   1.00
C299   C     0.31081   0.60537   0.53831   0.00000  Uiso   1.00
H300   H     0.39672   0.26419   0.51890   0.00000  Uiso   1.00
H301   H     0.39961   0.07673   0.64608   0.00000  Uiso   1.00
H302   H     0.44466   0.38801   0.44801   0.00000  Uiso   1.00
H303   H     0.34763   0.29186   0.44785   0.00000  Uiso   1.00
H304   H     0.40011   0.92571   0.81030   0.00000  Uiso   1.00
H305   H     0.49510   0.58207   0.39264   0.00000  Uiso   1.00
H306   H     0.29049   0.37933   0.39230   0.00000  Uiso   1.00
H307   H     0.37583   0.70184   0.69780   0.00000  Uiso   1.00
H308   H     0.37757   0.53839   0.83480   0.00000  Uiso   1.00
H309   H     0.42262   0.84966   0.63673   0.00000  Uiso   1.00
H310   H     0.32559   0.75352   0.63657   0.00000  Uiso   1.00
H311   H     0.38223   0.30041   0.96348   0.00000  Uiso   1.00
H312   H     0.47721   0.95677   0.54580   0.00000  Uiso   1.00
H313   H     0.27260   0.75403   0.54547   0.00000  Uiso   1.00
O314   O     0.39270   0.99766   0.97379   0.00000  Uiso   1.00
O315   O     0.51731   0.85878   0.42581   0.00000  Uiso   1.00
O316   O     0.24888   0.59279   0.42537   0.00000  Uiso   1.00
N317   N     0.39566   0.03632   0.82755   0.00000  Uiso   1.00
N318   N     0.48446   0.64996   0.43707   0.00000  Uiso   1.00
N319   N     0.29318   0.46045   0.43673   0.00000  Uiso   1.00
N320   N     0.38603   0.23795   0.90997   0.00000  Uiso   1.00
N321   N     0.47484   0.85159   0.51948   0.00000  Uiso   1.00
N322   N     0.28355   0.66207   0.51915   0.00000  Uiso   1.00
C323   C     0.89194   0.86445   0.55989   0.00000  Uiso   1.00
C324   C     0.89061   0.82329   0.65380   0.00000  Uiso   1.00
C325   C     0.89485   0.67637   0.68685   0.00000  Uiso   1.00
C326   C     0.89273   0.66278   0.77451   0.00000  Uiso   1.00
C327   C     0.89162   0.57929   0.91232   0.00000  Uiso   1.00
C328   C     0.91508   0.99241   0.54619   0.00000  Uiso   1.00
C329   C     0.93991   0.98768   0.48875   0.00000  Uiso   1.00
C330   C     0.95839   0.11646   0.48582   0.00000  Uiso   1.00
C331   C     0.99527   0.29557   0.45651   0.00000  Uiso   1.00
C332   C     0.86237   0.94016   0.54611   0.00000  Uiso   1.00
C333   C     0.84287   0.89153   0.48858   0.00000  Uiso   1.00
C334   C     0.81697   0.97635   0.48557   0.00000  Uiso   1.00
C335   C     0.77199   0.07433   0.45614   0.00000  Uiso   1.00
C336   C     0.88062   0.10157   0.65681   0.00000  Uiso   1.00
C337   C     0.88446   0.95208   0.70644   0.00000  Uiso   1.00
C338   C     0.88233   0.93871   0.79408   0.00000  Uiso   1.00
C339   C     0.88657   0.79180   0.82725   0.00000  Uiso   1.00
C340   C     0.90894   0.12119   0.59883   0.00000  Uiso   1.00
C341   C     0.92739   0.25002   0.59598   0.00000  Uiso   1.00
C342   C     0.95224   0.24549   0.53856   0.00000  Uiso   1.00
C343   C     0.85622   0.06895   0.59875   0.00000  Uiso   1.00
C344   C     0.83034   0.15386   0.59582   0.00000  Uiso   1.00
C345   C     0.81081   0.10537   0.53831   0.00000  Uiso   1.00
H346   H     0.89672   0.76419   0.51890   0.00000  Uiso   1.00
H347   H     0.89961   0.57673   0.64608   0.00000  Uiso   1.00
H348   H     0.94466   0.88801   0.44801   0.00000  Uiso   1.00
H349   H     0.84763   0.79186   0.44785   0.00000  Uiso   1.00
H350   H     0.90011   0.42571   0.81030   0.00000  Uiso   1.00
H351   H     0.99510   0.08207   0.39264   0.00000  Uiso   1.00
H352   H     0.79049   0.87933   0.39230   0.00000  Uiso   1.00
H353   H     0.87583   0.20184   0.69780   0.00000  Uiso   1.00
H354   H     0.87757   0.03839   0.83480   0.00000  Uiso   1.00
H355   H     0.92262   0.34966   0.63673   0.00000  Uiso   1.00
H356   H     0.82559   0.25352   0.63657   0.00000  Uiso   1.00
H357   H     0.88223   0.80041   0.96348   0.00000  Uiso   1.00
H358   H     0.97721   0.45677   0.54580   0.00000  Uiso   1.00
H359   H     0.77260   0.25403   0.54547   0.00000  Uiso   1.00
O360   O     0.89270   0.49766   0.97379   0.00000  Uiso   1.00
O361   O     0.01731   0.35878   0.42581   0.00000  Uiso   1.00
O362   O     0.74888   0.09279   0.42537   0.00000  Uiso   1.00
N363   N     0.89566   0.53632   0.82755   0.00000  Uiso   1.00
N364   N     0.98446   0.14996   0.43707   0.00000  Uiso   1.00
N365   N     0.79318   0.96045   0.43673   0.00000  Uiso   1.00
N366   N     0.88603   0.73795   0.90997   0.00000  Uiso   1.00
N367   N     0.97484   0.35159   0.51948   0.00000  Uiso   1.00
N368   N     0.78355   0.16207   0.51915   0.00000  Uiso   1.00
