data_job_02803
_audit_creation_date              2018-12-19
_audit_creation_method            'Materials Studio'
_symmetry_space_group_name_H-M    'P1'
_symmetry_Int_Tables_number       1
_symmetry_cell_setting            triclinic
loop_
_symmetry_equiv_pos_as_xyz
  x,y,z
_cell_length_a                    7.4953
_cell_length_b                    29.5205
_cell_length_c                    12.2308
_cell_angle_alpha                 90.0000
_cell_angle_beta                  73.0580
_cell_angle_gamma                 90.0000
loop_
_atom_site_label
_atom_site_type_symbol
_atom_site_fract_x
_atom_site_fract_y
_atom_site_fract_z
_atom_site_U_iso_or_equiv
_atom_site_adp_type
_atom_site_occupancy
C1     C     0.69696   0.67389   0.04532   0.00000  Uiso   1.00
C2     C     0.86736   0.69939   0.05708   0.00000  Uiso   1.00
C3     C     0.87937   0.74586   0.07050   0.00000  Uiso   1.00
C4     C     0.04745   0.76263   0.07972   0.00000  Uiso   1.00
C5     C     0.28917   0.80659   0.09854   0.00000  Uiso   1.00
C6     C     0.76257   0.64756   0.93347   0.00000  Uiso   1.00
C7     C     0.68643   0.65046   0.84298   0.00000  Uiso   1.00
C8     C     0.76628   0.62360   0.74814   0.00000  Uiso   1.00
C9     C     0.84521   0.58707   0.57509   0.00000  Uiso   1.00
C10    C     0.65089   0.63851   0.14026   0.00000  Uiso   1.00
C11    C     0.48085   0.63378   0.22362   0.00000  Uiso   1.00
C12    C     0.46666   0.59928   0.30288   0.00000  Uiso   1.00
C13    C     0.37220   0.54869   0.45090   0.00000  Uiso   1.00
C14    C     0.97411   0.62103   0.03782   0.00000  Uiso   1.00
C15    C     0.01790   0.67068   0.05300   0.00000  Uiso   1.00
C16    C     0.18600   0.68738   0.06221   0.00000  Uiso   1.00
C17    C     0.19825   0.73387   0.07564   0.00000  Uiso   1.00
C18    C     0.91310   0.61885   0.92940   0.00000  Uiso   1.00
C19    C     0.99307   0.59198   0.83468   0.00000  Uiso   1.00
C20    C     0.91709   0.59483   0.74406   0.00000  Uiso   1.00
C21    C     0.80143   0.60979   0.13619   0.00000  Uiso   1.00
C22    C     0.78749   0.57530   0.21533   0.00000  Uiso   1.00
C23    C     0.61747   0.57052   0.29880   0.00000  Uiso   1.00
H24    H     0.57977   0.69625   0.04849   0.00000  Uiso   1.00
H25    H     0.76284   0.76807   0.07364   0.00000  Uiso   1.00
H26    H     0.56993   0.67268   0.84616   0.00000  Uiso   1.00
H27    H     0.36439   0.65600   0.22675   0.00000  Uiso   1.00
H28    H     0.03223   0.83504   0.09969   0.00000  Uiso   1.00
H29    H     0.62542   0.63389   0.62004   0.00000  Uiso   1.00
H30    H     0.19198   0.59873   0.42259   0.00000  Uiso   1.00
H31    H     0.09131   0.59868   0.03465   0.00000  Uiso   1.00
H32    H     0.30247   0.66515   0.05905   0.00000  Uiso   1.00
H33    H     0.10955   0.56976   0.83156   0.00000  Uiso   1.00
H34    H     0.90401   0.55308   0.21215   0.00000  Uiso   1.00
H35    H     0.47022   0.75151   0.08784   0.00000  Uiso   1.00
H36    H     0.06340   0.55036   0.60819   0.00000  Uiso   1.00
H37    H     0.62997   0.51519   0.41074   0.00000  Uiso   1.00
O38    O     0.38092   0.83877   0.11003   0.00000  Uiso   1.00
O39    O     0.84717   0.57486   0.48076   0.00000  Uiso   1.00
O40    O     0.27852   0.52872   0.53368   0.00000  Uiso   1.00
N41    N     0.10632   0.80626   0.09358   0.00000  Uiso   1.00
N42    N     0.72600   0.61820   0.64513   0.00000  Uiso   1.00
N43    N     0.32075   0.58532   0.39542   0.00000  Uiso   1.00
N44    N     0.34200   0.76131   0.08720   0.00000  Uiso   1.00
N45    N     0.96167   0.57325   0.63875   0.00000  Uiso   1.00
N46    N     0.55643   0.54037   0.38905   0.00000  Uiso   1.00
C47    C     0.30304   0.17389   0.45468   0.00000  Uiso   1.00
C48    C     0.13264   0.19939   0.44292   0.00000  Uiso   1.00
C49    C     0.12063   0.24586   0.42950   0.00000  Uiso   1.00
C50    C     0.95255   0.26263   0.42028   0.00000  Uiso   1.00
C51    C     0.71083   0.30659   0.40146   0.00000  Uiso   1.00
C52    C     0.23743   0.14756   0.56653   0.00000  Uiso   1.00
C53    C     0.31357   0.15046   0.65702   0.00000  Uiso   1.00
C54    C     0.23372   0.12360   0.75186   0.00000  Uiso   1.00
C55    C     0.15479   0.08707   0.92491   0.00000  Uiso   1.00
C56    C     0.34911   0.13851   0.35974   0.00000  Uiso   1.00
C57    C     0.51915   0.13378   0.27638   0.00000  Uiso   1.00
C58    C     0.53334   0.09928   0.19712   0.00000  Uiso   1.00
C59    C     0.62780   0.04869   0.04910   0.00000  Uiso   1.00
C60    C     0.02589   0.12103   0.46218   0.00000  Uiso   1.00
C61    C     0.98210   0.17068   0.44700   0.00000  Uiso   1.00
C62    C     0.81400   0.18738   0.43779   0.00000  Uiso   1.00
C63    C     0.80175   0.23387   0.42436   0.00000  Uiso   1.00
C64    C     0.08690   0.11885   0.57060   0.00000  Uiso   1.00
C65    C     0.00693   0.09198   0.66532   0.00000  Uiso   1.00
C66    C     0.08291   0.09483   0.75594   0.00000  Uiso   1.00
C67    C     0.19857   0.10979   0.36381   0.00000  Uiso   1.00
C68    C     0.21251   0.07530   0.28467   0.00000  Uiso   1.00
C69    C     0.38253   0.07052   0.20120   0.00000  Uiso   1.00
H70    H     0.42023   0.19625   0.45151   0.00000  Uiso   1.00
H71    H     0.23716   0.26807   0.42636   0.00000  Uiso   1.00
H72    H     0.43007   0.17268   0.65384   0.00000  Uiso   1.00
H73    H     0.63561   0.15600   0.27325   0.00000  Uiso   1.00
H74    H     0.96777   0.33504   0.40031   0.00000  Uiso   1.00
H75    H     0.37458   0.13389   0.87996   0.00000  Uiso   1.00
H76    H     0.80802   0.09873   0.07741   0.00000  Uiso   1.00
H77    H     0.90869   0.09868   0.46535   0.00000  Uiso   1.00
H78    H     0.69753   0.16515   0.44095   0.00000  Uiso   1.00
H79    H     0.89045   0.06976   0.66844   0.00000  Uiso   1.00
H80    H     0.09599   0.05308   0.28785   0.00000  Uiso   1.00
H81    H     0.52978   0.25151   0.41216   0.00000  Uiso   1.00
H82    H     0.93660   0.05036   0.89181   0.00000  Uiso   1.00
H83    H     0.37003   0.01519   0.08926   0.00000  Uiso   1.00
O84    O     0.61908   0.33877   0.38997   0.00000  Uiso   1.00
O85    O     0.15283   0.07486   0.01924   0.00000  Uiso   1.00
O86    O     0.72148   0.02872   0.96632   0.00000  Uiso   1.00
N87    N     0.89368   0.30626   0.40642   0.00000  Uiso   1.00
N88    N     0.27400   0.11820   0.85487   0.00000  Uiso   1.00
N89    N     0.67925   0.08532   0.10458   0.00000  Uiso   1.00
N90    N     0.65800   0.26131   0.41280   0.00000  Uiso   1.00
N91    N     0.03833   0.07325   0.86125   0.00000  Uiso   1.00
N92    N     0.44357   0.04037   0.11095   0.00000  Uiso   1.00
C93    C     0.30304   0.32611   0.95468   0.00000  Uiso   1.00
C94    C     0.13264   0.30061   0.94292   0.00000  Uiso   1.00
C95    C     0.12063   0.25414   0.92950   0.00000  Uiso   1.00
C96    C     0.95255   0.23737   0.92028   0.00000  Uiso   1.00
C97    C     0.71083   0.19341   0.90146   0.00000  Uiso   1.00
C98    C     0.23743   0.35244   0.06653   0.00000  Uiso   1.00
C99    C     0.31357   0.34954   0.15702   0.00000  Uiso   1.00
C100   C     0.23372   0.37640   0.25186   0.00000  Uiso   1.00
C101   C     0.15479   0.41293   0.42491   0.00000  Uiso   1.00
C102   C     0.34911   0.36149   0.85974   0.00000  Uiso   1.00
C103   C     0.51915   0.36622   0.77638   0.00000  Uiso   1.00
C104   C     0.53334   0.40072   0.69712   0.00000  Uiso   1.00
C105   C     0.62780   0.45131   0.54910   0.00000  Uiso   1.00
C106   C     0.02589   0.37897   0.96218   0.00000  Uiso   1.00
C107   C     0.98210   0.32932   0.94700   0.00000  Uiso   1.00
C108   C     0.81400   0.31262   0.93779   0.00000  Uiso   1.00
C109   C     0.80175   0.26613   0.92436   0.00000  Uiso   1.00
C110   C     0.08690   0.38115   0.07060   0.00000  Uiso   1.00
C111   C     0.00693   0.40802   0.16532   0.00000  Uiso   1.00
C112   C     0.08291   0.40517   0.25594   0.00000  Uiso   1.00
C113   C     0.19857   0.39021   0.86381   0.00000  Uiso   1.00
C114   C     0.21251   0.42470   0.78467   0.00000  Uiso   1.00
C115   C     0.38253   0.42948   0.70120   0.00000  Uiso   1.00
H116   H     0.42023   0.30375   0.95151   0.00000  Uiso   1.00
H117   H     0.23716   0.23193   0.92636   0.00000  Uiso   1.00
H118   H     0.43007   0.32732   0.15384   0.00000  Uiso   1.00
H119   H     0.63561   0.34400   0.77325   0.00000  Uiso   1.00
H120   H     0.96777   0.16496   0.90031   0.00000  Uiso   1.00
H121   H     0.37458   0.36611   0.37996   0.00000  Uiso   1.00
H122   H     0.80802   0.40127   0.57741   0.00000  Uiso   1.00
H123   H     0.90869   0.40132   0.96535   0.00000  Uiso   1.00
H124   H     0.69753   0.33485   0.94095   0.00000  Uiso   1.00
H125   H     0.89045   0.43024   0.16844   0.00000  Uiso   1.00
H126   H     0.09599   0.44692   0.78785   0.00000  Uiso   1.00
H127   H     0.52978   0.24849   0.91216   0.00000  Uiso   1.00
H128   H     0.93660   0.44964   0.39181   0.00000  Uiso   1.00
H129   H     0.37003   0.48481   0.58926   0.00000  Uiso   1.00
O130   O     0.61908   0.16123   0.88997   0.00000  Uiso   1.00
O131   O     0.15283   0.42514   0.51924   0.00000  Uiso   1.00
O132   O     0.72148   0.47128   0.46632   0.00000  Uiso   1.00
N133   N     0.89368   0.19374   0.90642   0.00000  Uiso   1.00
N134   N     0.27400   0.38180   0.35487   0.00000  Uiso   1.00
N135   N     0.67925   0.41468   0.60458   0.00000  Uiso   1.00
N136   N     0.65800   0.23869   0.91280   0.00000  Uiso   1.00
N137   N     0.03833   0.42675   0.36125   0.00000  Uiso   1.00
N138   N     0.44357   0.45963   0.61095   0.00000  Uiso   1.00
C139   C     0.69696   0.82611   0.54532   0.00000  Uiso   1.00
C140   C     0.86736   0.80061   0.55708   0.00000  Uiso   1.00
C141   C     0.87937   0.75414   0.57050   0.00000  Uiso   1.00
C142   C     0.04745   0.73737   0.57972   0.00000  Uiso   1.00
C143   C     0.28917   0.69341   0.59854   0.00000  Uiso   1.00
C144   C     0.76257   0.85244   0.43347   0.00000  Uiso   1.00
C145   C     0.68643   0.84954   0.34298   0.00000  Uiso   1.00
C146   C     0.76628   0.87640   0.24814   0.00000  Uiso   1.00
C147   C     0.84521   0.91293   0.07509   0.00000  Uiso   1.00
C148   C     0.65089   0.86149   0.64026   0.00000  Uiso   1.00
C149   C     0.48085   0.86622   0.72362   0.00000  Uiso   1.00
C150   C     0.46666   0.90072   0.80288   0.00000  Uiso   1.00
C151   C     0.37220   0.95131   0.95090   0.00000  Uiso   1.00
C152   C     0.97411   0.87897   0.53782   0.00000  Uiso   1.00
C153   C     0.01790   0.82932   0.55300   0.00000  Uiso   1.00
C154   C     0.18600   0.81262   0.56221   0.00000  Uiso   1.00
C155   C     0.19825   0.76613   0.57564   0.00000  Uiso   1.00
C156   C     0.91310   0.88115   0.42940   0.00000  Uiso   1.00
C157   C     0.99307   0.90802   0.33468   0.00000  Uiso   1.00
C158   C     0.91709   0.90517   0.24406   0.00000  Uiso   1.00
C159   C     0.80143   0.89021   0.63619   0.00000  Uiso   1.00
C160   C     0.78749   0.92470   0.71533   0.00000  Uiso   1.00
C161   C     0.61747   0.92948   0.79880   0.00000  Uiso   1.00
H162   H     0.57977   0.80375   0.54849   0.00000  Uiso   1.00
H163   H     0.76284   0.73193   0.57364   0.00000  Uiso   1.00
H164   H     0.56993   0.82732   0.34616   0.00000  Uiso   1.00
H165   H     0.36439   0.84400   0.72675   0.00000  Uiso   1.00
H166   H     0.03223   0.66496   0.59969   0.00000  Uiso   1.00
H167   H     0.62542   0.86611   0.12004   0.00000  Uiso   1.00
H168   H     0.19198   0.90127   0.92259   0.00000  Uiso   1.00
H169   H     0.09131   0.90132   0.53465   0.00000  Uiso   1.00
H170   H     0.30247   0.83485   0.55905   0.00000  Uiso   1.00
H171   H     0.10955   0.93024   0.33156   0.00000  Uiso   1.00
H172   H     0.90401   0.94692   0.71215   0.00000  Uiso   1.00
H173   H     0.47022   0.74849   0.58784   0.00000  Uiso   1.00
H174   H     0.06340   0.94964   0.10819   0.00000  Uiso   1.00
H175   H     0.62997   0.98481   0.91074   0.00000  Uiso   1.00
O176   O     0.38092   0.66123   0.61003   0.00000  Uiso   1.00
O177   O     0.84717   0.92514   0.98076   0.00000  Uiso   1.00
O178   O     0.27852   0.97128   0.03368   0.00000  Uiso   1.00
N179   N     0.10632   0.69374   0.59358   0.00000  Uiso   1.00
N180   N     0.72600   0.88180   0.14513   0.00000  Uiso   1.00
N181   N     0.32075   0.91468   0.89542   0.00000  Uiso   1.00
N182   N     0.34200   0.73869   0.58720   0.00000  Uiso   1.00
N183   N     0.96167   0.92675   0.13875   0.00000  Uiso   1.00
N184   N     0.55643   0.95963   0.88905   0.00000  Uiso   1.00
