data_job_03562
_audit_creation_date              2018-12-19
_audit_creation_method            'Materials Studio'
_symmetry_space_group_name_H-M    'P1'
_symmetry_Int_Tables_number       1
_symmetry_cell_setting            triclinic
loop_
_symmetry_equiv_pos_as_xyz
  x,y,z
_cell_length_a                    24.7661
_cell_length_b                    25.2370
_cell_length_c                    9.6259
_cell_angle_alpha                 90.0000
_cell_angle_beta                  93.5403
_cell_angle_gamma                 90.0000
loop_
_atom_site_label
_atom_site_type_symbol
_atom_site_fract_x
_atom_site_fract_y
_atom_site_fract_z
_atom_site_U_iso_or_equiv
_atom_site_adp_type
_atom_site_occupancy
C1     C     0.29150   0.86559   0.21443   0.00000  Uiso   1.00
C2     C     0.23217   0.87869   0.23148   0.00000  Uiso   1.00
C3     C     0.19961   0.85572   0.32714   0.00000  Uiso   1.00
C4     C     0.14641   0.87312   0.32623   0.00000  Uiso   1.00
C5     C     0.05729   0.88752   0.36685   0.00000  Uiso   1.00
C6     C     0.29518   0.84938   0.06269   0.00000  Uiso   1.00
C7     C     0.31560   0.80177   0.01643   0.00000  Uiso   1.00
C8     C     0.31545   0.79449   0.87343   0.00000  Uiso   1.00
C9     C     0.32420   0.76340   0.65200   0.00000  Uiso   1.00
C10    C     0.32208   0.91786   0.23143   0.00000  Uiso   1.00
C11    C     0.36514   0.92782   0.32703   0.00000  Uiso   1.00
C12    C     0.38765   0.97820   0.32608   0.00000  Uiso   1.00
C13    C     0.43816   0.05343   0.36665   0.00000  Uiso   1.00
C14    C     0.25491   0.93735   0.04271   0.00000  Uiso   1.00
C15    C     0.21229   0.91767   0.13820   0.00000  Uiso   1.00
C16    C     0.15913   0.93511   0.13716   0.00000  Uiso   1.00
C17    C     0.12650   0.91216   0.23280   0.00000  Uiso   1.00
C18    C     0.27530   0.88836   0.96942   0.00000  Uiso   1.00
C19    C     0.27512   0.88115   0.82645   0.00000  Uiso   1.00
C20    C     0.29554   0.83354   0.77999   0.00000  Uiso   1.00
C21    C     0.30221   0.95684   0.13816   0.00000  Uiso   1.00
C22    C     0.32465   0.00721   0.13705   0.00000  Uiso   1.00
C23    C     0.36774   0.01724   0.23264   0.00000  Uiso   1.00
H24    H     0.30697   0.83524   0.28703   0.00000  Uiso   1.00
H25    H     0.21500   0.82555   0.39929   0.00000  Uiso   1.00
H26    H     0.33099   0.77161   0.08863   0.00000  Uiso   1.00
H27    H     0.38051   0.89765   0.39919   0.00000  Uiso   1.00
H28    H     0.10427   0.83199   0.48259   0.00000  Uiso   1.00
H29    H     0.34884   0.71826   0.82755   0.00000  Uiso   1.00
H30    H     0.45327   0.98402   0.48241   0.00000  Uiso   1.00
H31    H     0.23944   0.96769   0.97009   0.00000  Uiso   1.00
H32    H     0.14376   0.96527   0.06497   0.00000  Uiso   1.00
H33    H     0.25974   0.91133   0.75431   0.00000  Uiso   1.00
H34    H     0.30926   0.03736   0.06486   0.00000  Uiso   1.00
H35    H     0.04644   0.94538   0.21123   0.00000  Uiso   1.00
H36    H     0.29102   0.83165   0.55619   0.00000  Uiso   1.00
H37    H     0.39544   0.09742   0.21106   0.00000  Uiso   1.00
O38    O     0.01363   0.88469   0.41500   0.00000  Uiso   1.00
O39    O     0.33451   0.73548   0.55563   0.00000  Uiso   1.00
O40    O     0.47151   0.08416   0.41480   0.00000  Uiso   1.00
N41    N     0.10379   0.85901   0.40572   0.00000  Uiso   1.00
N42    N     0.33244   0.75268   0.79330   0.00000  Uiso   1.00
N43    N     0.43009   0.00114   0.40552   0.00000  Uiso   1.00
N44    N     0.07268   0.92003   0.25971   0.00000  Uiso   1.00
N45    N     0.30133   0.81370   0.64729   0.00000  Uiso   1.00
N46    N     0.39897   0.06216   0.25951   0.00000  Uiso   1.00
C47    C     0.71585   0.87822   0.31684   0.00000  Uiso   1.00
C48    C     0.77073   0.90272   0.29217   0.00000  Uiso   1.00
C49    C     0.80704   0.88432   0.19916   0.00000  Uiso   1.00
C50    C     0.85509   0.91225   0.19197   0.00000  Uiso   1.00
C51    C     0.93859   0.94347   0.14111   0.00000  Uiso   1.00
C52    C     0.71668   0.86605   0.47213   0.00000  Uiso   1.00
C53    C     0.70754   0.81680   0.53041   0.00000  Uiso   1.00
C54    C     0.71008   0.81387   0.67471   0.00000  Uiso   1.00
C55    C     0.70963   0.78816   0.90323   0.00000  Uiso   1.00
C56    C     0.67437   0.92232   0.29081   0.00000  Uiso   1.00
C57    C     0.62965   0.92039   0.19667   0.00000  Uiso   1.00
C58    C     0.59656   0.96483   0.18833   0.00000  Uiso   1.00
C59    C     0.53042   0.02650   0.13533   0.00000  Uiso   1.00
C60    C     0.73659   0.96057   0.46946   0.00000  Uiso   1.00
C61    C     0.78199   0.94745   0.37508   0.00000  Uiso   1.00
C62    C     0.82999   0.97542   0.36801   0.00000  Uiso   1.00
C63    C     0.86637   0.95706   0.27500   0.00000  Uiso   1.00
C64    C     0.72794   0.91078   0.55502   0.00000  Uiso   1.00
C65    C     0.73049   0.90791   0.69926   0.00000  Uiso   1.00
C66    C     0.72136   0.85868   0.75775   0.00000  Uiso   1.00
C67    C     0.68563   0.96705   0.37370   0.00000  Uiso   1.00
C68    C     0.65260   0.01150   0.36552   0.00000  Uiso   1.00
C69    C     0.60784   0.00964   0.27138   0.00000  Uiso   1.00
H70    H     0.70708   0.84340   0.25231   0.00000  Uiso   1.00
H71    H     0.79832   0.84970   0.13504   0.00000  Uiso   1.00
H72    H     0.69882   0.78220   0.46624   0.00000  Uiso   1.00
H73    H     0.62095   0.88577   0.13254   0.00000  Uiso   1.00
H74    H     0.90444   0.87639   0.04162   0.00000  Uiso   1.00
H75    H     0.69464   0.73407   0.73997   0.00000  Uiso   1.00
H76    H     0.53042   0.95248   0.03631   0.00000  Uiso   1.00
H77    H     0.74536   0.99539   0.53400   0.00000  Uiso   1.00
H78    H     0.83869   0.01004   0.43218   0.00000  Uiso   1.00
H79    H     0.73920   0.94254   0.76338   0.00000  Uiso   1.00
H80    H     0.66133   0.04611   0.42968   0.00000  Uiso   1.00
H81    H     0.93721   0.00653   0.28279   0.00000  Uiso   1.00
H82    H     0.72741   0.86421   0.98114   0.00000  Uiso   1.00
H83    H     0.56320   0.08261   0.27748   0.00000  Uiso   1.00
O84    O     0.98154   0.94834   0.09017   0.00000  Uiso   1.00
O85    O     0.70628   0.76162   0.00637   0.00000  Uiso   1.00
O86    O     0.49084   0.04816   0.08319   0.00000  Uiso   1.00
N87    N     0.89934   0.90502   0.11233   0.00000  Uiso   1.00
N88    N     0.70319   0.77196   0.76524   0.00000  Uiso   1.00
N89    N     0.54966   0.97614   0.10741   0.00000  Uiso   1.00
N90    N     0.91697   0.97504   0.24210   0.00000  Uiso   1.00
N91    N     0.72083   0.84198   0.89502   0.00000  Uiso   1.00
N92    N     0.56729   0.04616   0.23718   0.00000  Uiso   1.00
C93    C     0.79150   0.36559   0.21443   0.00000  Uiso   1.00
C94    C     0.73217   0.37869   0.23148   0.00000  Uiso   1.00
C95    C     0.69961   0.35572   0.32714   0.00000  Uiso   1.00
C96    C     0.64641   0.37312   0.32623   0.00000  Uiso   1.00
C97    C     0.55729   0.38752   0.36685   0.00000  Uiso   1.00
C98    C     0.79518   0.34938   0.06269   0.00000  Uiso   1.00
C99    C     0.81560   0.30177   0.01643   0.00000  Uiso   1.00
C100   C     0.81545   0.29449   0.87343   0.00000  Uiso   1.00
C101   C     0.82420   0.26340   0.65200   0.00000  Uiso   1.00
C102   C     0.82208   0.41786   0.23143   0.00000  Uiso   1.00
C103   C     0.86514   0.42782   0.32703   0.00000  Uiso   1.00
C104   C     0.88765   0.47820   0.32608   0.00000  Uiso   1.00
C105   C     0.93816   0.55343   0.36665   0.00000  Uiso   1.00
C106   C     0.75491   0.43735   0.04271   0.00000  Uiso   1.00
C107   C     0.71229   0.41767   0.13820   0.00000  Uiso   1.00
C108   C     0.65913   0.43511   0.13716   0.00000  Uiso   1.00
C109   C     0.62650   0.41216   0.23280   0.00000  Uiso   1.00
C110   C     0.77530   0.38836   0.96942   0.00000  Uiso   1.00
C111   C     0.77512   0.38115   0.82645   0.00000  Uiso   1.00
C112   C     0.79554   0.33354   0.77999   0.00000  Uiso   1.00
C113   C     0.80221   0.45684   0.13816   0.00000  Uiso   1.00
C114   C     0.82465   0.50721   0.13705   0.00000  Uiso   1.00
C115   C     0.86774   0.51724   0.23264   0.00000  Uiso   1.00
H116   H     0.80697   0.33524   0.28703   0.00000  Uiso   1.00
H117   H     0.71500   0.32555   0.39929   0.00000  Uiso   1.00
H118   H     0.83099   0.27161   0.08863   0.00000  Uiso   1.00
H119   H     0.88051   0.39765   0.39919   0.00000  Uiso   1.00
H120   H     0.60427   0.33199   0.48259   0.00000  Uiso   1.00
H121   H     0.84884   0.21826   0.82755   0.00000  Uiso   1.00
H122   H     0.95327   0.48402   0.48241   0.00000  Uiso   1.00
H123   H     0.73944   0.46769   0.97009   0.00000  Uiso   1.00
H124   H     0.64376   0.46527   0.06497   0.00000  Uiso   1.00
H125   H     0.75974   0.41133   0.75431   0.00000  Uiso   1.00
H126   H     0.80926   0.53736   0.06486   0.00000  Uiso   1.00
H127   H     0.54644   0.44538   0.21123   0.00000  Uiso   1.00
H128   H     0.79102   0.33165   0.55619   0.00000  Uiso   1.00
H129   H     0.89544   0.59742   0.21106   0.00000  Uiso   1.00
O130   O     0.51363   0.38469   0.41500   0.00000  Uiso   1.00
O131   O     0.83451   0.23548   0.55563   0.00000  Uiso   1.00
O132   O     0.97151   0.58416   0.41480   0.00000  Uiso   1.00
N133   N     0.60379   0.35901   0.40572   0.00000  Uiso   1.00
N134   N     0.83244   0.25268   0.79330   0.00000  Uiso   1.00
N135   N     0.93009   0.50114   0.40552   0.00000  Uiso   1.00
N136   N     0.57268   0.42003   0.25971   0.00000  Uiso   1.00
N137   N     0.80133   0.31370   0.64729   0.00000  Uiso   1.00
N138   N     0.89897   0.56216   0.25951   0.00000  Uiso   1.00
C139   C     0.21585   0.37822   0.31684   0.00000  Uiso   1.00
C140   C     0.27073   0.40272   0.29217   0.00000  Uiso   1.00
C141   C     0.30704   0.38432   0.19916   0.00000  Uiso   1.00
C142   C     0.35509   0.41225   0.19197   0.00000  Uiso   1.00
C143   C     0.43859   0.44347   0.14111   0.00000  Uiso   1.00
C144   C     0.21668   0.36605   0.47213   0.00000  Uiso   1.00
C145   C     0.20754   0.31680   0.53041   0.00000  Uiso   1.00
C146   C     0.21008   0.31387   0.67471   0.00000  Uiso   1.00
C147   C     0.20963   0.28816   0.90323   0.00000  Uiso   1.00
C148   C     0.17437   0.42232   0.29081   0.00000  Uiso   1.00
C149   C     0.12965   0.42039   0.19667   0.00000  Uiso   1.00
C150   C     0.09656   0.46483   0.18833   0.00000  Uiso   1.00
C151   C     0.03042   0.52650   0.13533   0.00000  Uiso   1.00
C152   C     0.23659   0.46057   0.46946   0.00000  Uiso   1.00
C153   C     0.28199   0.44745   0.37508   0.00000  Uiso   1.00
C154   C     0.32999   0.47542   0.36801   0.00000  Uiso   1.00
C155   C     0.36637   0.45706   0.27500   0.00000  Uiso   1.00
C156   C     0.22794   0.41078   0.55502   0.00000  Uiso   1.00
C157   C     0.23049   0.40791   0.69926   0.00000  Uiso   1.00
C158   C     0.22136   0.35868   0.75775   0.00000  Uiso   1.00
C159   C     0.18563   0.46705   0.37370   0.00000  Uiso   1.00
C160   C     0.15260   0.51150   0.36552   0.00000  Uiso   1.00
C161   C     0.10784   0.50964   0.27138   0.00000  Uiso   1.00
H162   H     0.20708   0.34340   0.25231   0.00000  Uiso   1.00
H163   H     0.29832   0.34970   0.13504   0.00000  Uiso   1.00
H164   H     0.19882   0.28220   0.46624   0.00000  Uiso   1.00
H165   H     0.12095   0.38577   0.13254   0.00000  Uiso   1.00
H166   H     0.40444   0.37639   0.04162   0.00000  Uiso   1.00
H167   H     0.19464   0.23407   0.73997   0.00000  Uiso   1.00
H168   H     0.03042   0.45248   0.03631   0.00000  Uiso   1.00
H169   H     0.24536   0.49539   0.53400   0.00000  Uiso   1.00
H170   H     0.33869   0.51004   0.43218   0.00000  Uiso   1.00
H171   H     0.23920   0.44254   0.76338   0.00000  Uiso   1.00
H172   H     0.16133   0.54611   0.42968   0.00000  Uiso   1.00
H173   H     0.43721   0.50653   0.28279   0.00000  Uiso   1.00
H174   H     0.22741   0.36421   0.98114   0.00000  Uiso   1.00
H175   H     0.06320   0.58261   0.27748   0.00000  Uiso   1.00
O176   O     0.48154   0.44834   0.09017   0.00000  Uiso   1.00
O177   O     0.20628   0.26162   0.00637   0.00000  Uiso   1.00
O178   O     0.99084   0.54816   0.08319   0.00000  Uiso   1.00
N179   N     0.39934   0.40502   0.11233   0.00000  Uiso   1.00
N180   N     0.20319   0.27196   0.76524   0.00000  Uiso   1.00
N181   N     0.04966   0.47614   0.10741   0.00000  Uiso   1.00
N182   N     0.41697   0.47504   0.24210   0.00000  Uiso   1.00
N183   N     0.22083   0.34198   0.89502   0.00000  Uiso   1.00
N184   N     0.06729   0.54616   0.23718   0.00000  Uiso   1.00
C185   C     0.29150   0.13441   0.71443   0.00000  Uiso   1.00
C186   C     0.23217   0.12131   0.73148   0.00000  Uiso   1.00
C187   C     0.19961   0.14428   0.82714   0.00000  Uiso   1.00
C188   C     0.14641   0.12688   0.82623   0.00000  Uiso   1.00
C189   C     0.05729   0.11248   0.86685   0.00000  Uiso   1.00
C190   C     0.29518   0.15062   0.56269   0.00000  Uiso   1.00
C191   C     0.31560   0.19823   0.51643   0.00000  Uiso   1.00
C192   C     0.31545   0.20551   0.37343   0.00000  Uiso   1.00
C193   C     0.32420   0.23660   0.15200   0.00000  Uiso   1.00
C194   C     0.32208   0.08214   0.73143   0.00000  Uiso   1.00
C195   C     0.36514   0.07218   0.82703   0.00000  Uiso   1.00
C196   C     0.38765   0.02180   0.82608   0.00000  Uiso   1.00
C197   C     0.43816   0.94657   0.86665   0.00000  Uiso   1.00
C198   C     0.25491   0.06265   0.54271   0.00000  Uiso   1.00
C199   C     0.21229   0.08233   0.63820   0.00000  Uiso   1.00
C200   C     0.15913   0.06489   0.63716   0.00000  Uiso   1.00
C201   C     0.12650   0.08784   0.73280   0.00000  Uiso   1.00
C202   C     0.27530   0.11164   0.46942   0.00000  Uiso   1.00
C203   C     0.27512   0.11885   0.32645   0.00000  Uiso   1.00
C204   C     0.29554   0.16646   0.27999   0.00000  Uiso   1.00
C205   C     0.30221   0.04316   0.63816   0.00000  Uiso   1.00
C206   C     0.32465   0.99279   0.63705   0.00000  Uiso   1.00
C207   C     0.36774   0.98276   0.73264   0.00000  Uiso   1.00
H208   H     0.30697   0.16476   0.78703   0.00000  Uiso   1.00
H209   H     0.21500   0.17445   0.89929   0.00000  Uiso   1.00
H210   H     0.33099   0.22839   0.58863   0.00000  Uiso   1.00
H211   H     0.38051   0.10235   0.89919   0.00000  Uiso   1.00
H212   H     0.10427   0.16801   0.98259   0.00000  Uiso   1.00
H213   H     0.34884   0.28174   0.32755   0.00000  Uiso   1.00
H214   H     0.45327   0.01598   0.98241   0.00000  Uiso   1.00
H215   H     0.23944   0.03231   0.47009   0.00000  Uiso   1.00
H216   H     0.14376   0.03473   0.56497   0.00000  Uiso   1.00
H217   H     0.25974   0.08867   0.25431   0.00000  Uiso   1.00
H218   H     0.30926   0.96264   0.56486   0.00000  Uiso   1.00
H219   H     0.04644   0.05462   0.71123   0.00000  Uiso   1.00
H220   H     0.29102   0.16835   0.05619   0.00000  Uiso   1.00
H221   H     0.39544   0.90258   0.71106   0.00000  Uiso   1.00
O222   O     0.01363   0.11531   0.91500   0.00000  Uiso   1.00
O223   O     0.33451   0.26452   0.05563   0.00000  Uiso   1.00
O224   O     0.47151   0.91584   0.91480   0.00000  Uiso   1.00
N225   N     0.10379   0.14099   0.90572   0.00000  Uiso   1.00
N226   N     0.33244   0.24732   0.29330   0.00000  Uiso   1.00
N227   N     0.43009   0.99886   0.90552   0.00000  Uiso   1.00
N228   N     0.07268   0.07997   0.75971   0.00000  Uiso   1.00
N229   N     0.30133   0.18630   0.14729   0.00000  Uiso   1.00
N230   N     0.39897   0.93784   0.75951   0.00000  Uiso   1.00
C231   C     0.71585   0.12178   0.81684   0.00000  Uiso   1.00
C232   C     0.77073   0.09728   0.79217   0.00000  Uiso   1.00
C233   C     0.80704   0.11568   0.69916   0.00000  Uiso   1.00
C234   C     0.85509   0.08775   0.69197   0.00000  Uiso   1.00
C235   C     0.93859   0.05653   0.64111   0.00000  Uiso   1.00
C236   C     0.71668   0.13395   0.97213   0.00000  Uiso   1.00
C237   C     0.70754   0.18320   0.03041   0.00000  Uiso   1.00
C238   C     0.71008   0.18613   0.17471   0.00000  Uiso   1.00
C239   C     0.70963   0.21184   0.40323   0.00000  Uiso   1.00
C240   C     0.67437   0.07768   0.79081   0.00000  Uiso   1.00
C241   C     0.62965   0.07961   0.69667   0.00000  Uiso   1.00
C242   C     0.59656   0.03517   0.68833   0.00000  Uiso   1.00
C243   C     0.53042   0.97350   0.63533   0.00000  Uiso   1.00
C244   C     0.73659   0.03943   0.96946   0.00000  Uiso   1.00
C245   C     0.78199   0.05255   0.87508   0.00000  Uiso   1.00
C246   C     0.82999   0.02458   0.86801   0.00000  Uiso   1.00
C247   C     0.86637   0.04294   0.77500   0.00000  Uiso   1.00
C248   C     0.72794   0.08922   0.05502   0.00000  Uiso   1.00
C249   C     0.73049   0.09209   0.19926   0.00000  Uiso   1.00
C250   C     0.72136   0.14132   0.25775   0.00000  Uiso   1.00
C251   C     0.68563   0.03295   0.87370   0.00000  Uiso   1.00
C252   C     0.65260   0.98850   0.86552   0.00000  Uiso   1.00
C253   C     0.60784   0.99036   0.77138   0.00000  Uiso   1.00
H254   H     0.70708   0.15660   0.75231   0.00000  Uiso   1.00
H255   H     0.79832   0.15030   0.63504   0.00000  Uiso   1.00
H256   H     0.69882   0.21780   0.96624   0.00000  Uiso   1.00
H257   H     0.62095   0.11423   0.63254   0.00000  Uiso   1.00
H258   H     0.90444   0.12361   0.54162   0.00000  Uiso   1.00
H259   H     0.69464   0.26593   0.23997   0.00000  Uiso   1.00
H260   H     0.53042   0.04752   0.53631   0.00000  Uiso   1.00
H261   H     0.74536   0.00461   0.03400   0.00000  Uiso   1.00
H262   H     0.83869   0.98996   0.93218   0.00000  Uiso   1.00
H263   H     0.73920   0.05746   0.26338   0.00000  Uiso   1.00
H264   H     0.66133   0.95389   0.92968   0.00000  Uiso   1.00
H265   H     0.93721   0.99347   0.78279   0.00000  Uiso   1.00
H266   H     0.72741   0.13579   0.48114   0.00000  Uiso   1.00
H267   H     0.56320   0.91739   0.77748   0.00000  Uiso   1.00
O268   O     0.98154   0.05166   0.59017   0.00000  Uiso   1.00
O269   O     0.70628   0.23838   0.50637   0.00000  Uiso   1.00
O270   O     0.49084   0.95184   0.58319   0.00000  Uiso   1.00
N271   N     0.89934   0.09498   0.61233   0.00000  Uiso   1.00
N272   N     0.70319   0.22804   0.26524   0.00000  Uiso   1.00
N273   N     0.54966   0.02386   0.60741   0.00000  Uiso   1.00
N274   N     0.91697   0.02496   0.74210   0.00000  Uiso   1.00
N275   N     0.72083   0.15802   0.39502   0.00000  Uiso   1.00
N276   N     0.56729   0.95384   0.73718   0.00000  Uiso   1.00
C277   C     0.79150   0.63441   0.71443   0.00000  Uiso   1.00
C278   C     0.73217   0.62131   0.73148   0.00000  Uiso   1.00
C279   C     0.69961   0.64428   0.82714   0.00000  Uiso   1.00
C280   C     0.64641   0.62688   0.82623   0.00000  Uiso   1.00
C281   C     0.55729   0.61248   0.86685   0.00000  Uiso   1.00
C282   C     0.79518   0.65062   0.56269   0.00000  Uiso   1.00
C283   C     0.81560   0.69823   0.51643   0.00000  Uiso   1.00
C284   C     0.81545   0.70551   0.37343   0.00000  Uiso   1.00
C285   C     0.82420   0.73660   0.15200   0.00000  Uiso   1.00
C286   C     0.82208   0.58214   0.73143   0.00000  Uiso   1.00
C287   C     0.86514   0.57218   0.82703   0.00000  Uiso   1.00
C288   C     0.88765   0.52180   0.82608   0.00000  Uiso   1.00
C289   C     0.93816   0.44657   0.86665   0.00000  Uiso   1.00
C290   C     0.75491   0.56265   0.54271   0.00000  Uiso   1.00
C291   C     0.71229   0.58233   0.63820   0.00000  Uiso   1.00
C292   C     0.65913   0.56489   0.63716   0.00000  Uiso   1.00
C293   C     0.62650   0.58784   0.73280   0.00000  Uiso   1.00
C294   C     0.77530   0.61164   0.46942   0.00000  Uiso   1.00
C295   C     0.77512   0.61885   0.32645   0.00000  Uiso   1.00
C296   C     0.79554   0.66646   0.27999   0.00000  Uiso   1.00
C297   C     0.80221   0.54316   0.63816   0.00000  Uiso   1.00
C298   C     0.82465   0.49279   0.63705   0.00000  Uiso   1.00
C299   C     0.86774   0.48276   0.73264   0.00000  Uiso   1.00
H300   H     0.80697   0.66476   0.78703   0.00000  Uiso   1.00
H301   H     0.71500   0.67445   0.89929   0.00000  Uiso   1.00
H302   H     0.83099   0.72839   0.58863   0.00000  Uiso   1.00
H303   H     0.88051   0.60235   0.89919   0.00000  Uiso   1.00
H304   H     0.60427   0.66801   0.98259   0.00000  Uiso   1.00
H305   H     0.84884   0.78174   0.32755   0.00000  Uiso   1.00
H306   H     0.95327   0.51598   0.98241   0.00000  Uiso   1.00
H307   H     0.73944   0.53231   0.47009   0.00000  Uiso   1.00
H308   H     0.64376   0.53473   0.56497   0.00000  Uiso   1.00
H309   H     0.75974   0.58867   0.25431   0.00000  Uiso   1.00
H310   H     0.80926   0.46264   0.56486   0.00000  Uiso   1.00
H311   H     0.54644   0.55462   0.71123   0.00000  Uiso   1.00
H312   H     0.79102   0.66835   0.05619   0.00000  Uiso   1.00
H313   H     0.89544   0.40258   0.71106   0.00000  Uiso   1.00
O314   O     0.51363   0.61531   0.91500   0.00000  Uiso   1.00
O315   O     0.83451   0.76452   0.05563   0.00000  Uiso   1.00
O316   O     0.97151   0.41584   0.91480   0.00000  Uiso   1.00
N317   N     0.60379   0.64099   0.90572   0.00000  Uiso   1.00
N318   N     0.83244   0.74732   0.29330   0.00000  Uiso   1.00
N319   N     0.93009   0.49886   0.90552   0.00000  Uiso   1.00
N320   N     0.57268   0.57997   0.75971   0.00000  Uiso   1.00
N321   N     0.80133   0.68630   0.14729   0.00000  Uiso   1.00
N322   N     0.89897   0.43784   0.75951   0.00000  Uiso   1.00
C323   C     0.21585   0.62178   0.81684   0.00000  Uiso   1.00
C324   C     0.27073   0.59728   0.79217   0.00000  Uiso   1.00
C325   C     0.30704   0.61568   0.69916   0.00000  Uiso   1.00
C326   C     0.35509   0.58775   0.69197   0.00000  Uiso   1.00
C327   C     0.43859   0.55653   0.64111   0.00000  Uiso   1.00
C328   C     0.21668   0.63395   0.97213   0.00000  Uiso   1.00
C329   C     0.20754   0.68320   0.03041   0.00000  Uiso   1.00
C330   C     0.21008   0.68613   0.17471   0.00000  Uiso   1.00
C331   C     0.20963   0.71184   0.40323   0.00000  Uiso   1.00
C332   C     0.17437   0.57768   0.79081   0.00000  Uiso   1.00
C333   C     0.12965   0.57961   0.69667   0.00000  Uiso   1.00
C334   C     0.09656   0.53517   0.68833   0.00000  Uiso   1.00
C335   C     0.03042   0.47350   0.63533   0.00000  Uiso   1.00
C336   C     0.23659   0.53943   0.96946   0.00000  Uiso   1.00
C337   C     0.28199   0.55255   0.87508   0.00000  Uiso   1.00
C338   C     0.32999   0.52458   0.86801   0.00000  Uiso   1.00
C339   C     0.36637   0.54294   0.77500   0.00000  Uiso   1.00
C340   C     0.22794   0.58922   0.05502   0.00000  Uiso   1.00
C341   C     0.23049   0.59209   0.19926   0.00000  Uiso   1.00
C342   C     0.22136   0.64132   0.25775   0.00000  Uiso   1.00
C343   C     0.18563   0.53295   0.87370   0.00000  Uiso   1.00
C344   C     0.15260   0.48850   0.86552   0.00000  Uiso   1.00
C345   C     0.10784   0.49036   0.77138   0.00000  Uiso   1.00
H346   H     0.20708   0.65660   0.75231   0.00000  Uiso   1.00
H347   H     0.29832   0.65030   0.63504   0.00000  Uiso   1.00
H348   H     0.19882   0.71780   0.96624   0.00000  Uiso   1.00
H349   H     0.12095   0.61423   0.63254   0.00000  Uiso   1.00
H350   H     0.40444   0.62361   0.54162   0.00000  Uiso   1.00
H351   H     0.19464   0.76593   0.23997   0.00000  Uiso   1.00
H352   H     0.03042   0.54752   0.53631   0.00000  Uiso   1.00
H353   H     0.24536   0.50461   0.03400   0.00000  Uiso   1.00
H354   H     0.33869   0.48996   0.93218   0.00000  Uiso   1.00
H355   H     0.23920   0.55746   0.26338   0.00000  Uiso   1.00
H356   H     0.16133   0.45389   0.92968   0.00000  Uiso   1.00
H357   H     0.43721   0.49347   0.78279   0.00000  Uiso   1.00
H358   H     0.22741   0.63579   0.48114   0.00000  Uiso   1.00
H359   H     0.06320   0.41739   0.77748   0.00000  Uiso   1.00
O360   O     0.48154   0.55166   0.59017   0.00000  Uiso   1.00
O361   O     0.20628   0.73838   0.50637   0.00000  Uiso   1.00
O362   O     0.99084   0.45184   0.58319   0.00000  Uiso   1.00
N363   N     0.39934   0.59498   0.61233   0.00000  Uiso   1.00
N364   N     0.20319   0.72804   0.26524   0.00000  Uiso   1.00
N365   N     0.04966   0.52386   0.60741   0.00000  Uiso   1.00
N366   N     0.41697   0.52496   0.74210   0.00000  Uiso   1.00
N367   N     0.22083   0.65802   0.39502   0.00000  Uiso   1.00
N368   N     0.06729   0.45384   0.73718   0.00000  Uiso   1.00
