data_job_05207
_audit_creation_date              2018-12-19
_audit_creation_method            'Materials Studio'
_symmetry_space_group_name_H-M    'P1'
_symmetry_Int_Tables_number       1
_symmetry_cell_setting            triclinic
loop_
_symmetry_equiv_pos_as_xyz
  x,y,z
_cell_length_a                    12.5416
_cell_length_b                    12.5416
_cell_length_c                    36.6922
_cell_angle_alpha                 90.0000
_cell_angle_beta                  90.0000
_cell_angle_gamma                 120.0000
loop_
_atom_site_label
_atom_site_type_symbol
_atom_site_fract_x
_atom_site_fract_y
_atom_site_fract_z
_atom_site_U_iso_or_equiv
_atom_site_adp_type
_atom_site_occupancy
C1     C     0.86268   0.50605   0.89017   0.00000  Uiso   1.00
C2     C     0.77513   0.48611   0.92163   0.00000  Uiso   1.00
C3     C     0.64768   0.41549   0.92034   0.00000  Uiso   1.00
C4     C     0.58406   0.40882   0.95201   0.00000  Uiso   1.00
C5     C     0.43871   0.36852   0.99600   0.00000  Uiso   1.00
C6     C     0.93979   0.64505   0.88492   0.00000  Uiso   1.00
C7     C     0.95079   0.70804   0.85276   0.00000  Uiso   1.00
C8     C     0.02580   0.83517   0.85354   0.00000  Uiso   1.00
C9     C     0.13616   0.04160   0.84053   0.00000  Uiso   1.00
C10    C     0.95102   0.46495   0.90410   0.00000  Uiso   1.00
C11    C     0.97150   0.37654   0.88807   0.00000  Uiso   1.00
C12    C     0.05599   0.35206   0.90499   0.00000  Uiso   1.00
C13    C     0.18379   0.27886   0.92177   0.00000  Uiso   1.00
C14    C     0.97633   0.61979   0.94872   0.00000  Uiso   1.00
C15    C     0.83686   0.54790   0.95342   0.00000  Uiso   1.00
C16    C     0.77342   0.54133   0.98511   0.00000  Uiso   1.00
C17    C     0.64590   0.47071   0.98387   0.00000  Uiso   1.00
C18    C     0.00152   0.70683   0.91672   0.00000  Uiso   1.00
C19    C     0.07653   0.83389   0.91754   0.00000  Uiso   1.00
C20    C     0.08764   0.89706   0.88539   0.00000  Uiso   1.00
C21    C     0.01275   0.52673   0.93590   0.00000  Uiso   1.00
C22    C     0.09723   0.50238   0.95284   0.00000  Uiso   1.00
C23    C     0.11783   0.41395   0.93684   0.00000  Uiso   1.00
H24    H     0.81463   0.45796   0.86542   0.00000  Uiso   1.00
H25    H     0.59994   0.36770   0.89572   0.00000  Uiso   1.00
H26    H     0.90302   0.66021   0.82816   0.00000  Uiso   1.00
H27    H     0.92371   0.32876   0.86346   0.00000  Uiso   1.00
H28    H     0.38914   0.29492   0.94334   0.00000  Uiso   1.00
H29    H     0.02823   0.91168   0.80088   0.00000  Uiso   1.00
H30    H     0.07187   0.21275   0.87532   0.00000  Uiso   1.00
H31    H     0.02440   0.66790   0.97348   0.00000  Uiso   1.00
H32    H     0.82121   0.58915   0.00971   0.00000  Uiso   1.00
H33    H     0.12429   0.88166   0.94215   0.00000  Uiso   1.00
H34    H     0.14499   0.55021   0.97745   0.00000  Uiso   1.00
H35    H     0.56873   0.47466   0.03586   0.00000  Uiso   1.00
H36    H     0.20782   0.09142   0.89340   0.00000  Uiso   1.00
H37    H     0.25147   0.39249   0.96784   0.00000  Uiso   1.00
O38    O     0.34149   0.32924   0.01148   0.00000  Uiso   1.00
O39    O     0.17996   0.13839   0.82458   0.00000  Uiso   1.00
O40    O     0.23722   0.22141   0.92224   0.00000  Uiso   1.00
N41    N     0.45929   0.34801   0.96014   0.00000  Uiso   1.00
N42    N     0.05678   0.92464   0.82695   0.00000  Uiso   1.00
N43    N     0.09762   0.27122   0.89654   0.00000  Uiso   1.00
N44    N     0.55593   0.44472   0.00993   0.00000  Uiso   1.00
N45    N     0.15342   0.02136   0.87674   0.00000  Uiso   1.00
N46    N     0.19425   0.36794   0.94632   0.00000  Uiso   1.00
C47    C     0.49416   0.08224   0.44411   0.00000  Uiso   1.00
C48    C     0.51434   0.16962   0.41258   0.00000  Uiso   1.00
C49    C     0.58536   0.29704   0.41377   0.00000  Uiso   1.00
C50    C     0.59220   0.36049   0.38205   0.00000  Uiso   1.00
C51    C     0.63291   0.50558   0.33793   0.00000  Uiso   1.00
C52    C     0.35515   0.00562   0.44941   0.00000  Uiso   1.00
C53    C     0.29234   0.99516   0.48156   0.00000  Uiso   1.00
C54    C     0.16516   0.92053   0.48083   0.00000  Uiso   1.00
C55    C     0.95874   0.81095   0.49389   0.00000  Uiso   1.00
C56    C     0.53475   0.99341   0.43027   0.00000  Uiso   1.00
C57    C     0.62292   0.97265   0.44633   0.00000  Uiso   1.00
C58    C     0.64694   0.88772   0.42949   0.00000  Uiso   1.00
C59    C     0.71937   0.75917   0.41284   0.00000  Uiso   1.00
C60    C     0.38000   0.96831   0.38564   0.00000  Uiso   1.00
C61    C     0.45233   0.10773   0.38083   0.00000  Uiso   1.00
C62    C     0.45906   0.17100   0.34909   0.00000  Uiso   1.00
C63    C     0.53009   0.29850   0.35023   0.00000  Uiso   1.00
C64    C     0.29314   0.94374   0.41765   0.00000  Uiso   1.00
C65    C     0.16603   0.86911   0.41688   0.00000  Uiso   1.00
C66    C     0.10304   0.85854   0.44902   0.00000  Uiso   1.00
C67    C     0.47274   0.93153   0.39851   0.00000  Uiso   1.00
C68    C     0.49662   0.84661   0.38165   0.00000  Uiso   1.00
C69    C     0.58482   0.82572   0.39768   0.00000  Uiso   1.00
H70    H     0.54243   0.13041   0.46883   0.00000  Uiso   1.00
H71    H     0.63333   0.34490   0.43836   0.00000  Uiso   1.00
H72    H     0.34035   0.04305   0.50613   0.00000  Uiso   1.00
H73    H     0.67089   0.02055   0.47091   0.00000  Uiso   1.00
H74    H     0.70673   0.55541   0.39057   0.00000  Uiso   1.00
H75    H     0.08897   0.91891   0.53348   0.00000  Uiso   1.00
H76    H     0.78597   0.87146   0.45920   0.00000  Uiso   1.00
H77    H     0.33172   0.92013   0.36092   0.00000  Uiso   1.00
H78    H     0.41106   0.12308   0.32452   0.00000  Uiso   1.00
H79    H     0.11808   0.82123   0.39230   0.00000  Uiso   1.00
H80    H     0.44861   0.79873   0.35707   0.00000  Uiso   1.00
H81    H     0.52632   0.37538   0.29817   0.00000  Uiso   1.00
H82    H     0.90856   0.73886   0.44109   0.00000  Uiso   1.00
H83    H     0.60556   0.69143   0.36681   0.00000  Uiso   1.00
O84    O     0.67249   0.60270   0.32238   0.00000  Uiso   1.00
O85    O     0.86201   0.76761   0.50987   0.00000  Uiso   1.00
O86    O     0.77647   0.70538   0.41242   0.00000  Uiso   1.00
N87    N     0.65340   0.48519   0.37381   0.00000  Uiso   1.00
N88    N     0.07583   0.89011   0.50743   0.00000  Uiso   1.00
N89    N     0.72744   0.84573   0.43799   0.00000  Uiso   1.00
N90    N     0.55633   0.38831   0.32410   0.00000  Uiso   1.00
N91    N     0.97875   0.79323   0.45771   0.00000  Uiso   1.00
N92    N     0.63037   0.74885   0.38828   0.00000  Uiso   1.00
C93    C     0.49395   0.35663   0.55684   0.00000  Uiso   1.00
C94    C     0.51389   0.28901   0.58829   0.00000  Uiso   1.00
C95    C     0.58451   0.23219   0.58700   0.00000  Uiso   1.00
C96    C     0.59118   0.17523   0.61868   0.00000  Uiso   1.00
C97    C     0.63148   0.07019   0.66267   0.00000  Uiso   1.00
C98    C     0.35495   0.29474   0.55158   0.00000  Uiso   1.00
C99    C     0.29196   0.24275   0.51943   0.00000  Uiso   1.00
C100   C     0.16483   0.19063   0.52021   0.00000  Uiso   1.00
C101   C     0.95840   0.09456   0.50720   0.00000  Uiso   1.00
C102   C     0.53505   0.48607   0.57077   0.00000  Uiso   1.00
C103   C     0.62346   0.59496   0.55474   0.00000  Uiso   1.00
C104   C     0.64794   0.70393   0.57166   0.00000  Uiso   1.00
C105   C     0.72114   0.90493   0.58843   0.00000  Uiso   1.00
C106   C     0.38021   0.35654   0.61539   0.00000  Uiso   1.00
C107   C     0.45210   0.28896   0.62009   0.00000  Uiso   1.00
C108   C     0.45867   0.23208   0.65178   0.00000  Uiso   1.00
C109   C     0.52929   0.17519   0.65053   0.00000  Uiso   1.00
C110   C     0.29317   0.29469   0.58338   0.00000  Uiso   1.00
C111   C     0.16611   0.24264   0.58420   0.00000  Uiso   1.00
C112   C     0.10294   0.19058   0.55206   0.00000  Uiso   1.00
C113   C     0.47327   0.48602   0.60257   0.00000  Uiso   1.00
C114   C     0.49762   0.59485   0.61951   0.00000  Uiso   1.00
C115   C     0.58605   0.70388   0.60351   0.00000  Uiso   1.00
H116   H     0.54204   0.35667   0.53208   0.00000  Uiso   1.00
H117   H     0.63230   0.23224   0.56239   0.00000  Uiso   1.00
H118   H     0.33979   0.24281   0.49483   0.00000  Uiso   1.00
H119   H     0.67124   0.59496   0.53013   0.00000  Uiso   1.00
H120   H     0.70508   0.09422   0.61000   0.00000  Uiso   1.00
H121   H     0.08832   0.11655   0.46755   0.00000  Uiso   1.00
H122   H     0.78725   0.85913   0.54198   0.00000  Uiso   1.00
H123   H     0.33210   0.35650   0.64014   0.00000  Uiso   1.00
H124   H     0.41085   0.23206   0.67638   0.00000  Uiso   1.00
H125   H     0.11834   0.24263   0.60882   0.00000  Uiso   1.00
H126   H     0.44979   0.59478   0.64412   0.00000  Uiso   1.00
H127   H     0.52534   0.09407   0.70252   0.00000  Uiso   1.00
H128   H     0.90858   0.11640   0.56006   0.00000  Uiso   1.00
H129   H     0.60751   0.85898   0.63450   0.00000  Uiso   1.00
O130   O     0.67076   0.01225   0.67815   0.00000  Uiso   1.00
O131   O     0.86161   0.04157   0.49124   0.00000  Uiso   1.00
O132   O     0.77859   0.01581   0.58891   0.00000  Uiso   1.00
N133   N     0.65199   0.11128   0.62681   0.00000  Uiso   1.00
N134   N     0.07536   0.13214   0.49362   0.00000  Uiso   1.00
N135   N     0.72878   0.82639   0.56321   0.00000  Uiso   1.00
N136   N     0.55528   0.11121   0.67659   0.00000  Uiso   1.00
N137   N     0.97864   0.13206   0.54340   0.00000  Uiso   1.00
N138   N     0.63206   0.82631   0.61299   0.00000  Uiso   1.00
C139   C     0.91776   0.41192   0.11077   0.00000  Uiso   1.00
C140   C     0.83038   0.34472   0.07925   0.00000  Uiso   1.00
C141   C     0.70296   0.28832   0.08044   0.00000  Uiso   1.00
C142   C     0.63951   0.23171   0.04871   0.00000  Uiso   1.00
C143   C     0.49442   0.12734   0.00460   0.00000  Uiso   1.00
C144   C     0.99438   0.34953   0.11607   0.00000  Uiso   1.00
C145   C     0.00484   0.29718   0.14823   0.00000  Uiso   1.00
C146   C     0.07947   0.24463   0.14750   0.00000  Uiso   1.00
C147   C     0.18905   0.14779   0.16056   0.00000  Uiso   1.00
C148   C     0.00659   0.54134   0.09694   0.00000  Uiso   1.00
C149   C     0.02735   0.65027   0.11300   0.00000  Uiso   1.00
C150   C     0.11228   0.75922   0.09616   0.00000  Uiso   1.00
C151   C     0.24083   0.96020   0.07951   0.00000  Uiso   1.00
C152   C     0.03169   0.41169   0.05231   0.00000  Uiso   1.00
C153   C     0.89227   0.34460   0.04750   0.00000  Uiso   1.00
C154   C     0.82900   0.28806   0.01576   0.00000  Uiso   1.00
C155   C     0.70150   0.23159   0.01690   0.00000  Uiso   1.00
C156   C     0.05626   0.34940   0.08432   0.00000  Uiso   1.00
C157   C     0.13089   0.29692   0.08354   0.00000  Uiso   1.00
C158   C     0.14146   0.24450   0.11568   0.00000  Uiso   1.00
C159   C     0.06847   0.54121   0.06518   0.00000  Uiso   1.00
C160   C     0.15339   0.65001   0.04831   0.00000  Uiso   1.00
C161   C     0.17428   0.75909   0.06435   0.00000  Uiso   1.00
H162   H     0.86959   0.41201   0.13550   0.00000  Uiso   1.00
H163   H     0.65510   0.28843   0.10502   0.00000  Uiso   1.00
H164   H     0.95695   0.29730   0.17280   0.00000  Uiso   1.00
H165   H     0.97945   0.65033   0.13757   0.00000  Uiso   1.00
H166   H     0.44459   0.15131   0.05723   0.00000  Uiso   1.00
H167   H     0.08109   0.17006   0.20014   0.00000  Uiso   1.00
H168   H     0.12854   0.91450   0.12587   0.00000  Uiso   1.00
H169   H     0.07987   0.41159   0.02759   0.00000  Uiso   1.00
H170   H     0.87692   0.28798   0.99119   0.00000  Uiso   1.00
H171   H     0.17877   0.29685   0.05896   0.00000  Uiso   1.00
H172   H     0.20127   0.64988   0.02374   0.00000  Uiso   1.00
H173   H     0.62462   0.15094   0.96484   0.00000  Uiso   1.00
H174   H     0.26114   0.16969   0.10775   0.00000  Uiso   1.00
H175   H     0.30857   0.91413   0.03348   0.00000  Uiso   1.00
O176   O     0.39730   0.06979   0.98904   0.00000  Uiso   1.00
O177   O     0.23239   0.09440   0.17654   0.00000  Uiso   1.00
O178   O     0.29462   0.07109   0.07909   0.00000  Uiso   1.00
N179   N     0.51481   0.16821   0.04048   0.00000  Uiso   1.00
N180   N     0.10989   0.18572   0.17409   0.00000  Uiso   1.00
N181   N     0.15427   0.88171   0.10466   0.00000  Uiso   1.00
N182   N     0.61169   0.16802   0.99077   0.00000  Uiso   1.00
N183   N     0.20677   0.18552   0.12438   0.00000  Uiso   1.00
N184   N     0.25115   0.88152   0.05494   0.00000  Uiso   1.00
C185   C     0.64337   0.13732   0.22351   0.00000  Uiso   1.00
C186   C     0.71099   0.22487   0.25496   0.00000  Uiso   1.00
C187   C     0.76781   0.35232   0.25367   0.00000  Uiso   1.00
C188   C     0.82477   0.41594   0.28534   0.00000  Uiso   1.00
C189   C     0.92981   0.56129   0.32933   0.00000  Uiso   1.00
C190   C     0.70526   0.06021   0.21825   0.00000  Uiso   1.00
C191   C     0.75725   0.04921   0.18610   0.00000  Uiso   1.00
C192   C     0.80937   0.97420   0.18687   0.00000  Uiso   1.00
C193   C     0.90544   0.86384   0.17387   0.00000  Uiso   1.00
C194   C     0.51393   0.04898   0.23743   0.00000  Uiso   1.00
C195   C     0.40504   0.02850   0.22140   0.00000  Uiso   1.00
C196   C     0.29607   0.94401   0.23832   0.00000  Uiso   1.00
C197   C     0.09507   0.81621   0.25510   0.00000  Uiso   1.00
C198   C     0.64346   0.02367   0.28205   0.00000  Uiso   1.00
C199   C     0.71104   0.16314   0.28676   0.00000  Uiso   1.00
C200   C     0.76792   0.22658   0.31844   0.00000  Uiso   1.00
C201   C     0.82481   0.35410   0.31720   0.00000  Uiso   1.00
C202   C     0.70531   0.99848   0.25005   0.00000  Uiso   1.00
C203   C     0.75736   0.92347   0.25087   0.00000  Uiso   1.00
C204   C     0.80942   0.91236   0.21873   0.00000  Uiso   1.00
C205   C     0.51398   0.98725   0.26923   0.00000  Uiso   1.00
C206   C     0.40515   0.90277   0.28618   0.00000  Uiso   1.00
C207   C     0.29612   0.88217   0.27018   0.00000  Uiso   1.00
H208   H     0.64333   0.18537   0.19875   0.00000  Uiso   1.00
H209   H     0.76776   0.40006   0.22905   0.00000  Uiso   1.00
H210   H     0.75719   0.09698   0.16149   0.00000  Uiso   1.00
H211   H     0.40504   0.07629   0.19680   0.00000  Uiso   1.00
H212   H     0.90578   0.61086   0.27667   0.00000  Uiso   1.00
H213   H     0.88345   0.97177   0.13421   0.00000  Uiso   1.00
H214   H     0.14087   0.92813   0.20865   0.00000  Uiso   1.00
H215   H     0.64350   0.97560   0.30681   0.00000  Uiso   1.00
H216   H     0.76794   0.17879   0.34305   0.00000  Uiso   1.00
H217   H     0.75737   0.87571   0.27548   0.00000  Uiso   1.00
H218   H     0.40522   0.85501   0.31078   0.00000  Uiso   1.00
H219   H     0.90593   0.43127   0.36919   0.00000  Uiso   1.00
H220   H     0.88360   0.79218   0.22673   0.00000  Uiso   1.00
H221   H     0.14102   0.74853   0.30117   0.00000  Uiso   1.00
O222   O     0.98775   0.65851   0.34481   0.00000  Uiso   1.00
O223   O     0.95843   0.82004   0.15791   0.00000  Uiso   1.00
O224   O     0.98419   0.76278   0.25557   0.00000  Uiso   1.00
N225   N     0.88872   0.54071   0.29348   0.00000  Uiso   1.00
N226   N     0.86786   0.94322   0.16028   0.00000  Uiso   1.00
N227   N     0.17361   0.90238   0.22987   0.00000  Uiso   1.00
N228   N     0.88879   0.44407   0.34326   0.00000  Uiso   1.00
N229   N     0.86794   0.84658   0.21007   0.00000  Uiso   1.00
N230   N     0.17369   0.80575   0.27966   0.00000  Uiso   1.00
C231   C     0.58808   0.50584   0.77744   0.00000  Uiso   1.00
C232   C     0.65528   0.48566   0.74592   0.00000  Uiso   1.00
C233   C     0.71168   0.41464   0.74711   0.00000  Uiso   1.00
C234   C     0.76829   0.40780   0.71538   0.00000  Uiso   1.00
C235   C     0.87266   0.36709   0.67127   0.00000  Uiso   1.00
C236   C     0.65047   0.64485   0.78274   0.00000  Uiso   1.00
C237   C     0.70282   0.70766   0.81489   0.00000  Uiso   1.00
C238   C     0.75537   0.83484   0.81416   0.00000  Uiso   1.00
C239   C     0.85221   0.04126   0.82723   0.00000  Uiso   1.00
C240   C     0.45866   0.46525   0.76360   0.00000  Uiso   1.00
C241   C     0.34973   0.37708   0.77967   0.00000  Uiso   1.00
C242   C     0.24078   0.35306   0.76283   0.00000  Uiso   1.00
C243   C     0.03980   0.28063   0.74617   0.00000  Uiso   1.00
C244   C     0.58831   0.62000   0.71898   0.00000  Uiso   1.00
C245   C     0.65540   0.54767   0.71416   0.00000  Uiso   1.00
C246   C     0.71194   0.54094   0.68242   0.00000  Uiso   1.00
C247   C     0.76841   0.46991   0.68357   0.00000  Uiso   1.00
C248   C     0.65060   0.70686   0.75099   0.00000  Uiso   1.00
C249   C     0.70308   0.83397   0.75021   0.00000  Uiso   1.00
C250   C     0.75550   0.89696   0.78235   0.00000  Uiso   1.00
C251   C     0.45879   0.52726   0.73185   0.00000  Uiso   1.00
C252   C     0.34999   0.50338   0.71498   0.00000  Uiso   1.00
C253   C     0.24091   0.41518   0.73101   0.00000  Uiso   1.00
H254   H     0.58799   0.45757   0.80217   0.00000  Uiso   1.00
H255   H     0.71157   0.36667   0.77169   0.00000  Uiso   1.00
H256   H     0.70270   0.65965   0.83946   0.00000  Uiso   1.00
H257   H     0.34967   0.32911   0.80424   0.00000  Uiso   1.00
H258   H     0.84869   0.29327   0.72390   0.00000  Uiso   1.00
H259   H     0.82994   0.91103   0.86681   0.00000  Uiso   1.00
H260   H     0.08550   0.21403   0.79254   0.00000  Uiso   1.00
H261   H     0.58841   0.66828   0.69425   0.00000  Uiso   1.00
H262   H     0.71202   0.58894   0.65785   0.00000  Uiso   1.00
H263   H     0.70315   0.88192   0.72563   0.00000  Uiso   1.00
H264   H     0.35012   0.55139   0.69041   0.00000  Uiso   1.00
H265   H     0.84906   0.47368   0.63151   0.00000  Uiso   1.00
H266   H     0.83031   0.09144   0.77442   0.00000  Uiso   1.00
H267   H     0.08587   0.39444   0.70014   0.00000  Uiso   1.00
O268   O     0.93021   0.32751   0.65571   0.00000  Uiso   1.00
O269   O     0.90560   0.13799   0.84320   0.00000  Uiso   1.00
O270   O     0.92891   0.22353   0.74576   0.00000  Uiso   1.00
N271   N     0.83179   0.34660   0.70715   0.00000  Uiso   1.00
N272   N     0.81428   0.92417   0.84076   0.00000  Uiso   1.00
N273   N     0.11829   0.27256   0.77133   0.00000  Uiso   1.00
N274   N     0.83198   0.44367   0.65743   0.00000  Uiso   1.00
N275   N     0.81448   0.02125   0.79104   0.00000  Uiso   1.00
N276   N     0.11848   0.36963   0.72161   0.00000  Uiso   1.00
