data_job_01473
_audit_creation_date              2018-12-19
_audit_creation_method            'Materials Studio'
_symmetry_space_group_name_H-M    'P1'
_symmetry_Int_Tables_number       1
_symmetry_cell_setting            triclinic
loop_
_symmetry_equiv_pos_as_xyz
  x,y,z
_cell_length_a                    14.4624
_cell_length_b                    9.4541
_cell_length_c                    20.3421
_cell_angle_alpha                 90.0000
_cell_angle_beta                  119.1724
_cell_angle_gamma                 90.0000
loop_
_atom_site_label
_atom_site_type_symbol
_atom_site_fract_x
_atom_site_fract_y
_atom_site_fract_z
_atom_site_U_iso_or_equiv
_atom_site_adp_type
_atom_site_occupancy
C1     C     0.86189   0.06749   0.23391   0.00000  Uiso   1.00
C2     C     0.80607   0.14970   0.26897   0.00000  Uiso   1.00
C3     C     0.79097   0.29506   0.26522   0.00000  Uiso   1.00
C4     C     0.73803   0.34997   0.30098   0.00000  Uiso   1.00
C5     C     0.65695   0.49092   0.34965   0.00000  Uiso   1.00
C6     C     0.95086   0.98549   0.29816   0.00000  Uiso   1.00
C7     C     0.05750   0.99277   0.31895   0.00000  Uiso   1.00
C8     C     0.12643   0.90944   0.37927   0.00000  Uiso   1.00
C9     C     0.27014   0.79537   0.47322   0.00000  Uiso   1.00
C10    C     0.78271   0.95699   0.18269   0.00000  Uiso   1.00
C11    C     0.74799   0.94028   0.10639   0.00000  Uiso   1.00
C12    C     0.67537   0.83292   0.06950   0.00000  Uiso   1.00
C13    C     0.55800   0.67461   0.98416   0.00000  Uiso   1.00
C14    C     0.79472   0.90652   0.30406   0.00000  Uiso   1.00
C15    C     0.76959   0.06226   0.30707   0.00000  Uiso   1.00
C16    C     0.71665   0.11696   0.34284   0.00000  Uiso   1.00
C17    C     0.70147   0.26238   0.33914   0.00000  Uiso   1.00
C18    C     0.91438   0.89806   0.33626   0.00000  Uiso   1.00
C19    C     0.98317   0.81468   0.39656   0.00000  Uiso   1.00
C20    C     0.08989   0.82185   0.41744   0.00000  Uiso   1.00
C21    C     0.74622   0.86955   0.22079   0.00000  Uiso   1.00
C22    C     0.67366   0.76219   0.18401   0.00000  Uiso   1.00
C23    C     0.63882   0.74533   0.10767   0.00000  Uiso   1.00
H24    H     0.89030   0.13556   0.20425   0.00000  Uiso   1.00
H25    H     0.81923   0.36269   0.23574   0.00000  Uiso   1.00
H26    H     0.08571   0.06043   0.28945   0.00000  Uiso   1.00
H27    H     0.77624   0.00796   0.07693   0.00000  Uiso   1.00
H28    H     0.72437   0.57595   0.28747   0.00000  Uiso   1.00
H29    H     0.28625   0.93860   0.40071   0.00000  Uiso   1.00
H30    H     0.63368   0.82794   0.95256   0.00000  Uiso   1.00
H31    H     0.76631   0.83845   0.33373   0.00000  Uiso   1.00
H32    H     0.68842   0.04928   0.37232   0.00000  Uiso   1.00
H33    H     0.95491   0.74703   0.42603   0.00000  Uiso   1.00
H34    H     0.64544   0.69455   0.21351   0.00000  Uiso   1.00
H35    H     0.61821   0.32158   0.39833   0.00000  Uiso   1.00
H36    H     0.18010   0.68422   0.51156   0.00000  Uiso   1.00
H37    H     0.52752   0.57357   0.06342   0.00000  Uiso   1.00
O38    O     0.62233   0.59282   0.36597   0.00000  Uiso   1.00
O39    O     0.35949   0.75662   0.51452   0.00000  Uiso   1.00
O40    O     0.50333   0.61145   0.92657   0.00000  Uiso   1.00
N41    N     0.71006   0.48715   0.30825   0.00000  Uiso   1.00
N42    N     0.23539   0.89128   0.41413   0.00000  Uiso   1.00
N43    N     0.62531   0.78780   0.99516   0.00000  Uiso   1.00
N44    N     0.65293   0.35027   0.36790   0.00000  Uiso   1.00
N45    N     0.17826   0.75440   0.47378   0.00000  Uiso   1.00
N46    N     0.56818   0.65092   0.05481   0.00000  Uiso   1.00
C47    C     0.13811   0.56749   0.26609   0.00000  Uiso   1.00
C48    C     0.19393   0.64970   0.23103   0.00000  Uiso   1.00
C49    C     0.20903   0.79506   0.23478   0.00000  Uiso   1.00
C50    C     0.26197   0.84997   0.19902   0.00000  Uiso   1.00
C51    C     0.34305   0.99092   0.15035   0.00000  Uiso   1.00
C52    C     0.04914   0.48549   0.20184   0.00000  Uiso   1.00
C53    C     0.94250   0.49277   0.18105   0.00000  Uiso   1.00
C54    C     0.87357   0.40944   0.12073   0.00000  Uiso   1.00
C55    C     0.72986   0.29537   0.02678   0.00000  Uiso   1.00
C56    C     0.21729   0.45699   0.31731   0.00000  Uiso   1.00
C57    C     0.25201   0.44028   0.39361   0.00000  Uiso   1.00
C58    C     0.32463   0.33292   0.43050   0.00000  Uiso   1.00
C59    C     0.44200   0.17461   0.51584   0.00000  Uiso   1.00
C60    C     0.20528   0.40652   0.19594   0.00000  Uiso   1.00
C61    C     0.23041   0.56226   0.19293   0.00000  Uiso   1.00
C62    C     0.28335   0.61696   0.15716   0.00000  Uiso   1.00
C63    C     0.29853   0.76238   0.16086   0.00000  Uiso   1.00
C64    C     0.08562   0.39806   0.16374   0.00000  Uiso   1.00
C65    C     0.01683   0.31468   0.10344   0.00000  Uiso   1.00
C66    C     0.91011   0.32185   0.08256   0.00000  Uiso   1.00
C67    C     0.25378   0.36955   0.27921   0.00000  Uiso   1.00
C68    C     0.32634   0.26219   0.31599   0.00000  Uiso   1.00
C69    C     0.36118   0.24533   0.39233   0.00000  Uiso   1.00
H70    H     0.10970   0.63556   0.29575   0.00000  Uiso   1.00
H71    H     0.18077   0.86269   0.26426   0.00000  Uiso   1.00
H72    H     0.91429   0.56043   0.21055   0.00000  Uiso   1.00
H73    H     0.22376   0.50796   0.42307   0.00000  Uiso   1.00
H74    H     0.27563   0.07595   0.21253   0.00000  Uiso   1.00
H75    H     0.71375   0.43860   0.09929   0.00000  Uiso   1.00
H76    H     0.36632   0.32794   0.54744   0.00000  Uiso   1.00
H77    H     0.23369   0.33845   0.16627   0.00000  Uiso   1.00
H78    H     0.31158   0.54928   0.12768   0.00000  Uiso   1.00
H79    H     0.04509   0.24703   0.07397   0.00000  Uiso   1.00
H80    H     0.35456   0.19455   0.28649   0.00000  Uiso   1.00
H81    H     0.38179   0.82158   0.10167   0.00000  Uiso   1.00
H82    H     0.81990   0.18422   0.98844   0.00000  Uiso   1.00
H83    H     0.47248   0.07357   0.43658   0.00000  Uiso   1.00
O84    O     0.37767   0.09282   0.13403   0.00000  Uiso   1.00
O85    O     0.64051   0.25662   0.98548   0.00000  Uiso   1.00
O86    O     0.49667   0.11145   0.57343   0.00000  Uiso   1.00
N87    N     0.28994   0.98715   0.19175   0.00000  Uiso   1.00
N88    N     0.76461   0.39128   0.08587   0.00000  Uiso   1.00
N89    N     0.37469   0.28780   0.50484   0.00000  Uiso   1.00
N90    N     0.34707   0.85027   0.13210   0.00000  Uiso   1.00
N91    N     0.82174   0.25440   0.02622   0.00000  Uiso   1.00
N92    N     0.43182   0.15092   0.44519   0.00000  Uiso   1.00
C93    C     0.13811   0.93251   0.76609   0.00000  Uiso   1.00
C94    C     0.19393   0.85030   0.73103   0.00000  Uiso   1.00
C95    C     0.20903   0.70494   0.73478   0.00000  Uiso   1.00
C96    C     0.26197   0.65003   0.69902   0.00000  Uiso   1.00
C97    C     0.34305   0.50908   0.65035   0.00000  Uiso   1.00
C98    C     0.04914   0.01451   0.70184   0.00000  Uiso   1.00
C99    C     0.94250   0.00723   0.68105   0.00000  Uiso   1.00
C100   C     0.87357   0.09056   0.62073   0.00000  Uiso   1.00
C101   C     0.72986   0.20463   0.52678   0.00000  Uiso   1.00
C102   C     0.21729   0.04301   0.81731   0.00000  Uiso   1.00
C103   C     0.25201   0.05972   0.89361   0.00000  Uiso   1.00
C104   C     0.32463   0.16708   0.93050   0.00000  Uiso   1.00
C105   C     0.44200   0.32539   0.01584   0.00000  Uiso   1.00
C106   C     0.20528   0.09348   0.69594   0.00000  Uiso   1.00
C107   C     0.23041   0.93774   0.69293   0.00000  Uiso   1.00
C108   C     0.28335   0.88304   0.65716   0.00000  Uiso   1.00
C109   C     0.29853   0.73762   0.66086   0.00000  Uiso   1.00
C110   C     0.08562   0.10194   0.66374   0.00000  Uiso   1.00
C111   C     0.01683   0.18532   0.60344   0.00000  Uiso   1.00
C112   C     0.91011   0.17815   0.58256   0.00000  Uiso   1.00
C113   C     0.25378   0.13045   0.77921   0.00000  Uiso   1.00
C114   C     0.32634   0.23781   0.81599   0.00000  Uiso   1.00
C115   C     0.36118   0.25467   0.89233   0.00000  Uiso   1.00
H116   H     0.10970   0.86444   0.79575   0.00000  Uiso   1.00
H117   H     0.18077   0.63731   0.76426   0.00000  Uiso   1.00
H118   H     0.91429   0.93957   0.71055   0.00000  Uiso   1.00
H119   H     0.22376   0.99204   0.92307   0.00000  Uiso   1.00
H120   H     0.27563   0.42405   0.71253   0.00000  Uiso   1.00
H121   H     0.71375   0.06140   0.59929   0.00000  Uiso   1.00
H122   H     0.36632   0.17206   0.04744   0.00000  Uiso   1.00
H123   H     0.23369   0.16155   0.66627   0.00000  Uiso   1.00
H124   H     0.31158   0.95072   0.62768   0.00000  Uiso   1.00
H125   H     0.04509   0.25297   0.57397   0.00000  Uiso   1.00
H126   H     0.35456   0.30545   0.78649   0.00000  Uiso   1.00
H127   H     0.38179   0.67842   0.60167   0.00000  Uiso   1.00
H128   H     0.81990   0.31578   0.48844   0.00000  Uiso   1.00
H129   H     0.47248   0.42643   0.93658   0.00000  Uiso   1.00
O130   O     0.37767   0.40718   0.63403   0.00000  Uiso   1.00
O131   O     0.64051   0.24338   0.48548   0.00000  Uiso   1.00
O132   O     0.49667   0.38855   0.07343   0.00000  Uiso   1.00
N133   N     0.28994   0.51285   0.69175   0.00000  Uiso   1.00
N134   N     0.76461   0.10872   0.58587   0.00000  Uiso   1.00
N135   N     0.37469   0.21220   0.00484   0.00000  Uiso   1.00
N136   N     0.34707   0.64973   0.63210   0.00000  Uiso   1.00
N137   N     0.82174   0.24560   0.52622   0.00000  Uiso   1.00
N138   N     0.43182   0.34908   0.94519   0.00000  Uiso   1.00
C139   C     0.86189   0.43251   0.73391   0.00000  Uiso   1.00
C140   C     0.80607   0.35030   0.76897   0.00000  Uiso   1.00
C141   C     0.79097   0.20494   0.76522   0.00000  Uiso   1.00
C142   C     0.73803   0.15003   0.80098   0.00000  Uiso   1.00
C143   C     0.65695   0.00908   0.84965   0.00000  Uiso   1.00
C144   C     0.95086   0.51451   0.79816   0.00000  Uiso   1.00
C145   C     0.05750   0.50723   0.81895   0.00000  Uiso   1.00
C146   C     0.12643   0.59056   0.87927   0.00000  Uiso   1.00
C147   C     0.27014   0.70463   0.97322   0.00000  Uiso   1.00
C148   C     0.78271   0.54301   0.68269   0.00000  Uiso   1.00
C149   C     0.74799   0.55972   0.60639   0.00000  Uiso   1.00
C150   C     0.67537   0.66708   0.56950   0.00000  Uiso   1.00
C151   C     0.55800   0.82539   0.48416   0.00000  Uiso   1.00
C152   C     0.79472   0.59348   0.80406   0.00000  Uiso   1.00
C153   C     0.76959   0.43774   0.80707   0.00000  Uiso   1.00
C154   C     0.71665   0.38304   0.84284   0.00000  Uiso   1.00
C155   C     0.70147   0.23762   0.83914   0.00000  Uiso   1.00
C156   C     0.91438   0.60194   0.83626   0.00000  Uiso   1.00
C157   C     0.98317   0.68532   0.89656   0.00000  Uiso   1.00
C158   C     0.08989   0.67815   0.91744   0.00000  Uiso   1.00
C159   C     0.74622   0.63045   0.72079   0.00000  Uiso   1.00
C160   C     0.67366   0.73781   0.68401   0.00000  Uiso   1.00
C161   C     0.63882   0.75467   0.60767   0.00000  Uiso   1.00
H162   H     0.89030   0.36444   0.70425   0.00000  Uiso   1.00
H163   H     0.81923   0.13731   0.73574   0.00000  Uiso   1.00
H164   H     0.08571   0.43957   0.78945   0.00000  Uiso   1.00
H165   H     0.77624   0.49204   0.57693   0.00000  Uiso   1.00
H166   H     0.72437   0.92405   0.78747   0.00000  Uiso   1.00
H167   H     0.28625   0.56140   0.90071   0.00000  Uiso   1.00
H168   H     0.63368   0.67206   0.45256   0.00000  Uiso   1.00
H169   H     0.76631   0.66155   0.83373   0.00000  Uiso   1.00
H170   H     0.68842   0.45072   0.87232   0.00000  Uiso   1.00
H171   H     0.95491   0.75297   0.92603   0.00000  Uiso   1.00
H172   H     0.64544   0.80545   0.71351   0.00000  Uiso   1.00
H173   H     0.61821   0.17842   0.89833   0.00000  Uiso   1.00
H174   H     0.18010   0.81578   0.01156   0.00000  Uiso   1.00
H175   H     0.52752   0.92643   0.56342   0.00000  Uiso   1.00
O176   O     0.62233   0.90718   0.86597   0.00000  Uiso   1.00
O177   O     0.35949   0.74338   0.01452   0.00000  Uiso   1.00
O178   O     0.50333   0.88855   0.42657   0.00000  Uiso   1.00
N179   N     0.71006   0.01285   0.80825   0.00000  Uiso   1.00
N180   N     0.23539   0.60872   0.91413   0.00000  Uiso   1.00
N181   N     0.62531   0.71220   0.49516   0.00000  Uiso   1.00
N182   N     0.65293   0.14973   0.86790   0.00000  Uiso   1.00
N183   N     0.17826   0.74560   0.97378   0.00000  Uiso   1.00
N184   N     0.56818   0.84908   0.55481   0.00000  Uiso   1.00
