data_job_04882
_audit_creation_date              2018-12-19
_audit_creation_method            'Materials Studio'
_symmetry_space_group_name_H-M    'P1'
_symmetry_Int_Tables_number       1
_symmetry_cell_setting            triclinic
loop_
_symmetry_equiv_pos_as_xyz
  x,y,z
_cell_length_a                    21.3127
_cell_length_b                    10.2339
_cell_length_c                    12.2471
_cell_angle_alpha                 90.0000
_cell_angle_beta                  90.0000
_cell_angle_gamma                 90.0000
loop_
_atom_site_label
_atom_site_type_symbol
_atom_site_fract_x
_atom_site_fract_y
_atom_site_fract_z
_atom_site_U_iso_or_equiv
_atom_site_adp_type
_atom_site_occupancy
C1     C     0.54974   0.88588   0.32818   0.00000  Uiso   1.00
C2     C     0.58019   0.80104   0.24061   0.00000  Uiso   1.00
C3     C     0.55515   0.77388   0.13851   0.00000  Uiso   1.00
C4     C     0.59027   0.69415   0.07012   0.00000  Uiso   1.00
C5     C     0.62871   0.57007   0.92920   0.00000  Uiso   1.00
C6     C     0.54494   0.80041   0.42984   0.00000  Uiso   1.00
C7     C     0.49025   0.77276   0.48684   0.00000  Uiso   1.00
C8     C     0.49570   0.69251   0.57776   0.00000  Uiso   1.00
C9     C     0.47941   0.56755   0.73066   0.00000  Uiso   1.00
C10    C     0.59737   0.99223   0.35531   0.00000  Uiso   1.00
C11    C     0.58676   0.12586   0.34968   0.00000  Uiso   1.00
C12    C     0.63635   0.20711   0.37788   0.00000  Uiso   1.00
C13    C     0.70146   0.37997   0.41506   0.00000  Uiso   1.00
C14    C     0.65667   0.79257   0.38830   0.00000  Uiso   1.00
C15    C     0.63827   0.75035   0.27327   0.00000  Uiso   1.00
C16    C     0.67345   0.67065   0.20502   0.00000  Uiso   1.00
C17    C     0.64846   0.64339   0.10283   0.00000  Uiso   1.00
C18    C     0.60302   0.74973   0.46249   0.00000  Uiso   1.00
C19    C     0.60855   0.66952   0.55335   0.00000  Uiso   1.00
C20    C     0.55389   0.64174   0.61048   0.00000  Uiso   1.00
C21    C     0.65545   0.94155   0.38796   0.00000  Uiso   1.00
C22    C     0.70506   0.02262   0.41619   0.00000  Uiso   1.00
C23    C     0.69453   0.15634   0.41060   0.00000  Uiso   1.00
H24    H     0.50452   0.92533   0.30276   0.00000  Uiso   1.00
H25    H     0.51019   0.81311   0.11327   0.00000  Uiso   1.00
H26    H     0.44531   0.81200   0.46155   0.00000  Uiso   1.00
H27    H     0.54181   0.16504   0.32441   0.00000  Uiso   1.00
H28    H     0.54208   0.66631   0.91759   0.00000  Uiso   1.00
H29    H     0.40528   0.66400   0.65199   0.00000  Uiso   1.00
H30    H     0.60875   0.40846   0.36279   0.00000  Uiso   1.00
H31    H     0.70189   0.75311   0.41373   0.00000  Uiso   1.00
H32    H     0.71839   0.63144   0.23031   0.00000  Uiso   1.00
H33    H     0.65351   0.63032   0.57860   0.00000  Uiso   1.00
H34    H     0.75000   0.98336   0.44146   0.00000  Uiso   1.00
H35    H     0.71106   0.51885   0.01259   0.00000  Uiso   1.00
H36    H     0.57426   0.51654   0.74700   0.00000  Uiso   1.00
H37    H     0.77773   0.26100   0.45780   0.00000  Uiso   1.00
O38    O     0.63386   0.51562   0.84245   0.00000  Uiso   1.00
O39    O     0.45438   0.51260   0.80596   0.00000  Uiso   1.00
O40    O     0.72133   0.48931   0.42654   0.00000  Uiso   1.00
N41    N     0.57959   0.64833   0.96511   0.00000  Uiso   1.00
N42    N     0.45169   0.64614   0.65172   0.00000  Uiso   1.00
N43    N     0.64191   0.34215   0.38138   0.00000  Uiso   1.00
N44    N     0.67052   0.56898   0.01623   0.00000  Uiso   1.00
N45    N     0.54261   0.56680   0.70284   0.00000  Uiso   1.00
N46    N     0.73284   0.26281   0.43249   0.00000  Uiso   1.00
C47    C     0.45026   0.11412   0.82818   0.00000  Uiso   1.00
C48    C     0.41981   0.19896   0.74061   0.00000  Uiso   1.00
C49    C     0.44485   0.22612   0.63851   0.00000  Uiso   1.00
C50    C     0.40973   0.30585   0.57012   0.00000  Uiso   1.00
C51    C     0.37129   0.42993   0.42920   0.00000  Uiso   1.00
C52    C     0.45506   0.19959   0.92984   0.00000  Uiso   1.00
C53    C     0.50975   0.22724   0.98684   0.00000  Uiso   1.00
C54    C     0.50430   0.30749   0.07776   0.00000  Uiso   1.00
C55    C     0.52059   0.43245   0.23066   0.00000  Uiso   1.00
C56    C     0.40263   0.00777   0.85531   0.00000  Uiso   1.00
C57    C     0.41324   0.87414   0.84968   0.00000  Uiso   1.00
C58    C     0.36365   0.79289   0.87788   0.00000  Uiso   1.00
C59    C     0.29854   0.62003   0.91506   0.00000  Uiso   1.00
C60    C     0.34333   0.20743   0.88830   0.00000  Uiso   1.00
C61    C     0.36173   0.24965   0.77327   0.00000  Uiso   1.00
C62    C     0.32655   0.32935   0.70502   0.00000  Uiso   1.00
C63    C     0.35154   0.35661   0.60283   0.00000  Uiso   1.00
C64    C     0.39698   0.25027   0.96249   0.00000  Uiso   1.00
C65    C     0.39145   0.33048   0.05335   0.00000  Uiso   1.00
C66    C     0.44611   0.35826   0.11048   0.00000  Uiso   1.00
C67    C     0.34455   0.05845   0.88796   0.00000  Uiso   1.00
C68    C     0.29494   0.97738   0.91619   0.00000  Uiso   1.00
C69    C     0.30547   0.84366   0.91060   0.00000  Uiso   1.00
H70    H     0.49548   0.07467   0.80276   0.00000  Uiso   1.00
H71    H     0.48981   0.18689   0.61327   0.00000  Uiso   1.00
H72    H     0.55469   0.18800   0.96155   0.00000  Uiso   1.00
H73    H     0.45819   0.83496   0.82441   0.00000  Uiso   1.00
H74    H     0.45792   0.33369   0.41759   0.00000  Uiso   1.00
H75    H     0.59472   0.33600   0.15199   0.00000  Uiso   1.00
H76    H     0.39125   0.59154   0.86279   0.00000  Uiso   1.00
H77    H     0.29811   0.24689   0.91373   0.00000  Uiso   1.00
H78    H     0.28161   0.36856   0.73031   0.00000  Uiso   1.00
H79    H     0.34649   0.36968   0.07860   0.00000  Uiso   1.00
H80    H     0.25000   0.01664   0.94146   0.00000  Uiso   1.00
H81    H     0.28894   0.48115   0.51259   0.00000  Uiso   1.00
H82    H     0.42574   0.48346   0.24700   0.00000  Uiso   1.00
H83    H     0.22227   0.73900   0.95780   0.00000  Uiso   1.00
O84    O     0.36614   0.48438   0.34245   0.00000  Uiso   1.00
O85    O     0.54562   0.48740   0.30596   0.00000  Uiso   1.00
O86    O     0.27867   0.51069   0.92654   0.00000  Uiso   1.00
N87    N     0.42041   0.35167   0.46511   0.00000  Uiso   1.00
N88    N     0.54831   0.35386   0.15172   0.00000  Uiso   1.00
N89    N     0.35809   0.65785   0.88138   0.00000  Uiso   1.00
N90    N     0.32948   0.43102   0.51623   0.00000  Uiso   1.00
N91    N     0.45739   0.43320   0.20284   0.00000  Uiso   1.00
N92    N     0.26716   0.73719   0.93249   0.00000  Uiso   1.00
C93    C     0.04974   0.11412   0.32818   0.00000  Uiso   1.00
C94    C     0.08019   0.19896   0.24061   0.00000  Uiso   1.00
C95    C     0.05515   0.22612   0.13851   0.00000  Uiso   1.00
C96    C     0.09027   0.30585   0.07012   0.00000  Uiso   1.00
C97    C     0.12871   0.42993   0.92920   0.00000  Uiso   1.00
C98    C     0.04494   0.19959   0.42984   0.00000  Uiso   1.00
C99    C     0.99025   0.22724   0.48684   0.00000  Uiso   1.00
C100   C     0.99570   0.30749   0.57776   0.00000  Uiso   1.00
C101   C     0.97941   0.43245   0.73066   0.00000  Uiso   1.00
C102   C     0.09737   0.00777   0.35531   0.00000  Uiso   1.00
C103   C     0.08676   0.87414   0.34968   0.00000  Uiso   1.00
C104   C     0.13635   0.79289   0.37788   0.00000  Uiso   1.00
C105   C     0.20146   0.62003   0.41506   0.00000  Uiso   1.00
C106   C     0.15667   0.20743   0.38830   0.00000  Uiso   1.00
C107   C     0.13827   0.24965   0.27327   0.00000  Uiso   1.00
C108   C     0.17345   0.32935   0.20502   0.00000  Uiso   1.00
C109   C     0.14846   0.35661   0.10283   0.00000  Uiso   1.00
C110   C     0.10302   0.25027   0.46249   0.00000  Uiso   1.00
C111   C     0.10855   0.33048   0.55335   0.00000  Uiso   1.00
C112   C     0.05389   0.35826   0.61048   0.00000  Uiso   1.00
C113   C     0.15545   0.05845   0.38796   0.00000  Uiso   1.00
C114   C     0.20506   0.97738   0.41619   0.00000  Uiso   1.00
C115   C     0.19453   0.84366   0.41060   0.00000  Uiso   1.00
H116   H     0.00452   0.07467   0.30276   0.00000  Uiso   1.00
H117   H     0.01019   0.18689   0.11327   0.00000  Uiso   1.00
H118   H     0.94531   0.18800   0.46155   0.00000  Uiso   1.00
H119   H     0.04181   0.83496   0.32441   0.00000  Uiso   1.00
H120   H     0.04208   0.33369   0.91759   0.00000  Uiso   1.00
H121   H     0.90528   0.33600   0.65199   0.00000  Uiso   1.00
H122   H     0.10875   0.59154   0.36279   0.00000  Uiso   1.00
H123   H     0.20189   0.24689   0.41373   0.00000  Uiso   1.00
H124   H     0.21839   0.36856   0.23031   0.00000  Uiso   1.00
H125   H     0.15351   0.36968   0.57860   0.00000  Uiso   1.00
H126   H     0.25000   0.01664   0.44146   0.00000  Uiso   1.00
H127   H     0.21106   0.48115   0.01259   0.00000  Uiso   1.00
H128   H     0.07426   0.48346   0.74700   0.00000  Uiso   1.00
H129   H     0.27773   0.73900   0.45780   0.00000  Uiso   1.00
O130   O     0.13386   0.48438   0.84245   0.00000  Uiso   1.00
O131   O     0.95438   0.48740   0.80596   0.00000  Uiso   1.00
O132   O     0.22133   0.51069   0.42654   0.00000  Uiso   1.00
N133   N     0.07959   0.35167   0.96511   0.00000  Uiso   1.00
N134   N     0.95169   0.35386   0.65172   0.00000  Uiso   1.00
N135   N     0.14191   0.65785   0.38138   0.00000  Uiso   1.00
N136   N     0.17052   0.43102   0.01623   0.00000  Uiso   1.00
N137   N     0.04261   0.43320   0.70284   0.00000  Uiso   1.00
N138   N     0.23284   0.73719   0.43249   0.00000  Uiso   1.00
C139   C     0.95026   0.88588   0.82818   0.00000  Uiso   1.00
C140   C     0.91981   0.80104   0.74061   0.00000  Uiso   1.00
C141   C     0.94485   0.77388   0.63851   0.00000  Uiso   1.00
C142   C     0.90973   0.69415   0.57012   0.00000  Uiso   1.00
C143   C     0.87129   0.57007   0.42920   0.00000  Uiso   1.00
C144   C     0.95506   0.80041   0.92984   0.00000  Uiso   1.00
C145   C     0.00975   0.77276   0.98684   0.00000  Uiso   1.00
C146   C     0.00430   0.69251   0.07776   0.00000  Uiso   1.00
C147   C     0.02059   0.56755   0.23066   0.00000  Uiso   1.00
C148   C     0.90263   0.99223   0.85531   0.00000  Uiso   1.00
C149   C     0.91324   0.12586   0.84968   0.00000  Uiso   1.00
C150   C     0.86365   0.20711   0.87788   0.00000  Uiso   1.00
C151   C     0.79854   0.37997   0.91506   0.00000  Uiso   1.00
C152   C     0.84333   0.79257   0.88830   0.00000  Uiso   1.00
C153   C     0.86173   0.75035   0.77327   0.00000  Uiso   1.00
C154   C     0.82655   0.67065   0.70502   0.00000  Uiso   1.00
C155   C     0.85154   0.64339   0.60283   0.00000  Uiso   1.00
C156   C     0.89698   0.74973   0.96249   0.00000  Uiso   1.00
C157   C     0.89145   0.66952   0.05335   0.00000  Uiso   1.00
C158   C     0.94611   0.64174   0.11048   0.00000  Uiso   1.00
C159   C     0.84455   0.94155   0.88796   0.00000  Uiso   1.00
C160   C     0.79494   0.02262   0.91619   0.00000  Uiso   1.00
C161   C     0.80547   0.15634   0.91060   0.00000  Uiso   1.00
H162   H     0.99548   0.92533   0.80276   0.00000  Uiso   1.00
H163   H     0.98981   0.81311   0.61327   0.00000  Uiso   1.00
H164   H     0.05469   0.81200   0.96155   0.00000  Uiso   1.00
H165   H     0.95819   0.16504   0.82441   0.00000  Uiso   1.00
H166   H     0.95792   0.66631   0.41759   0.00000  Uiso   1.00
H167   H     0.09472   0.66400   0.15199   0.00000  Uiso   1.00
H168   H     0.89125   0.40846   0.86279   0.00000  Uiso   1.00
H169   H     0.79811   0.75311   0.91373   0.00000  Uiso   1.00
H170   H     0.78161   0.63144   0.73031   0.00000  Uiso   1.00
H171   H     0.84649   0.63032   0.07860   0.00000  Uiso   1.00
H172   H     0.75000   0.98336   0.94146   0.00000  Uiso   1.00
H173   H     0.78894   0.51885   0.51259   0.00000  Uiso   1.00
H174   H     0.92574   0.51654   0.24700   0.00000  Uiso   1.00
H175   H     0.72227   0.26100   0.95780   0.00000  Uiso   1.00
O176   O     0.86614   0.51562   0.34245   0.00000  Uiso   1.00
O177   O     0.04562   0.51260   0.30596   0.00000  Uiso   1.00
O178   O     0.77867   0.48931   0.92654   0.00000  Uiso   1.00
N179   N     0.92041   0.64833   0.46511   0.00000  Uiso   1.00
N180   N     0.04831   0.64614   0.15172   0.00000  Uiso   1.00
N181   N     0.85809   0.34215   0.88138   0.00000  Uiso   1.00
N182   N     0.82948   0.56898   0.51623   0.00000  Uiso   1.00
N183   N     0.95739   0.56680   0.20284   0.00000  Uiso   1.00
N184   N     0.76716   0.26281   0.93249   0.00000  Uiso   1.00
