data_job_06766
_audit_creation_date              2018-12-19
_audit_creation_method            'Materials Studio'
_symmetry_space_group_name_H-M    'P1'
_symmetry_Int_Tables_number       1
_symmetry_cell_setting            triclinic
loop_
_symmetry_equiv_pos_as_xyz
  x,y,z
_cell_length_a                    22.3689
_cell_length_b                    19.5243
_cell_length_c                    21.2784
_cell_angle_alpha                 76.9946
_cell_angle_beta                  71.5339
_cell_angle_gamma                 76.1633
loop_
_atom_site_label
_atom_site_type_symbol
_atom_site_fract_x
_atom_site_fract_y
_atom_site_fract_z
_atom_site_U_iso_or_equiv
_atom_site_adp_type
_atom_site_occupancy
C1     C     0.95010   0.22496   0.30205   0.00000  Uiso   1.00
C2     C     0.92618   0.15424   0.32933   0.00000  Uiso   1.00
C3     C     0.91967   0.10895   0.29109   0.00000  Uiso   1.00
C4     C     0.89698   0.04676   0.32553   0.00000  Uiso   1.00
C5     C     0.86219   0.93944   0.35723   0.00000  Uiso   1.00
C6     C     0.89745   0.28136   0.33620   0.00000  Uiso   1.00
C7     C     0.86679   0.34296   0.30373   0.00000  Uiso   1.00
C8     C     0.81991   0.38779   0.34395   0.00000  Uiso   1.00
C9     C     0.74055   0.47785   0.38631   0.00000  Uiso   1.00
C10    C     0.00698   0.21878   0.32913   0.00000  Uiso   1.00
C11    C     0.06840   0.22778   0.29071   0.00000  Uiso   1.00
C12    C     0.11373   0.21993   0.32499   0.00000  Uiso   1.00
C13    C     0.20442   0.21283   0.35637   0.00000  Uiso   1.00
C14    C     0.92139   0.19504   0.43122   0.00000  Uiso   1.00
C15    C     0.91059   0.13799   0.39950   0.00000  Uiso   1.00
C16    C     0.88791   0.07585   0.43401   0.00000  Uiso   1.00
C17    C     0.88136   0.03048   0.39582   0.00000  Uiso   1.00
C18    C     0.88186   0.26511   0.40636   0.00000  Uiso   1.00
C19    C     0.83503   0.30986   0.44665   0.00000  Uiso   1.00
C20    C     0.80429   0.37151   0.41425   0.00000  Uiso   1.00
C21    C     0.99138   0.20253   0.39929   0.00000  Uiso   1.00
C22    C     0.03663   0.19468   0.43364   0.00000  Uiso   1.00
C23    C     0.09811   0.20366   0.39528   0.00000  Uiso   1.00
H24    H     0.96223   0.23761   0.24742   0.00000  Uiso   1.00
H25    H     0.93173   0.12155   0.23679   0.00000  Uiso   1.00
H26    H     0.87887   0.35552   0.24943   0.00000  Uiso   1.00
H27    H     0.08044   0.24035   0.23642   0.00000  Uiso   1.00
H28    H     0.89102   0.98571   0.25595   0.00000  Uiso   1.00
H29    H     0.77956   0.47908   0.28260   0.00000  Uiso   1.00
H30    H     0.20463   0.23623   0.25516   0.00000  Uiso   1.00
H31    H     0.90925   0.18239   0.48585   0.00000  Uiso   1.00
H32    H     0.87584   0.06329   0.48831   0.00000  Uiso   1.00
H33    H     0.82297   0.29727   0.50094   0.00000  Uiso   1.00
H34    H     0.02455   0.18210   0.48793   0.00000  Uiso   1.00
H35    H     0.84566   0.93844   0.46009   0.00000  Uiso   1.00
H36    H     0.73420   0.43180   0.48674   0.00000  Uiso   1.00
H37    H     0.15926   0.18895   0.45930   0.00000  Uiso   1.00
O38    O     0.84730   0.88474   0.35533   0.00000  Uiso   1.00
O39    O     0.70108   0.53202   0.39029   0.00000  Uiso   1.00
O40    O     0.25875   0.21340   0.35429   0.00000  Uiso   1.00
N41    N     0.88494   0.99092   0.30366   0.00000  Uiso   1.00
N42    N     0.78072   0.45219   0.32857   0.00000  Uiso   1.00
N43    N     0.17812   0.22516   0.30292   0.00000  Uiso   1.00
N44    N     0.86053   0.96548   0.41350   0.00000  Uiso   1.00
N45    N     0.75631   0.42675   0.43842   0.00000  Uiso   1.00
N46    N     0.15371   0.19972   0.41277   0.00000  Uiso   1.00
C47    C     0.11039   0.96894   0.16093   0.00000  Uiso   1.00
C48    C     0.12161   0.93939   0.09681   0.00000  Uiso   1.00
C49    C     0.08613   0.96465   0.05067   0.00000  Uiso   1.00
C50    C     0.10400   0.93038   0.99523   0.00000  Uiso   1.00
C51    C     0.11357   0.89322   0.89704   0.00000  Uiso   1.00
C52    C     0.10094   0.90598   0.21815   0.00000  Uiso   1.00
C53    C     0.04808   0.90316   0.27403   0.00000  Uiso   1.00
C54    C     0.04854   0.84076   0.32074   0.00000  Uiso   1.00
C55    C     0.02604   0.75175   0.41095   0.00000  Uiso   1.00
C56    C     0.17359   0.98893   0.15661   0.00000  Uiso   1.00
C57    C     0.18181   0.05586   0.16077   0.00000  Uiso   1.00
C58    C     0.24345   0.06330   0.15569   0.00000  Uiso   1.00
C59    C     0.33375   0.10309   0.15035   0.00000  Uiso   1.00
C60    C     0.20522   0.86315   0.14454   0.00000  Uiso   1.00
C61    C     0.17312   0.88193   0.08791   0.00000  Uiso   1.00
C62    C     0.19105   0.84761   0.03253   0.00000  Uiso   1.00
C63    C     0.15560   0.87281   0.98631   0.00000  Uiso   1.00
C64    C     0.15245   0.84852   0.20925   0.00000  Uiso   1.00
C65    C     0.15300   0.78611   0.25589   0.00000  Uiso   1.00
C66    C     0.10015   0.78319   0.31182   0.00000  Uiso   1.00
C67    C     0.22510   0.93147   0.14771   0.00000  Uiso   1.00
C68    C     0.28673   0.93881   0.14262   0.00000  Uiso   1.00
C69    C     0.29505   0.00573   0.14677   0.00000  Uiso   1.00
H70    H     0.07028   0.01367   0.16787   0.00000  Uiso   1.00
H71    H     0.04627   0.00912   0.05758   0.00000  Uiso   1.00
H72    H     0.00822   0.94764   0.28091   0.00000  Uiso   1.00
H73    H     0.14194   0.10031   0.16766   0.00000  Uiso   1.00
H74    H     0.04234   0.97871   0.93138   0.00000  Uiso   1.00
H75    H     0.96213   0.84909   0.40230   0.00000  Uiso   1.00
H76    H     0.24410   0.17103   0.16349   0.00000  Uiso   1.00
H77    H     0.24532   0.81841   0.13761   0.00000  Uiso   1.00
H78    H     0.23091   0.80314   0.02565   0.00000  Uiso   1.00
H79    H     0.19287   0.74166   0.24898   0.00000  Uiso   1.00
H80    H     0.32658   0.89433   0.13573   0.00000  Uiso   1.00
H81    H     0.19220   0.81153   0.90547   0.00000  Uiso   1.00
H82    H     0.11200   0.68191   0.37639   0.00000  Uiso   1.00
H83    H     0.39396   0.00385   0.13758   0.00000  Uiso   1.00
O84    O     0.10462   0.88859   0.84534   0.00000  Uiso   1.00
O85    O     0.99940   0.71853   0.46316   0.00000  Uiso   1.00
O86    O     0.36933   0.14091   0.14986   0.00000  Uiso   1.00
N87    N     0.07960   0.94147   0.94064   0.00000  Uiso   1.00
N88    N     0.00460   0.82027   0.38092   0.00000  Uiso   1.00
N89    N     0.26821   0.12126   0.15767   0.00000  Uiso   1.00
N90    N     0.16024   0.85151   0.92670   0.00000  Uiso   1.00
N91    N     0.08524   0.73032   0.36697   0.00000  Uiso   1.00
N92    N     0.34885   0.03130   0.14373   0.00000  Uiso   1.00
C93    C     0.98979   0.34457   0.10881   0.00000  Uiso   1.00
C94    C     0.92885   0.37219   0.08628   0.00000  Uiso   1.00
C95    C     0.87407   0.34192   0.11010   0.00000  Uiso   1.00
C96    C     0.82343   0.37520   0.08309   0.00000  Uiso   1.00
C97    C     0.72819   0.40874   0.05554   0.00000  Uiso   1.00
C98    C     0.04409   0.33215   0.04534   0.00000  Uiso   1.00
C99    C     0.08621   0.26822   0.03475   0.00000  Uiso   1.00
C100   C     0.13259   0.26779   0.97330   0.00000  Uiso   1.00
C101   C     0.21630   0.23918   0.88221   0.00000  Uiso   1.00
C102   C     0.00157   0.40674   0.13293   0.00000  Uiso   1.00
C103   C     0.00795   0.40553   0.19597   0.00000  Uiso   1.00
C104   C     0.01854   0.46790   0.20825   0.00000  Uiso   1.00
C105   C     0.03623   0.55511   0.25315   0.00000  Uiso   1.00
C106   C     0.99728   0.45749   0.01850   0.00000  Uiso   1.00
C107   C     0.93292   0.43353   0.03722   0.00000  Uiso   1.00
C108   C     0.88234   0.46686   0.01018   0.00000  Uiso   1.00
C109   C     0.82750   0.43665   0.03396   0.00000  Uiso   1.00
C110   C     0.04816   0.39348   0.99629   0.00000  Uiso   1.00
C111   C     0.09449   0.39315   0.93484   0.00000  Uiso   1.00
C112   C     0.13666   0.32924   0.92416   0.00000  Uiso   1.00
C113   C     0.00563   0.46808   0.08388   0.00000  Uiso   1.00
C114   C     0.01622   0.53047   0.09606   0.00000  Uiso   1.00
C115   C     0.02262   0.52935   0.15911   0.00000  Uiso   1.00
H116   H     0.98663   0.29681   0.14700   0.00000  Uiso   1.00
H117   H     0.87094   0.29445   0.14805   0.00000  Uiso   1.00
H118   H     0.08306   0.22076   0.07273   0.00000  Uiso   1.00
H119   H     0.00480   0.35805   0.23392   0.00000  Uiso   1.00
H120   H     0.74448   0.31887   0.12757   0.00000  Uiso   1.00
H121   H     0.19175   0.16349   0.96875   0.00000  Uiso   1.00
H122   H     0.02674   0.45300   0.30866   0.00000  Uiso   1.00
H123   H     0.00044   0.50525   0.98031   0.00000  Uiso   1.00
H124   H     0.88550   0.51433   0.97222   0.00000  Uiso   1.00
H125   H     0.09762   0.44063   0.89689   0.00000  Uiso   1.00
H126   H     0.01937   0.57792   0.05809   0.00000  Uiso   1.00
H127   H     0.75630   0.49732   0.98485   0.00000  Uiso   1.00
H128   H     0.20357   0.34195   0.82603   0.00000  Uiso   1.00
H129   H     0.03856   0.63145   0.16594   0.00000  Uiso   1.00
O130   O     0.67454   0.41029   0.05388   0.00000  Uiso   1.00
O131   O     0.26134   0.20645   0.84552   0.00000  Uiso   1.00
O132   O     0.04485   0.58627   0.29147   0.00000  Uiso   1.00
N133   N     0.76303   0.35963   0.09510   0.00000  Uiso   1.00
N134   N     0.18119   0.21436   0.94661   0.00000  Uiso   1.00
N135   N     0.02694   0.48501   0.26439   0.00000  Uiso   1.00
N136   N     0.76939   0.45566   0.01831   0.00000  Uiso   1.00
N137   N     0.18755   0.31038   0.86981   0.00000  Uiso   1.00
N138   N     0.03330   0.58104   0.18760   0.00000  Uiso   1.00
C139   C     0.30350   0.86287   0.50464   0.00000  Uiso   1.00
C140   C     0.25271   0.90896   0.47164   0.00000  Uiso   1.00
C141   C     0.24216   0.89891   0.41377   0.00000  Uiso   1.00
C142   C     0.19337   0.94685   0.39165   0.00000  Uiso   1.00
C143   C     0.12009   0.00988   0.33517   0.00000  Uiso   1.00
C144   C     0.26760   0.83653   0.57675   0.00000  Uiso   1.00
C145   C     0.26958   0.76558   0.60724   0.00000  Uiso   1.00
C146   C     0.23332   0.75256   0.67360   0.00000  Uiso   1.00
C147   C     0.18320   0.70315   0.78032   0.00000  Uiso   1.00
C148   C     0.34366   0.91372   0.50914   0.00000  Uiso   1.00
C149   C     0.40959   0.90766   0.48280   0.00000  Uiso   1.00
C150   C     0.43738   0.95961   0.49225   0.00000  Uiso   1.00
C151   C     0.50534   0.03003   0.49399   0.00000  Uiso   1.00
C152   C     0.23560   0.96589   0.56827   0.00000  Uiso   1.00
C153   C     0.21583   0.96492   0.50621   0.00000  Uiso   1.00
C154   C     0.16704   0.01289   0.48417   0.00000  Uiso   1.00
C155   C     0.15642   0.00291   0.42627   0.00000  Uiso   1.00
C156   C     0.23072   0.89249   0.61131   0.00000  Uiso   1.00
C157   C     0.19446   0.87956   0.67764   0.00000  Uiso   1.00
C158   C     0.19638   0.80862   0.70822   0.00000  Uiso   1.00
C159   C     0.30678   0.96968   0.54370   0.00000  Uiso   1.00
C160   C     0.33447   0.02164   0.55320   0.00000  Uiso   1.00
C161   C     0.40043   0.01566   0.52688   0.00000  Uiso   1.00
H162   H     0.33221   0.81931   0.47774   0.00000  Uiso   1.00
H163   H     0.27071   0.85559   0.38704   0.00000  Uiso   1.00
H164   H     0.29813   0.72229   0.58048   0.00000  Uiso   1.00
H165   H     0.43812   0.86435   0.45606   0.00000  Uiso   1.00
H166   H     0.18624   0.92049   0.30174   0.00000  Uiso   1.00
H167   H     0.24407   0.63942   0.70963   0.00000  Uiso   1.00
H168   H     0.53927   0.93896   0.44726   0.00000  Uiso   1.00
H169   H     0.20689   0.00946   0.59518   0.00000  Uiso   1.00
H170   H     0.13851   0.05619   0.51093   0.00000  Uiso   1.00
H171   H     0.16593   0.92288   0.70437   0.00000  Uiso   1.00
H172   H     0.30591   0.06493   0.57995   0.00000  Uiso   1.00
H173   H     0.07894   0.08329   0.40229   0.00000  Uiso   1.00
H174   H     0.13677   0.80222   0.81019   0.00000  Uiso   1.00
H175   H     0.43196   0.10177   0.54782   0.00000  Uiso   1.00
O176   O     0.08985   0.02918   0.29448   0.00000  Uiso   1.00
O177   O     0.16574   0.66043   0.82963   0.00000  Uiso   1.00
O178   O     0.55302   0.05342   0.48540   0.00000  Uiso   1.00
N179   N     0.17038   0.95240   0.33696   0.00000  Uiso   1.00
N180   N     0.22444   0.68962   0.71831   0.00000  Uiso   1.00
N181   N     0.50043   0.96965   0.47303   0.00000  Uiso   1.00
N182   N     0.11264   0.04001   0.39107   0.00000  Uiso   1.00
N183   N     0.16670   0.77722   0.77242   0.00000  Uiso   1.00
N184   N     0.44269   0.05726   0.52714   0.00000  Uiso   1.00
C185   C     0.68231   0.51006   0.61607   0.00000  Uiso   1.00
C186   C     0.74619   0.51096   0.56207   0.00000  Uiso   1.00
C187   C     0.79852   0.45533   0.55570   0.00000  Uiso   1.00
C188   C     0.85255   0.46665   0.50290   0.00000  Uiso   1.00
C189   C     0.95149   0.45819   0.42583   0.00000  Uiso   1.00
C190   C     0.63113   0.52676   0.57883   0.00000  Uiso   1.00
C191   C     0.58670   0.48442   0.58656   0.00000  Uiso   1.00
C192   C     0.54387   0.50905   0.54788   0.00000  Uiso   1.00
C193   C     0.46414   0.52515   0.49687   0.00000  Uiso   1.00
C194   C     0.67161   0.57404   0.65083   0.00000  Uiso   1.00
C195   C     0.66121   0.57146   0.71911   0.00000  Uiso   1.00
C196   C     0.65244   0.63590   0.74106   0.00000  Uiso   1.00
C197   C     0.63557   0.72541   0.80185   0.00000  Uiso   1.00
C198   C     0.68522   0.62910   0.53364   0.00000  Uiso   1.00
C199   C     0.74777   0.57562   0.51729   0.00000  Uiso   1.00
C200   C     0.80174   0.58702   0.46449   0.00000  Uiso   1.00
C201   C     0.85414   0.53142   0.45805   0.00000  Uiso   1.00
C202   C     0.63271   0.59141   0.53405   0.00000  Uiso   1.00
C203   C     0.58993   0.61612   0.49535   0.00000  Uiso   1.00
C204   C     0.54545   0.57382   0.50302   0.00000  Uiso   1.00
C205   C     0.67319   0.63870   0.60606   0.00000  Uiso   1.00
C206   C     0.66444   0.70315   0.62790   0.00000  Uiso   1.00
C207   C     0.65403   0.70067   0.69620   0.00000  Uiso   1.00
H208   H     0.68108   0.45973   0.65093   0.00000  Uiso   1.00
H209   H     0.79727   0.40530   0.59036   0.00000  Uiso   1.00
H210   H     0.58549   0.43439   0.62122   0.00000  Uiso   1.00
H211   H     0.65999   0.52141   0.75375   0.00000  Uiso   1.00
H212   H     0.92679   0.37345   0.50344   0.00000  Uiso   1.00
H213   H     0.48021   0.43481   0.56853   0.00000  Uiso   1.00
H214   H     0.63731   0.61832   0.84799   0.00000  Uiso   1.00
H215   H     0.68645   0.67944   0.49878   0.00000  Uiso   1.00
H216   H     0.80295   0.63706   0.42985   0.00000  Uiso   1.00
H217   H     0.59116   0.66615   0.46071   0.00000  Uiso   1.00
H218   H     0.66566   0.75318   0.59324   0.00000  Uiso   1.00
H219   H     0.93139   0.56156   0.37316   0.00000  Uiso   1.00
H220   H     0.48481   0.62292   0.43825   0.00000  Uiso   1.00
H221   H     0.64191   0.80642   0.71772   0.00000  Uiso   1.00
O222   O     0.00562   0.43566   0.39569   0.00000  Uiso   1.00
O223   O     0.41972   0.51616   0.48110   0.00000  Uiso   1.00
O224   O     0.62583   0.75692   0.84774   0.00000  Uiso   1.00
N225   N     0.91189   0.42354   0.48224   0.00000  Uiso   1.00
N226   N     0.49437   0.48090   0.54309   0.00000  Uiso   1.00
N227   N     0.64123   0.65247   0.80437   0.00000  Uiso   1.00
N228   N     0.91437   0.52477   0.41214   0.00000  Uiso   1.00
N229   N     0.49685   0.58212   0.47299   0.00000  Uiso   1.00
N230   N     0.64371   0.75369   0.73427   0.00000  Uiso   1.00
C231   C     0.52263   0.33563   0.75469   0.00000  Uiso   1.00
C232   C     0.48645   0.28964   0.81630   0.00000  Uiso   1.00
C233   C     0.43864   0.25445   0.81837   0.00000  Uiso   1.00
C234   C     0.41144   0.21508   0.87956   0.00000  Uiso   1.00
C235   C     0.35224   0.14425   0.96654   0.00000  Uiso   1.00
C236   C     0.59353   0.30360   0.74507   0.00000  Uiso   1.00
C237   C     0.63575   0.28015   0.68725   0.00000  Uiso   1.00
C238   C     0.69870   0.25254   0.68847   0.00000  Uiso   1.00
C239   C     0.80576   0.20344   0.66485   0.00000  Uiso   1.00
C240   C     0.51309   0.40860   0.77465   0.00000  Uiso   1.00
C241   C     0.48769   0.47344   0.74168   0.00000  Uiso   1.00
C242   C     0.48293   0.53423   0.76780   0.00000  Uiso   1.00
C243   C     0.46509   0.64815   0.79009   0.00000  Uiso   1.00
C244   C     0.55934   0.32830   0.85968   0.00000  Uiso   1.00
C245   C     0.50639   0.28566   0.87332   0.00000  Uiso   1.00
C246   C     0.47926   0.24634   0.93453   0.00000  Uiso   1.00
C247   C     0.43141   0.21109   0.93669   0.00000  Uiso   1.00
C248   C     0.61347   0.29962   0.80209   0.00000  Uiso   1.00
C249   C     0.67637   0.27205   0.80340   0.00000  Uiso   1.00
C250   C     0.71868   0.24856   0.74560   0.00000  Uiso   1.00
C251   C     0.53303   0.40462   0.83167   0.00000  Uiso   1.00
C252   C     0.52831   0.46533   0.85784   0.00000  Uiso   1.00
C253   C     0.50291   0.53024   0.82492   0.00000  Uiso   1.00
H254   H     0.50711   0.33872   0.71029   0.00000  Uiso   1.00
H255   H     0.42322   0.25753   0.77423   0.00000  Uiso   1.00
H256   H     0.62031   0.28325   0.64312   0.00000  Uiso   1.00
H257   H     0.47227   0.47650   0.69755   0.00000  Uiso   1.00
H258   H     0.33903   0.16575   0.87025   0.00000  Uiso   1.00
H259   H     0.75460   0.21998   0.59381   0.00000  Uiso   1.00
H260   H     0.44243   0.62749   0.70857   0.00000  Uiso   1.00
H261   H     0.57487   0.32520   0.90408   0.00000  Uiso   1.00
H262   H     0.49470   0.24327   0.97865   0.00000  Uiso   1.00
H263   H     0.69178   0.26898   0.84754   0.00000  Uiso   1.00
H264   H     0.54374   0.46223   0.90197   0.00000  Uiso   1.00
H265   H     0.39704   0.15416   0.03617   0.00000  Uiso   1.00
H266   H     0.81261   0.20840   0.75972   0.00000  Uiso   1.00
H267   H     0.50044   0.61591   0.87449   0.00000  Uiso   1.00
O268   O     0.31409   0.10628   0.99876   0.00000  Uiso   1.00
O269   O     0.85930   0.17745   0.63607   0.00000  Uiso   1.00
O270   O     0.44973   0.71209   0.78665   0.00000  Uiso   1.00
N271   N     0.36368   0.17428   0.89907   0.00000  Uiso   1.00
N272   N     0.75220   0.22497   0.64061   0.00000  Uiso   1.00
N273   N     0.46037   0.60596   0.74790   0.00000  Uiso   1.00
N274   N     0.39489   0.16804   0.98835   0.00000  Uiso   1.00
N275   N     0.78342   0.21874   0.72989   0.00000  Uiso   1.00
N276   N     0.49158   0.59973   0.83718   0.00000  Uiso   1.00
C277   C     0.77661   0.89069   0.66830   0.00000  Uiso   1.00
C278   C     0.84000   0.91775   0.64078   0.00000  Uiso   1.00
C279   C     0.85175   0.97928   0.65341   0.00000  Uiso   1.00
C280   C     0.91291   0.99478   0.62355   0.00000  Uiso   1.00
C281   C     0.00409   0.04353   0.58708   0.00000  Uiso   1.00
C282   C     0.79176   0.81486   0.70506   0.00000  Uiso   1.00
C283   C     0.76294   0.78989   0.77174   0.00000  Uiso   1.00
C284   C     0.78349   0.71878   0.79599   0.00000  Uiso   1.00
C285   C     0.79975   0.60779   0.85931   0.00000  Uiso   1.00
C286   C     0.75819   0.88334   0.60731   0.00000  Uiso   1.00
C287   C     0.70114   0.91594   0.59182   0.00000  Uiso   1.00
C288   C     0.69341   0.90246   0.53377   0.00000  Uiso   1.00
C289   C     0.65754   0.89780   0.44533   0.00000  Uiso   1.00
C290   C     0.86433   0.80880   0.59278   0.00000  Uiso   1.00
C291   C     0.88765   0.87326   0.59976   0.00000  Uiso   1.00
C292   C     0.94880   0.88867   0.56986   0.00000  Uiso   1.00
C293   C     0.96064   0.95022   0.58245   0.00000  Uiso   1.00
C294   C     0.83941   0.77038   0.66404   0.00000  Uiso   1.00
C295   C     0.86000   0.69928   0.68819   0.00000  Uiso   1.00
C296   C     0.83122   0.67421   0.75489   0.00000  Uiso   1.00
C297   C     0.80583   0.83886   0.56629   0.00000  Uiso   1.00
C298   C     0.79819   0.82533   0.50826   0.00000  Uiso   1.00
C299   C     0.74114   0.85790   0.49268   0.00000  Uiso   1.00
H300   H     0.73952   0.92532   0.70024   0.00000  Uiso   1.00
H301   H     0.81486   0.01369   0.68517   0.00000  Uiso   1.00
H302   H     0.72607   0.82433   0.80347   0.00000  Uiso   1.00
H303   H     0.66428   0.95036   0.62357   0.00000  Uiso   1.00
H304   H     0.91942   0.09203   0.65039   0.00000  Uiso   1.00
H305   H     0.73218   0.69275   0.89984   0.00000  Uiso   1.00
H306   H     0.60187   0.95850   0.52049   0.00000  Uiso   1.00
H307   H     0.90143   0.77416   0.56084   0.00000  Uiso   1.00
H308   H     0.98566   0.85423   0.53812   0.00000  Uiso   1.00
H309   H     0.89687   0.66487   0.65643   0.00000  Uiso   1.00
H310   H     0.83507   0.79090   0.47653   0.00000  Uiso   1.00
H311   H     0.05805   0.96261   0.53104   0.00000  Uiso   1.00
H312   H     0.87080   0.56332   0.78050   0.00000  Uiso   1.00
H313   H     0.74049   0.82908   0.40114   0.00000  Uiso   1.00
O314   O     0.04123   0.08271   0.57830   0.00000  Uiso   1.00
O315   O     0.79556   0.55886   0.90557   0.00000  Uiso   1.00
O316   O     0.62460   0.90752   0.40787   0.00000  Uiso   1.00
N317   N     0.94048   0.05059   0.62541   0.00000  Uiso   1.00
N318   N     0.76543   0.67729   0.85863   0.00000  Uiso   1.00
N319   N     0.64359   0.92572   0.50398   0.00000  Uiso   1.00
N320   N     0.01508   0.98095   0.56119   0.00000  Uiso   1.00
N321   N     0.84002   0.60765   0.79441   0.00000  Uiso   1.00
N322   N     0.71819   0.85608   0.43976   0.00000  Uiso   1.00
C323   C     0.52909   0.96533   0.72389   0.00000  Uiso   1.00
C324   C     0.49810   0.96238   0.79920   0.00000  Uiso   1.00
C325   C     0.52991   0.93856   0.84866   0.00000  Uiso   1.00
C326   C     0.49298   0.94009   0.91466   0.00000  Uiso   1.00
C327   C     0.45496   0.93182   0.02917   0.00000  Uiso   1.00
C328   C     0.51113   0.04271   0.69200   0.00000  Uiso   1.00
C329   C     0.55389   0.08642   0.65131   0.00000  Uiso   1.00
C330   C     0.52791   0.15557   0.62706   0.00000  Uiso   1.00
C331   C     0.51011   0.27199   0.57509   0.00000  Uiso   1.00
C332   C     0.49433   0.92179   0.70053   0.00000  Uiso   1.00
C333   C     0.52298   0.86385   0.66701   0.00000  Uiso   1.00
C334   C     0.48286   0.83121   0.64993   0.00000  Uiso   1.00
C335   C     0.43899   0.75989   0.61122   0.00000  Uiso   1.00
C336   C     0.40693   0.01040   0.75315   0.00000  Uiso   1.00
C337   C     0.43175   0.98686   0.81509   0.00000  Uiso   1.00
C338   C     0.39476   0.98842   0.88103   0.00000  Uiso   1.00
C339   C     0.42651   0.96461   0.93058   0.00000  Uiso   1.00
C340   C     0.44478   0.06719   0.70789   0.00000  Uiso   1.00
C341   C     0.41873   0.13628   0.68368   0.00000  Uiso   1.00
C342   C     0.46144   0.18009   0.64298   0.00000  Uiso   1.00
C343   C     0.42798   0.94627   0.71643   0.00000  Uiso   1.00
C344   C     0.38782   0.91371   0.69939   0.00000  Uiso   1.00
C345   C     0.41639   0.85573   0.66585   0.00000  Uiso   1.00
H346   H     0.58075   0.94627   0.71152   0.00000  Uiso   1.00
H347   H     0.58127   0.91963   0.83634   0.00000  Uiso   1.00
H348   H     0.60523   0.06746   0.63902   0.00000  Uiso   1.00
H349   H     0.57432   0.84492   0.65472   0.00000  Uiso   1.00
H350   H     0.55258   0.90091   0.98173   0.00000  Uiso   1.00
H351   H     0.60311   0.21261   0.56565   0.00000  Uiso   1.00
H352   H     0.53794   0.74335   0.59876   0.00000  Uiso   1.00
H353   H     0.35527   0.02946   0.76552   0.00000  Uiso   1.00
H354   H     0.34341   0.00737   0.89331   0.00000  Uiso   1.00
H355   H     0.36738   0.15521   0.69599   0.00000  Uiso   1.00
H356   H     0.33647   0.93267   0.71169   0.00000  Uiso   1.00
H357   H     0.35953   0.97212   0.02797   0.00000  Uiso   1.00
H358   H     0.41006   0.28383   0.61189   0.00000  Uiso   1.00
H359   H     0.34489   0.81457   0.64500   0.00000  Uiso   1.00
O360   O     0.45232   0.92051   0.08794   0.00000  Uiso   1.00
O361   O     0.51862   0.32945   0.54205   0.00000  Uiso   1.00
O362   O     0.43311   0.71379   0.58549   0.00000  Uiso   1.00
N363   N     0.50877   0.92068   0.97508   0.00000  Uiso   1.00
N364   N     0.55601   0.21211   0.58608   0.00000  Uiso   1.00
N365   N     0.49509   0.77341   0.61701   0.00000  Uiso   1.00
N366   N     0.40489   0.95901   0.99996   0.00000  Uiso   1.00
N367   N     0.45214   0.25043   0.61096   0.00000  Uiso   1.00
N368   N     0.39121   0.81173   0.64189   0.00000  Uiso   1.00
C369   C     0.49829   0.73317   0.21244   0.00000  Uiso   1.00
C370   C     0.55055   0.72225   0.24740   0.00000  Uiso   1.00
C371   C     0.57949   0.77541   0.25256   0.00000  Uiso   1.00
C372   C     0.62629   0.75454   0.28654   0.00000  Uiso   1.00
C373   C     0.70480   0.74846   0.33661   0.00000  Uiso   1.00
C374   C     0.44221   0.70352   0.26495   0.00000  Uiso   1.00
C375   C     0.38006   0.74092   0.28486   0.00000  Uiso   1.00
C376   C     0.33566   0.70427   0.33361   0.00000  Uiso   1.00
C377   C     0.24596   0.66910   0.41090   0.00000  Uiso   1.00
C378   C     0.52380   0.68355   0.16006   0.00000  Uiso   1.00
C379   C     0.53023   0.70417   0.09177   0.00000  Uiso   1.00
C380   C     0.55450   0.65070   0.05221   0.00000  Uiso   1.00
C381   C     0.59147   0.58454   0.96664   0.00000  Uiso   1.00
C382   C     0.52995   0.60157   0.26362   0.00000  Uiso   1.00
C383   C     0.56774   0.65077   0.27519   0.00000  Uiso   1.00
C384   C     0.61451   0.62981   0.30917   0.00000  Uiso   1.00
C385   C     0.64352   0.68293   0.31438   0.00000  Uiso   1.00
C386   C     0.45940   0.63204   0.29275   0.00000  Uiso   1.00
C387   C     0.41508   0.59532   0.34148   0.00000  Uiso   1.00
C388   C     0.35288   0.63266   0.36146   0.00000  Uiso   1.00
C389   C     0.54099   0.61207   0.18785   0.00000  Uiso   1.00
C390   C     0.56525   0.55857   0.14839   0.00000  Uiso   1.00
C391   C     0.57172   0.57910   0.08005   0.00000  Uiso   1.00
H392   H     0.48490   0.78882   0.19081   0.00000  Uiso   1.00
H393   H     0.56617   0.83072   0.23105   0.00000  Uiso   1.00
H394   H     0.36677   0.79623   0.26334   0.00000  Uiso   1.00
H395   H     0.51692   0.75949   0.07028   0.00000  Uiso   1.00
H396   H     0.66383   0.84566   0.28793   0.00000  Uiso   1.00
H397   H     0.24338   0.77294   0.35601   0.00000  Uiso   1.00
H398   H     0.56000   0.69545   0.94891   0.00000  Uiso   1.00
H399   H     0.54333   0.54592   0.28526   0.00000  Uiso   1.00
H400   H     0.62781   0.57449   0.33068   0.00000  Uiso   1.00
H401   H     0.42840   0.54001   0.36297   0.00000  Uiso   1.00
H402   H     0.57855   0.50326   0.16991   0.00000  Uiso   1.00
H403   H     0.71386   0.63770   0.36880   0.00000  Uiso   1.00
H404   H     0.29341   0.56497   0.43687   0.00000  Uiso   1.00
H405   H     0.61002   0.48748   0.02977   0.00000  Uiso   1.00
O406   O     0.74335   0.76486   0.35656   0.00000  Uiso   1.00
O407   O     0.19173   0.66945   0.44586   0.00000  Uiso   1.00
O408   O     0.60713   0.56778   0.91176   0.00000  Uiso   1.00
N409   N     0.66402   0.79279   0.30072   0.00000  Uiso   1.00
N410   N     0.27093   0.72480   0.36438   0.00000  Uiso   1.00
N411   N     0.56692   0.65235   0.98377   0.00000  Uiso   1.00
N412   N     0.69094   0.68089   0.34423   0.00000  Uiso   1.00
N413   N     0.29785   0.61290   0.40789   0.00000  Uiso   1.00
N414   N     0.59384   0.54045   0.02729   0.00000  Uiso   1.00
C415   C     0.57832   0.22234   0.25855   0.00000  Uiso   1.00
C416   C     0.61629   0.20362   0.31021   0.00000  Uiso   1.00
C417   C     0.61864   0.24928   0.35047   0.00000  Uiso   1.00
C418   C     0.65616   0.22202   0.39454   0.00000  Uiso   1.00
C419   C     0.70999   0.20368   0.47418   0.00000  Uiso   1.00
C420   C     0.62674   0.20735   0.19204   0.00000  Uiso   1.00
C421   C     0.63787   0.25613   0.13295   0.00000  Uiso   1.00
C422   C     0.68419   0.23200   0.07755   0.00000  Uiso   1.00
C423   C     0.75420   0.21944   0.97372   0.00000  Uiso   1.00
C424   C     0.53474   0.16723   0.27797   0.00000  Uiso   1.00
C425   C     0.46850   0.18228   0.29111   0.00000  Uiso   1.00
C426   C     0.43735   0.12438   0.30804   0.00000  Uiso   1.00
C427   C     0.36451   0.04952   0.33763   0.00000  Uiso   1.00
C428   C     0.64079   0.09274   0.26522   0.00000  Uiso   1.00
C429   C     0.65022   0.13323   0.31383   0.00000  Uiso   1.00
C430   C     0.68775   0.10590   0.35785   0.00000  Uiso   1.00
C431   C     0.69015   0.15150   0.39818   0.00000  Uiso   1.00
C432   C     0.66067   0.13696   0.19566   0.00000  Uiso   1.00
C433   C     0.70698   0.11275   0.14034   0.00000  Uiso   1.00
C434   C     0.71818   0.16149   0.08118   0.00000  Uiso   1.00
C435   C     0.56866   0.09684   0.28160   0.00000  Uiso   1.00
C436   C     0.53761   0.03890   0.29850   0.00000  Uiso   1.00
C437   C     0.47134   0.05386   0.31167   0.00000  Uiso   1.00
H438   H     0.55191   0.27714   0.25572   0.00000  Uiso   1.00
H439   H     0.59238   0.30375   0.34764   0.00000  Uiso   1.00
H440   H     0.61160   0.31060   0.13016   0.00000  Uiso   1.00
H441   H     0.44226   0.23676   0.28830   0.00000  Uiso   1.00
H442   H     0.65223   0.30222   0.45114   0.00000  Uiso   1.00
H443   H     0.69275   0.31666   0.99256   0.00000  Uiso   1.00
H444   H     0.33566   0.16095   0.32603   0.00000  Uiso   1.00
H445   H     0.66720   0.03794   0.26804   0.00000  Uiso   1.00
H446   H     0.71400   0.05142   0.36065   0.00000  Uiso   1.00
H447   H     0.73322   0.05827   0.14316   0.00000  Uiso   1.00
H448   H     0.56388   0.98443   0.30130   0.00000  Uiso   1.00
H449   H     0.75095   0.09742   0.46169   0.00000  Uiso   1.00
H450   H     0.79146   0.11186   0.00310   0.00000  Uiso   1.00
H451   H     0.43437   0.95615   0.33658   0.00000  Uiso   1.00
O452   O     0.73032   0.21302   0.51709   0.00000  Uiso   1.00
O453   O     0.78345   0.23195   0.91545   0.00000  Uiso   1.00
O454   O     0.31496   0.02767   0.35296   0.00000  Uiso   1.00
N455   N     0.66903   0.25217   0.44092   0.00000  Uiso   1.00
N456   N     0.70692   0.26567   0.01218   0.00000  Uiso   1.00
N457   N     0.37307   0.12010   0.32393   0.00000  Uiso   1.00
N458   N     0.72215   0.14197   0.44660   0.00000  Uiso   1.00
N459   N     0.76004   0.15547   0.01786   0.00000  Uiso   1.00
N460   N     0.42619   0.00990   0.32960   0.00000  Uiso   1.00
C461   C     0.05449   0.38176   0.70506   0.00000  Uiso   1.00
C462   C     0.98268   0.38150   0.73048   0.00000  Uiso   1.00
C463   C     0.94010   0.41344   0.78362   0.00000  Uiso   1.00
C464   C     0.87630   0.40719   0.79907   0.00000  Uiso   1.00
C465   C     0.76790   0.41237   0.84410   0.00000  Uiso   1.00
C466   C     0.08726   0.30352   0.70801   0.00000  Uiso   1.00
C467   C     0.13263   0.26989   0.74225   0.00000  Uiso   1.00
C468   C     0.15688   0.19799   0.73877   0.00000  Uiso   1.00
C469   C     0.21088   0.08211   0.74887   0.00000  Uiso   1.00
C470   C     0.06778   0.41371   0.63075   0.00000  Uiso   1.00
C471   C     0.09678   0.47274   0.60002   0.00000  Uiso   1.00
C472   C     0.10464   0.49360   0.53149   0.00000  Uiso   1.00
C473   C     0.12840   0.54882   0.42163   0.00000  Uiso   1.00
C474   C     0.01690   0.31385   0.63799   0.00000  Uiso   1.00
C475   C     0.96226   0.34461   0.69404   0.00000  Uiso   1.00
C476   C     0.89851   0.33831   0.70941   0.00000  Uiso   1.00
C477   C     0.85585   0.37023   0.76257   0.00000  Uiso   1.00
C478   C     0.06685   0.26663   0.67157   0.00000  Uiso   1.00
C479   C     0.09104   0.19476   0.66804   0.00000  Uiso   1.00
C480   C     0.13643   0.16103   0.70227   0.00000  Uiso   1.00
C481   C     0.04736   0.37683   0.59431   0.00000  Uiso   1.00
C482   C     0.05519   0.39760   0.52581   0.00000  Uiso   1.00
C483   C     0.08419   0.45665   0.49499   0.00000  Uiso   1.00
H484   H     0.07039   0.41047   0.73343   0.00000  Uiso   1.00
H485   H     0.95592   0.44198   0.81181   0.00000  Uiso   1.00
H486   H     0.14842   0.29846   0.77044   0.00000  Uiso   1.00
H487   H     0.11257   0.50127   0.62823   0.00000  Uiso   1.00
H488   H     0.82001   0.46062   0.88266   0.00000  Uiso   1.00
H489   H     0.22592   0.15800   0.79540   0.00000  Uiso   1.00
H490   H     0.15034   0.58567   0.49554   0.00000  Uiso   1.00
H491   H     0.00101   0.28513   0.60962   0.00000  Uiso   1.00
H492   H     0.88273   0.30976   0.68121   0.00000  Uiso   1.00
H493   H     0.07523   0.16623   0.63983   0.00000  Uiso   1.00
H494   H     0.03938   0.36904   0.49763   0.00000  Uiso   1.00
H495   H     0.76060   0.35330   0.77666   0.00000  Uiso   1.00
H496   H     0.16653   0.05068   0.68940   0.00000  Uiso   1.00
H497   H     0.09093   0.47835   0.38954   0.00000  Uiso   1.00
O498   O     0.71375   0.42540   0.87900   0.00000  Uiso   1.00
O499   O     0.24631   0.02838   0.76451   0.00000  Uiso   1.00
O500   O     0.14713   0.58948   0.37110   0.00000  Uiso   1.00
N501   N     0.82226   0.43199   0.84788   0.00000  Uiso   1.00
N502   N     0.20176   0.14906   0.76631   0.00000  Uiso   1.00
N503   N     0.13110   0.54889   0.48596   0.00000  Uiso   1.00
N504   N     0.79029   0.37425   0.79084   0.00000  Uiso   1.00
N505   N     0.16979   0.09131   0.70927   0.00000  Uiso   1.00
N506   N     0.09914   0.49114   0.42892   0.00000  Uiso   1.00
C507   C     0.19443   0.64261   0.12601   0.00000  Uiso   1.00
C508   C     0.25244   0.66675   0.07219   0.00000  Uiso   1.00
C509   C     0.30069   0.69170   0.08341   0.00000  Uiso   1.00
C510   C     0.34962   0.71116   0.02753   0.00000  Uiso   1.00
C511   C     0.43959   0.74949   0.95382   0.00000  Uiso   1.00
C512   C     0.13570   0.68798   0.10580   0.00000  Uiso   1.00
C513   C     0.08578   0.73078   0.14528   0.00000  Uiso   1.00
C514   C     0.03644   0.76811   0.11768   0.00000  Uiso   1.00
C515   C     0.94513   0.83936   0.09616   0.00000  Uiso   1.00
C516   C     0.19591   0.56638   0.11833   0.00000  Uiso   1.00
C517   C     0.19661   0.50693   0.16835   0.00000  Uiso   1.00
C518   C     0.19794   0.44188   0.15131   0.00000  Uiso   1.00
C519   C     0.20013   0.32433   0.14925   0.00000  Uiso   1.00
C520   C     0.19555   0.63279   0.00680   0.00000  Uiso   1.00
C521   C     0.25305   0.66142   0.00745   0.00000  Uiso   1.00
C522   C     0.30192   0.68084   0.95153   0.00000  Uiso   1.00
C523   C     0.35023   0.70582   0.96266   0.00000  Uiso   1.00
C524   C     0.13630   0.68265   0.04105   0.00000  Uiso   1.00
C525   C     0.08702   0.71992   0.01339   0.00000  Uiso   1.00
C526   C     0.03704   0.76277   0.05281   0.00000  Uiso   1.00
C527   C     0.19652   0.56105   0.05358   0.00000  Uiso   1.00
C528   C     0.19784   0.49608   0.03646   0.00000  Uiso   1.00
C529   C     0.19854   0.43654   0.08645   0.00000  Uiso   1.00
H530   H     0.19396   0.64676   0.17641   0.00000  Uiso   1.00
H531   H     0.30020   0.69583   0.13353   0.00000  Uiso   1.00
H532   H     0.08532   0.73489   0.19538   0.00000  Uiso   1.00
H533   H     0.19614   0.51108   0.21845   0.00000  Uiso   1.00
H534   H     0.41824   0.74789   0.05743   0.00000  Uiso   1.00
H535   H     0.96516   0.83025   0.18785   0.00000  Uiso   1.00
H536   H     0.19882   0.35830   0.23651   0.00000  Uiso   1.00
H537   H     0.19602   0.62864   0.95639   0.00000  Uiso   1.00
H538   H     0.30238   0.67671   0.90143   0.00000  Uiso   1.00
H539   H     0.08750   0.71578   0.96328   0.00000  Uiso   1.00
H540   H     0.19831   0.49197   0.98635   0.00000  Uiso   1.00
H541   H     0.42001   0.73238   0.86904   0.00000  Uiso   1.00
H542   H     0.96692   0.81474   0.99948   0.00000  Uiso   1.00
H543   H     0.20059   0.34279   0.04813   0.00000  Uiso   1.00
O544   O     0.48904   0.77211   0.93105   0.00000  Uiso   1.00
O545   O     0.89461   0.88014   0.10217   0.00000  Uiso   1.00
O546   O     0.20118   0.26096   0.16600   0.00000  Uiso   1.00
N547   N     0.40407   0.73763   0.02063   0.00000  Uiso   1.00
N548   N     0.98047   0.81464   0.14257   0.00000  Uiso   1.00
N549   N     0.19891   0.37341   0.18807   0.00000  Uiso   1.00
N550   N     0.40502   0.72929   0.91927   0.00000  Uiso   1.00
N551   N     0.98142   0.80629   0.04121   0.00000  Uiso   1.00
N552   N     0.19986   0.36506   0.08670   0.00000  Uiso   1.00
