data_job_00223
_audit_creation_date              2018-12-19
_audit_creation_method            'Materials Studio'
_symmetry_space_group_name_H-M    'P1'
_symmetry_Int_Tables_number       1
_symmetry_cell_setting            triclinic
loop_
_symmetry_equiv_pos_as_xyz
  x,y,z
_cell_length_a                    17.2914
_cell_length_b                    16.9927
_cell_length_c                    15.2154
_cell_angle_alpha                 90.0000
_cell_angle_beta                  90.0000
_cell_angle_gamma                 90.0000
loop_
_atom_site_label
_atom_site_type_symbol
_atom_site_fract_x
_atom_site_fract_y
_atom_site_fract_z
_atom_site_U_iso_or_equiv
_atom_site_adp_type
_atom_site_occupancy
C1     C     0.02752   0.27831   0.98840   0.00000  Uiso   1.00
C2     C     0.09286   0.22655   0.02288   0.00000  Uiso   1.00
C3     C     0.17112   0.23756   0.00679   0.00000  Uiso   1.00
C4     C     0.22176   0.18375   0.04426   0.00000  Uiso   1.00
C5     C     0.32729   0.11288   0.08990   0.00000  Uiso   1.00
C6     C     0.97319   0.22357   0.93845   0.00000  Uiso   1.00
C7     C     0.95081   0.23208   0.85137   0.00000  Uiso   1.00
C8     C     0.90070   0.17578   0.81776   0.00000  Uiso   1.00
C9     C     0.82038   0.10031   0.73234   0.00000  Uiso   1.00
C10    C     0.98277   0.30590   0.06908   0.00000  Uiso   1.00
C11    C     0.96844   0.38364   0.09182   0.00000  Uiso   1.00
C12    C     0.92638   0.39664   0.16819   0.00000  Uiso   1.00
C13    C     0.86096   0.44901   0.28559   0.00000  Uiso   1.00
C14    C     0.97830   0.16318   0.08356   0.00000  Uiso   1.00
C15    C     0.06613   0.16402   0.07457   0.00000  Uiso   1.00
C16    C     0.11666   0.11019   0.11207   0.00000  Uiso   1.00
C17    C     0.19498   0.12111   0.09604   0.00000  Uiso   1.00
C18    C     0.94645   0.16104   0.99013   0.00000  Uiso   1.00
C19    C     0.89635   0.10471   0.95665   0.00000  Uiso   1.00
C20    C     0.87391   0.11313   0.86954   0.00000  Uiso   1.00
C21    C     0.95604   0.24337   0.12077   0.00000  Uiso   1.00
C22    C     0.91399   0.25626   0.19711   0.00000  Uiso   1.00
C23    C     0.89960   0.33400   0.21997   0.00000  Uiso   1.00
H24    H     0.04833   0.32699   0.94816   0.00000  Uiso   1.00
H25    H     0.19178   0.28595   0.96678   0.00000  Uiso   1.00
H26    H     0.97150   0.28048   0.81139   0.00000  Uiso   1.00
H27    H     0.98914   0.43201   0.05181   0.00000  Uiso   1.00
H28    H     0.33904   0.21286   0.01019   0.00000  Uiso   1.00
H29    H     0.87454   0.20135   0.68255   0.00000  Uiso   1.00
H30    H     0.91173   0.52087   0.18952   0.00000  Uiso   1.00
H31    H     0.95748   0.11450   0.12380   0.00000  Uiso   1.00
H32    H     0.09596   0.06180   0.15207   0.00000  Uiso   1.00
H33    H     0.87567   0.05633   0.99667   0.00000  Uiso   1.00
H34    H     0.89331   0.20786   0.23709   0.00000  Uiso   1.00
H35    H     0.26126   0.03093   0.16057   0.00000  Uiso   1.00
H36    H     0.79676   0.01942   0.83293   0.00000  Uiso   1.00
H37    H     0.83395   0.33894   0.33990   0.00000  Uiso   1.00
O38    O     0.39288   0.09105   0.10078   0.00000  Uiso   1.00
O39    O     0.78347   0.07596   0.67093   0.00000  Uiso   1.00
O40    O     0.83226   0.49516   0.33607   0.00000  Uiso   1.00
N41    N     0.30173   0.17729   0.04172   0.00000  Uiso   1.00
N42    N     0.86747   0.16651   0.73539   0.00000  Uiso   1.00
N43    N     0.90221   0.46524   0.20935   0.00000  Uiso   1.00
N44    N     0.25988   0.07939   0.12264   0.00000  Uiso   1.00
N45    N     0.82561   0.06862   0.81631   0.00000  Uiso   1.00
N46    N     0.86036   0.36735   0.29027   0.00000  Uiso   1.00
C47    C     0.52752   0.77831   0.98840   0.00000  Uiso   1.00
C48    C     0.59286   0.72655   0.02288   0.00000  Uiso   1.00
C49    C     0.67112   0.73756   0.00679   0.00000  Uiso   1.00
C50    C     0.72176   0.68375   0.04426   0.00000  Uiso   1.00
C51    C     0.82729   0.61288   0.08990   0.00000  Uiso   1.00
C52    C     0.47319   0.72357   0.93845   0.00000  Uiso   1.00
C53    C     0.45081   0.73208   0.85137   0.00000  Uiso   1.00
C54    C     0.40070   0.67578   0.81776   0.00000  Uiso   1.00
C55    C     0.32038   0.60031   0.73234   0.00000  Uiso   1.00
C56    C     0.48277   0.80590   0.06908   0.00000  Uiso   1.00
C57    C     0.46844   0.88364   0.09182   0.00000  Uiso   1.00
C58    C     0.42638   0.89664   0.16819   0.00000  Uiso   1.00
C59    C     0.36096   0.94901   0.28559   0.00000  Uiso   1.00
C60    C     0.47830   0.66318   0.08356   0.00000  Uiso   1.00
C61    C     0.56613   0.66402   0.07457   0.00000  Uiso   1.00
C62    C     0.61666   0.61019   0.11207   0.00000  Uiso   1.00
C63    C     0.69498   0.62111   0.09604   0.00000  Uiso   1.00
C64    C     0.44645   0.66104   0.99013   0.00000  Uiso   1.00
C65    C     0.39635   0.60471   0.95665   0.00000  Uiso   1.00
C66    C     0.37391   0.61313   0.86954   0.00000  Uiso   1.00
C67    C     0.45604   0.74337   0.12077   0.00000  Uiso   1.00
C68    C     0.41399   0.75626   0.19711   0.00000  Uiso   1.00
C69    C     0.39960   0.83400   0.21997   0.00000  Uiso   1.00
H70    H     0.54833   0.82699   0.94816   0.00000  Uiso   1.00
H71    H     0.69178   0.78595   0.96678   0.00000  Uiso   1.00
H72    H     0.47150   0.78048   0.81139   0.00000  Uiso   1.00
H73    H     0.48914   0.93201   0.05181   0.00000  Uiso   1.00
H74    H     0.83904   0.71286   0.01019   0.00000  Uiso   1.00
H75    H     0.37454   0.70135   0.68255   0.00000  Uiso   1.00
H76    H     0.41173   0.02087   0.18952   0.00000  Uiso   1.00
H77    H     0.45748   0.61450   0.12380   0.00000  Uiso   1.00
H78    H     0.59596   0.56180   0.15207   0.00000  Uiso   1.00
H79    H     0.37567   0.55633   0.99667   0.00000  Uiso   1.00
H80    H     0.39331   0.70786   0.23709   0.00000  Uiso   1.00
H81    H     0.76126   0.53093   0.16057   0.00000  Uiso   1.00
H82    H     0.29676   0.51942   0.83293   0.00000  Uiso   1.00
H83    H     0.33395   0.83894   0.33990   0.00000  Uiso   1.00
O84    O     0.89288   0.59105   0.10078   0.00000  Uiso   1.00
O85    O     0.28347   0.57596   0.67093   0.00000  Uiso   1.00
O86    O     0.33226   0.99516   0.33607   0.00000  Uiso   1.00
N87    N     0.80173   0.67729   0.04172   0.00000  Uiso   1.00
N88    N     0.36747   0.66651   0.73539   0.00000  Uiso   1.00
N89    N     0.40221   0.96524   0.20935   0.00000  Uiso   1.00
N90    N     0.75988   0.57939   0.12264   0.00000  Uiso   1.00
N91    N     0.32561   0.56862   0.81631   0.00000  Uiso   1.00
N92    N     0.36036   0.86735   0.29027   0.00000  Uiso   1.00
C93    C     0.97248   0.72169   0.48840   0.00000  Uiso   1.00
C94    C     0.90714   0.77345   0.52288   0.00000  Uiso   1.00
C95    C     0.82888   0.76244   0.50679   0.00000  Uiso   1.00
C96    C     0.77824   0.81625   0.54426   0.00000  Uiso   1.00
C97    C     0.67271   0.88712   0.58990   0.00000  Uiso   1.00
C98    C     0.02681   0.77643   0.43845   0.00000  Uiso   1.00
C99    C     0.04919   0.76792   0.35137   0.00000  Uiso   1.00
C100   C     0.09930   0.82422   0.31776   0.00000  Uiso   1.00
C101   C     0.17962   0.89969   0.23234   0.00000  Uiso   1.00
C102   C     0.01723   0.69410   0.56908   0.00000  Uiso   1.00
C103   C     0.03156   0.61636   0.59182   0.00000  Uiso   1.00
C104   C     0.07362   0.60336   0.66819   0.00000  Uiso   1.00
C105   C     0.13904   0.55099   0.78559   0.00000  Uiso   1.00
C106   C     0.02170   0.83682   0.58356   0.00000  Uiso   1.00
C107   C     0.93387   0.83598   0.57457   0.00000  Uiso   1.00
C108   C     0.88334   0.88981   0.61207   0.00000  Uiso   1.00
C109   C     0.80502   0.87889   0.59604   0.00000  Uiso   1.00
C110   C     0.05355   0.83896   0.49013   0.00000  Uiso   1.00
C111   C     0.10365   0.89529   0.45665   0.00000  Uiso   1.00
C112   C     0.12609   0.88687   0.36954   0.00000  Uiso   1.00
C113   C     0.04396   0.75663   0.62077   0.00000  Uiso   1.00
C114   C     0.08601   0.74374   0.69711   0.00000  Uiso   1.00
C115   C     0.10040   0.66600   0.71997   0.00000  Uiso   1.00
H116   H     0.95167   0.67301   0.44816   0.00000  Uiso   1.00
H117   H     0.80822   0.71405   0.46678   0.00000  Uiso   1.00
H118   H     0.02850   0.71952   0.31139   0.00000  Uiso   1.00
H119   H     0.01086   0.56799   0.55181   0.00000  Uiso   1.00
H120   H     0.66096   0.78714   0.51019   0.00000  Uiso   1.00
H121   H     0.12546   0.79865   0.18255   0.00000  Uiso   1.00
H122   H     0.08827   0.47913   0.68952   0.00000  Uiso   1.00
H123   H     0.04252   0.88550   0.62380   0.00000  Uiso   1.00
H124   H     0.90404   0.93820   0.65207   0.00000  Uiso   1.00
H125   H     0.12433   0.94367   0.49667   0.00000  Uiso   1.00
H126   H     0.10669   0.79214   0.73709   0.00000  Uiso   1.00
H127   H     0.73874   0.96907   0.66057   0.00000  Uiso   1.00
H128   H     0.20324   0.98058   0.33293   0.00000  Uiso   1.00
H129   H     0.16605   0.66106   0.83990   0.00000  Uiso   1.00
O130   O     0.60712   0.90895   0.60078   0.00000  Uiso   1.00
O131   O     0.21653   0.92404   0.17093   0.00000  Uiso   1.00
O132   O     0.16774   0.50484   0.83607   0.00000  Uiso   1.00
N133   N     0.69827   0.82271   0.54172   0.00000  Uiso   1.00
N134   N     0.13253   0.83349   0.23539   0.00000  Uiso   1.00
N135   N     0.09779   0.53476   0.70935   0.00000  Uiso   1.00
N136   N     0.74012   0.92061   0.62264   0.00000  Uiso   1.00
N137   N     0.17439   0.93138   0.31631   0.00000  Uiso   1.00
N138   N     0.13964   0.63265   0.79027   0.00000  Uiso   1.00
C139   C     0.47248   0.22169   0.48840   0.00000  Uiso   1.00
C140   C     0.40714   0.27345   0.52288   0.00000  Uiso   1.00
C141   C     0.32888   0.26244   0.50679   0.00000  Uiso   1.00
C142   C     0.27824   0.31625   0.54426   0.00000  Uiso   1.00
C143   C     0.17271   0.38712   0.58990   0.00000  Uiso   1.00
C144   C     0.52681   0.27643   0.43845   0.00000  Uiso   1.00
C145   C     0.54919   0.26792   0.35137   0.00000  Uiso   1.00
C146   C     0.59930   0.32422   0.31776   0.00000  Uiso   1.00
C147   C     0.67962   0.39969   0.23234   0.00000  Uiso   1.00
C148   C     0.51723   0.19410   0.56908   0.00000  Uiso   1.00
C149   C     0.53156   0.11636   0.59182   0.00000  Uiso   1.00
C150   C     0.57362   0.10336   0.66819   0.00000  Uiso   1.00
C151   C     0.63904   0.05099   0.78559   0.00000  Uiso   1.00
C152   C     0.52170   0.33682   0.58356   0.00000  Uiso   1.00
C153   C     0.43387   0.33598   0.57457   0.00000  Uiso   1.00
C154   C     0.38334   0.38981   0.61207   0.00000  Uiso   1.00
C155   C     0.30502   0.37889   0.59604   0.00000  Uiso   1.00
C156   C     0.55355   0.33896   0.49013   0.00000  Uiso   1.00
C157   C     0.60365   0.39529   0.45665   0.00000  Uiso   1.00
C158   C     0.62609   0.38687   0.36954   0.00000  Uiso   1.00
C159   C     0.54396   0.25663   0.62077   0.00000  Uiso   1.00
C160   C     0.58601   0.24374   0.69711   0.00000  Uiso   1.00
C161   C     0.60040   0.16600   0.71997   0.00000  Uiso   1.00
H162   H     0.45167   0.17301   0.44816   0.00000  Uiso   1.00
H163   H     0.30822   0.21405   0.46678   0.00000  Uiso   1.00
H164   H     0.52850   0.21952   0.31139   0.00000  Uiso   1.00
H165   H     0.51086   0.06799   0.55181   0.00000  Uiso   1.00
H166   H     0.16096   0.28714   0.51019   0.00000  Uiso   1.00
H167   H     0.62546   0.29865   0.18255   0.00000  Uiso   1.00
H168   H     0.58827   0.97913   0.68952   0.00000  Uiso   1.00
H169   H     0.54252   0.38550   0.62380   0.00000  Uiso   1.00
H170   H     0.40404   0.43820   0.65207   0.00000  Uiso   1.00
H171   H     0.62433   0.44367   0.49667   0.00000  Uiso   1.00
H172   H     0.60669   0.29214   0.73709   0.00000  Uiso   1.00
H173   H     0.23874   0.46907   0.66057   0.00000  Uiso   1.00
H174   H     0.70324   0.48058   0.33293   0.00000  Uiso   1.00
H175   H     0.66605   0.16106   0.83990   0.00000  Uiso   1.00
O176   O     0.10712   0.40895   0.60078   0.00000  Uiso   1.00
O177   O     0.71653   0.42404   0.17093   0.00000  Uiso   1.00
O178   O     0.66774   0.00484   0.83607   0.00000  Uiso   1.00
N179   N     0.19827   0.32271   0.54172   0.00000  Uiso   1.00
N180   N     0.63253   0.33349   0.23539   0.00000  Uiso   1.00
N181   N     0.59779   0.03476   0.70935   0.00000  Uiso   1.00
N182   N     0.24012   0.42061   0.62264   0.00000  Uiso   1.00
N183   N     0.67439   0.43138   0.31631   0.00000  Uiso   1.00
N184   N     0.63964   0.13265   0.79027   0.00000  Uiso   1.00
C185   C     0.97248   0.27831   0.51160   0.00000  Uiso   1.00
C186   C     0.90714   0.22655   0.47712   0.00000  Uiso   1.00
C187   C     0.82888   0.23756   0.49321   0.00000  Uiso   1.00
C188   C     0.77824   0.18375   0.45574   0.00000  Uiso   1.00
C189   C     0.67271   0.11288   0.41010   0.00000  Uiso   1.00
C190   C     0.02681   0.22357   0.56155   0.00000  Uiso   1.00
C191   C     0.04919   0.23208   0.64863   0.00000  Uiso   1.00
C192   C     0.09930   0.17578   0.68224   0.00000  Uiso   1.00
C193   C     0.17962   0.10031   0.76766   0.00000  Uiso   1.00
C194   C     0.01723   0.30590   0.43092   0.00000  Uiso   1.00
C195   C     0.03156   0.38364   0.40818   0.00000  Uiso   1.00
C196   C     0.07362   0.39664   0.33181   0.00000  Uiso   1.00
C197   C     0.13904   0.44901   0.21441   0.00000  Uiso   1.00
C198   C     0.02170   0.16318   0.41644   0.00000  Uiso   1.00
C199   C     0.93387   0.16402   0.42543   0.00000  Uiso   1.00
C200   C     0.88334   0.11019   0.38793   0.00000  Uiso   1.00
C201   C     0.80502   0.12111   0.40396   0.00000  Uiso   1.00
C202   C     0.05355   0.16104   0.50987   0.00000  Uiso   1.00
C203   C     0.10365   0.10471   0.54335   0.00000  Uiso   1.00
C204   C     0.12609   0.11313   0.63046   0.00000  Uiso   1.00
C205   C     0.04396   0.24337   0.37923   0.00000  Uiso   1.00
C206   C     0.08601   0.25626   0.30289   0.00000  Uiso   1.00
C207   C     0.10040   0.33400   0.28003   0.00000  Uiso   1.00
H208   H     0.95167   0.32699   0.55184   0.00000  Uiso   1.00
H209   H     0.80822   0.28595   0.53322   0.00000  Uiso   1.00
H210   H     0.02850   0.28048   0.68861   0.00000  Uiso   1.00
H211   H     0.01086   0.43201   0.44819   0.00000  Uiso   1.00
H212   H     0.66096   0.21286   0.48981   0.00000  Uiso   1.00
H213   H     0.12546   0.20135   0.81745   0.00000  Uiso   1.00
H214   H     0.08827   0.52087   0.31048   0.00000  Uiso   1.00
H215   H     0.04252   0.11450   0.37620   0.00000  Uiso   1.00
H216   H     0.90404   0.06180   0.34793   0.00000  Uiso   1.00
H217   H     0.12433   0.05633   0.50333   0.00000  Uiso   1.00
H218   H     0.10669   0.20786   0.26291   0.00000  Uiso   1.00
H219   H     0.73874   0.03093   0.33943   0.00000  Uiso   1.00
H220   H     0.20324   0.01942   0.66707   0.00000  Uiso   1.00
H221   H     0.16605   0.33894   0.16010   0.00000  Uiso   1.00
O222   O     0.60712   0.09105   0.39922   0.00000  Uiso   1.00
O223   O     0.21653   0.07596   0.82907   0.00000  Uiso   1.00
O224   O     0.16774   0.49516   0.16393   0.00000  Uiso   1.00
N225   N     0.69827   0.17729   0.45828   0.00000  Uiso   1.00
N226   N     0.13253   0.16651   0.76461   0.00000  Uiso   1.00
N227   N     0.09779   0.46524   0.29065   0.00000  Uiso   1.00
N228   N     0.74012   0.07939   0.37736   0.00000  Uiso   1.00
N229   N     0.17439   0.06862   0.68369   0.00000  Uiso   1.00
N230   N     0.13964   0.36735   0.20973   0.00000  Uiso   1.00
C231   C     0.47248   0.77831   0.51160   0.00000  Uiso   1.00
C232   C     0.40714   0.72655   0.47712   0.00000  Uiso   1.00
C233   C     0.32888   0.73756   0.49321   0.00000  Uiso   1.00
C234   C     0.27824   0.68375   0.45574   0.00000  Uiso   1.00
C235   C     0.17271   0.61288   0.41010   0.00000  Uiso   1.00
C236   C     0.52681   0.72357   0.56155   0.00000  Uiso   1.00
C237   C     0.54919   0.73208   0.64863   0.00000  Uiso   1.00
C238   C     0.59930   0.67578   0.68224   0.00000  Uiso   1.00
C239   C     0.67962   0.60031   0.76766   0.00000  Uiso   1.00
C240   C     0.51723   0.80590   0.43092   0.00000  Uiso   1.00
C241   C     0.53156   0.88364   0.40818   0.00000  Uiso   1.00
C242   C     0.57362   0.89664   0.33181   0.00000  Uiso   1.00
C243   C     0.63904   0.94901   0.21441   0.00000  Uiso   1.00
C244   C     0.52170   0.66318   0.41644   0.00000  Uiso   1.00
C245   C     0.43387   0.66402   0.42543   0.00000  Uiso   1.00
C246   C     0.38334   0.61019   0.38793   0.00000  Uiso   1.00
C247   C     0.30502   0.62111   0.40396   0.00000  Uiso   1.00
C248   C     0.55355   0.66104   0.50987   0.00000  Uiso   1.00
C249   C     0.60365   0.60471   0.54335   0.00000  Uiso   1.00
C250   C     0.62609   0.61313   0.63046   0.00000  Uiso   1.00
C251   C     0.54396   0.74337   0.37923   0.00000  Uiso   1.00
C252   C     0.58601   0.75626   0.30289   0.00000  Uiso   1.00
C253   C     0.60040   0.83400   0.28003   0.00000  Uiso   1.00
H254   H     0.45167   0.82699   0.55184   0.00000  Uiso   1.00
H255   H     0.30822   0.78595   0.53322   0.00000  Uiso   1.00
H256   H     0.52850   0.78048   0.68861   0.00000  Uiso   1.00
H257   H     0.51086   0.93201   0.44819   0.00000  Uiso   1.00
H258   H     0.16096   0.71286   0.48981   0.00000  Uiso   1.00
H259   H     0.62546   0.70135   0.81745   0.00000  Uiso   1.00
H260   H     0.58827   0.02087   0.31048   0.00000  Uiso   1.00
H261   H     0.54252   0.61450   0.37620   0.00000  Uiso   1.00
H262   H     0.40404   0.56180   0.34793   0.00000  Uiso   1.00
H263   H     0.62433   0.55633   0.50333   0.00000  Uiso   1.00
H264   H     0.60669   0.70786   0.26291   0.00000  Uiso   1.00
H265   H     0.23874   0.53093   0.33943   0.00000  Uiso   1.00
H266   H     0.70324   0.51942   0.66707   0.00000  Uiso   1.00
H267   H     0.66605   0.83894   0.16010   0.00000  Uiso   1.00
O268   O     0.10712   0.59105   0.39922   0.00000  Uiso   1.00
O269   O     0.71653   0.57596   0.82907   0.00000  Uiso   1.00
O270   O     0.66774   0.99516   0.16393   0.00000  Uiso   1.00
N271   N     0.19827   0.67729   0.45828   0.00000  Uiso   1.00
N272   N     0.63253   0.66651   0.76461   0.00000  Uiso   1.00
N273   N     0.59779   0.96524   0.29065   0.00000  Uiso   1.00
N274   N     0.24012   0.57939   0.37736   0.00000  Uiso   1.00
N275   N     0.67439   0.56862   0.68369   0.00000  Uiso   1.00
N276   N     0.63964   0.86735   0.20973   0.00000  Uiso   1.00
C277   C     0.02752   0.72169   0.01160   0.00000  Uiso   1.00
C278   C     0.09286   0.77345   0.97712   0.00000  Uiso   1.00
C279   C     0.17112   0.76244   0.99321   0.00000  Uiso   1.00
C280   C     0.22176   0.81625   0.95574   0.00000  Uiso   1.00
C281   C     0.32729   0.88712   0.91010   0.00000  Uiso   1.00
C282   C     0.97319   0.77643   0.06155   0.00000  Uiso   1.00
C283   C     0.95081   0.76792   0.14863   0.00000  Uiso   1.00
C284   C     0.90070   0.82422   0.18224   0.00000  Uiso   1.00
C285   C     0.82038   0.89969   0.26766   0.00000  Uiso   1.00
C286   C     0.98277   0.69410   0.93092   0.00000  Uiso   1.00
C287   C     0.96844   0.61636   0.90818   0.00000  Uiso   1.00
C288   C     0.92638   0.60336   0.83181   0.00000  Uiso   1.00
C289   C     0.86096   0.55099   0.71441   0.00000  Uiso   1.00
C290   C     0.97830   0.83682   0.91644   0.00000  Uiso   1.00
C291   C     0.06613   0.83598   0.92543   0.00000  Uiso   1.00
C292   C     0.11666   0.88981   0.88793   0.00000  Uiso   1.00
C293   C     0.19498   0.87889   0.90396   0.00000  Uiso   1.00
C294   C     0.94645   0.83896   0.00987   0.00000  Uiso   1.00
C295   C     0.89635   0.89529   0.04335   0.00000  Uiso   1.00
C296   C     0.87391   0.88687   0.13046   0.00000  Uiso   1.00
C297   C     0.95604   0.75663   0.87923   0.00000  Uiso   1.00
C298   C     0.91399   0.74374   0.80289   0.00000  Uiso   1.00
C299   C     0.89960   0.66600   0.78003   0.00000  Uiso   1.00
H300   H     0.04833   0.67301   0.05184   0.00000  Uiso   1.00
H301   H     0.19178   0.71405   0.03322   0.00000  Uiso   1.00
H302   H     0.97150   0.71952   0.18861   0.00000  Uiso   1.00
H303   H     0.98914   0.56799   0.94819   0.00000  Uiso   1.00
H304   H     0.33904   0.78714   0.98981   0.00000  Uiso   1.00
H305   H     0.87454   0.79865   0.31745   0.00000  Uiso   1.00
H306   H     0.91173   0.47913   0.81048   0.00000  Uiso   1.00
H307   H     0.95748   0.88550   0.87620   0.00000  Uiso   1.00
H308   H     0.09596   0.93820   0.84793   0.00000  Uiso   1.00
H309   H     0.87567   0.94367   0.00333   0.00000  Uiso   1.00
H310   H     0.89331   0.79214   0.76291   0.00000  Uiso   1.00
H311   H     0.26126   0.96907   0.83943   0.00000  Uiso   1.00
H312   H     0.79676   0.98058   0.16707   0.00000  Uiso   1.00
H313   H     0.83395   0.66106   0.66010   0.00000  Uiso   1.00
O314   O     0.39288   0.90895   0.89922   0.00000  Uiso   1.00
O315   O     0.78347   0.92404   0.32907   0.00000  Uiso   1.00
O316   O     0.83226   0.50484   0.66393   0.00000  Uiso   1.00
N317   N     0.30173   0.82271   0.95828   0.00000  Uiso   1.00
N318   N     0.86747   0.83349   0.26461   0.00000  Uiso   1.00
N319   N     0.90221   0.53476   0.79065   0.00000  Uiso   1.00
N320   N     0.25988   0.92061   0.87736   0.00000  Uiso   1.00
N321   N     0.82561   0.93138   0.18369   0.00000  Uiso   1.00
N322   N     0.86036   0.63265   0.70973   0.00000  Uiso   1.00
C323   C     0.52752   0.22169   0.01160   0.00000  Uiso   1.00
C324   C     0.59286   0.27345   0.97712   0.00000  Uiso   1.00
C325   C     0.67112   0.26244   0.99321   0.00000  Uiso   1.00
C326   C     0.72176   0.31625   0.95574   0.00000  Uiso   1.00
C327   C     0.82729   0.38712   0.91010   0.00000  Uiso   1.00
C328   C     0.47319   0.27643   0.06155   0.00000  Uiso   1.00
C329   C     0.45081   0.26792   0.14863   0.00000  Uiso   1.00
C330   C     0.40070   0.32422   0.18224   0.00000  Uiso   1.00
C331   C     0.32038   0.39969   0.26766   0.00000  Uiso   1.00
C332   C     0.48277   0.19410   0.93092   0.00000  Uiso   1.00
C333   C     0.46844   0.11636   0.90818   0.00000  Uiso   1.00
C334   C     0.42638   0.10336   0.83181   0.00000  Uiso   1.00
C335   C     0.36096   0.05099   0.71441   0.00000  Uiso   1.00
C336   C     0.47830   0.33682   0.91644   0.00000  Uiso   1.00
C337   C     0.56613   0.33598   0.92543   0.00000  Uiso   1.00
C338   C     0.61666   0.38981   0.88793   0.00000  Uiso   1.00
C339   C     0.69498   0.37889   0.90396   0.00000  Uiso   1.00
C340   C     0.44645   0.33896   0.00987   0.00000  Uiso   1.00
C341   C     0.39635   0.39529   0.04335   0.00000  Uiso   1.00
C342   C     0.37391   0.38687   0.13046   0.00000  Uiso   1.00
C343   C     0.45604   0.25663   0.87923   0.00000  Uiso   1.00
C344   C     0.41399   0.24374   0.80289   0.00000  Uiso   1.00
C345   C     0.39960   0.16600   0.78003   0.00000  Uiso   1.00
H346   H     0.54833   0.17301   0.05184   0.00000  Uiso   1.00
H347   H     0.69178   0.21405   0.03322   0.00000  Uiso   1.00
H348   H     0.47150   0.21952   0.18861   0.00000  Uiso   1.00
H349   H     0.48914   0.06799   0.94819   0.00000  Uiso   1.00
H350   H     0.83904   0.28714   0.98981   0.00000  Uiso   1.00
H351   H     0.37454   0.29865   0.31745   0.00000  Uiso   1.00
H352   H     0.41173   0.97913   0.81048   0.00000  Uiso   1.00
H353   H     0.45748   0.38550   0.87620   0.00000  Uiso   1.00
H354   H     0.59596   0.43820   0.84793   0.00000  Uiso   1.00
H355   H     0.37567   0.44367   0.00333   0.00000  Uiso   1.00
H356   H     0.39331   0.29214   0.76291   0.00000  Uiso   1.00
H357   H     0.76126   0.46907   0.83943   0.00000  Uiso   1.00
H358   H     0.29676   0.48058   0.16707   0.00000  Uiso   1.00
H359   H     0.33395   0.16106   0.66010   0.00000  Uiso   1.00
O360   O     0.89288   0.40895   0.89922   0.00000  Uiso   1.00
O361   O     0.28347   0.42404   0.32907   0.00000  Uiso   1.00
O362   O     0.33226   0.00484   0.66393   0.00000  Uiso   1.00
N363   N     0.80173   0.32271   0.95828   0.00000  Uiso   1.00
N364   N     0.36747   0.33349   0.26461   0.00000  Uiso   1.00
N365   N     0.40221   0.03476   0.79065   0.00000  Uiso   1.00
N366   N     0.75988   0.42061   0.87736   0.00000  Uiso   1.00
N367   N     0.32561   0.43138   0.18369   0.00000  Uiso   1.00
N368   N     0.36036   0.13265   0.70973   0.00000  Uiso   1.00
