data_job_03548
_audit_creation_date              2018-12-19
_audit_creation_method            'Materials Studio'
_symmetry_space_group_name_H-M    'P1'
_symmetry_Int_Tables_number       1
_symmetry_cell_setting            triclinic
loop_
_symmetry_equiv_pos_as_xyz
  x,y,z
_cell_length_a                    9.7170
_cell_length_b                    9.7564
_cell_length_c                    20.3901
_cell_angle_alpha                 91.1044
_cell_angle_beta                  99.4343
_cell_angle_gamma                 100.1230
loop_
_atom_site_label
_atom_site_type_symbol
_atom_site_fract_x
_atom_site_fract_y
_atom_site_fract_z
_atom_site_U_iso_or_equiv
_atom_site_adp_type
_atom_site_occupancy
C1     C     0.13935   0.24157   0.21301   0.00000  Uiso   1.00
C2     C     0.01582   0.17664   0.15905   0.00000  Uiso   1.00
C3     C     0.96256   0.03515   0.14740   0.00000  Uiso   1.00
C4     C     0.84911   0.99677   0.09564   0.00000  Uiso   1.00
C5     C     0.66618   0.88079   0.01772   0.00000  Uiso   1.00
C6     C     0.24688   0.32970   0.17713   0.00000  Uiso   1.00
C7     C     0.38789   0.31691   0.18069   0.00000  Uiso   1.00
C8     C     0.46893   0.40740   0.14415   0.00000  Uiso   1.00
C9     C     0.64474   0.52911   0.09433   0.00000  Uiso   1.00
C10    C     0.08217   0.34410   0.25405   0.00000  Uiso   1.00
C11    C     0.08472   0.34344   0.32230   0.00000  Uiso   1.00
C12    C     0.02712   0.44608   0.35053   0.00000  Uiso   1.00
C13    C     0.94720   0.59015   0.42015   0.00000  Uiso   1.00
C14    C     0.03256   0.42504   0.14181   0.00000  Uiso   1.00
C15    C     0.95783   0.27630   0.12037   0.00000  Uiso   1.00
C16    C     0.84441   0.23813   0.06862   0.00000  Uiso   1.00
C17    C     0.79099   0.09660   0.05690   0.00000  Uiso   1.00
C18    C     0.18888   0.42935   0.13845   0.00000  Uiso   1.00
C19    C     0.26974   0.51989   0.10191   0.00000  Uiso   1.00
C20    C     0.41083   0.50723   0.10541   0.00000  Uiso   1.00
C21    C     0.02416   0.44375   0.21538   0.00000  Uiso   1.00
C22    C     0.96656   0.54642   0.24352   0.00000  Uiso   1.00
C23    C     0.96902   0.54591   0.31179   0.00000  Uiso   1.00
H24    H     0.18451   0.16400   0.24312   0.00000  Uiso   1.00
H25    H     0.00749   0.95806   0.17734   0.00000  Uiso   1.00
H26    H     0.43275   0.23979   0.21062   0.00000  Uiso   1.00
H27    H     0.12962   0.26631   0.35221   0.00000  Uiso   1.00
H28    H     0.78568   0.77369   0.08734   0.00000  Uiso   1.00
H29    H     0.68237   0.36776   0.15754   0.00000  Uiso   1.00
H30    H     0.04317   0.42369   0.45610   0.00000  Uiso   1.00
H31    H     0.98740   0.50263   0.11170   0.00000  Uiso   1.00
H32    H     0.79955   0.31527   0.03870   0.00000  Uiso   1.00
H33    H     0.22481   0.59699   0.07199   0.00000  Uiso   1.00
H34    H     0.92168   0.62352   0.21357   0.00000  Uiso   1.00
H35    H     0.61691   0.06361   0.97481   0.00000  Uiso   1.00
H36    H     0.51361   0.65768   0.04502   0.00000  Uiso   1.00
H37    H     0.87440   0.71361   0.34358   0.00000  Uiso   1.00
O38    O     0.58131   0.78928   0.98541   0.00000  Uiso   1.00
O39    O     0.75774   0.56870   0.07753   0.00000  Uiso   1.00
O40    O     0.91912   0.64207   0.46924   0.00000  Uiso   1.00
N41    N     0.77172   0.86763   0.07088   0.00000  Uiso   1.00
N42    N     0.61007   0.42304   0.13651   0.00000  Uiso   1.00
N43    N     0.01250   0.47535   0.41564   0.00000  Uiso   1.00
N44    N     0.68091   0.02364   0.01033   0.00000  Uiso   1.00
N45    N     0.51926   0.57904   0.07596   0.00000  Uiso   1.00
N46    N     0.92169   0.63136   0.35510   0.00000  Uiso   1.00
C47    C     0.86065   0.75843   0.78699   0.00000  Uiso   1.00
C48    C     0.98418   0.82336   0.84095   0.00000  Uiso   1.00
C49    C     0.03744   0.96485   0.85260   0.00000  Uiso   1.00
C50    C     0.15089   0.00323   0.90436   0.00000  Uiso   1.00
C51    C     0.33382   0.11921   0.98228   0.00000  Uiso   1.00
C52    C     0.75312   0.67030   0.82287   0.00000  Uiso   1.00
C53    C     0.61211   0.68309   0.81931   0.00000  Uiso   1.00
C54    C     0.53107   0.59260   0.85585   0.00000  Uiso   1.00
C55    C     0.35526   0.47089   0.90567   0.00000  Uiso   1.00
C56    C     0.91783   0.65590   0.74595   0.00000  Uiso   1.00
C57    C     0.91528   0.65656   0.67770   0.00000  Uiso   1.00
C58    C     0.97288   0.55392   0.64947   0.00000  Uiso   1.00
C59    C     0.05280   0.40985   0.57985   0.00000  Uiso   1.00
C60    C     0.96744   0.57496   0.85819   0.00000  Uiso   1.00
C61    C     0.04217   0.72370   0.87963   0.00000  Uiso   1.00
C62    C     0.15559   0.76187   0.93138   0.00000  Uiso   1.00
C63    C     0.20901   0.90340   0.94310   0.00000  Uiso   1.00
C64    C     0.81112   0.57065   0.86155   0.00000  Uiso   1.00
C65    C     0.73026   0.48011   0.89809   0.00000  Uiso   1.00
C66    C     0.58917   0.49277   0.89459   0.00000  Uiso   1.00
C67    C     0.97584   0.55625   0.78462   0.00000  Uiso   1.00
C68    C     0.03344   0.45358   0.75648   0.00000  Uiso   1.00
C69    C     0.03098   0.45409   0.68821   0.00000  Uiso   1.00
H70    H     0.81549   0.83600   0.75688   0.00000  Uiso   1.00
H71    H     0.99251   0.04194   0.82266   0.00000  Uiso   1.00
H72    H     0.56725   0.76021   0.78938   0.00000  Uiso   1.00
H73    H     0.87038   0.73369   0.64779   0.00000  Uiso   1.00
H74    H     0.21432   0.22631   0.91266   0.00000  Uiso   1.00
H75    H     0.31763   0.63224   0.84246   0.00000  Uiso   1.00
H76    H     0.95683   0.57631   0.54390   0.00000  Uiso   1.00
H77    H     0.01260   0.49737   0.88830   0.00000  Uiso   1.00
H78    H     0.20045   0.68473   0.96130   0.00000  Uiso   1.00
H79    H     0.77519   0.40301   0.92801   0.00000  Uiso   1.00
H80    H     0.07832   0.37648   0.78643   0.00000  Uiso   1.00
H81    H     0.38309   0.93639   0.02519   0.00000  Uiso   1.00
H82    H     0.48639   0.34232   0.95498   0.00000  Uiso   1.00
H83    H     0.12560   0.28639   0.65642   0.00000  Uiso   1.00
O84    O     0.41869   0.21072   0.01459   0.00000  Uiso   1.00
O85    O     0.24226   0.43130   0.92247   0.00000  Uiso   1.00
O86    O     0.08088   0.35793   0.53076   0.00000  Uiso   1.00
N87    N     0.22828   0.13237   0.92912   0.00000  Uiso   1.00
N88    N     0.38993   0.57696   0.86349   0.00000  Uiso   1.00
N89    N     0.98750   0.52465   0.58436   0.00000  Uiso   1.00
N90    N     0.31909   0.97636   0.98967   0.00000  Uiso   1.00
N91    N     0.48074   0.42096   0.92404   0.00000  Uiso   1.00
N92    N     0.07831   0.36864   0.64490   0.00000  Uiso   1.00
