data_job_06437
_audit_creation_date              2018-12-19
_audit_creation_method            'Materials Studio'
_symmetry_space_group_name_H-M    'P1'
_symmetry_Int_Tables_number       1
_symmetry_cell_setting            triclinic
loop_
_symmetry_equiv_pos_as_xyz
  x,y,z
_cell_length_a                    14.4835
_cell_length_b                    18.3298
_cell_length_c                    18.5244
_cell_angle_alpha                 113.3900
_cell_angle_beta                  74.8264
_cell_angle_gamma                 75.9085
loop_
_atom_site_label
_atom_site_type_symbol
_atom_site_fract_x
_atom_site_fract_y
_atom_site_fract_z
_atom_site_U_iso_or_equiv
_atom_site_adp_type
_atom_site_occupancy
C1     C     0.21028   0.30806   0.43594   0.00000  Uiso   1.00
C2     C     0.23153   0.32852   0.51670   0.00000  Uiso   1.00
C3     C     0.19652   0.41020   0.58674   0.00000  Uiso   1.00
C4     C     0.22435   0.41534   0.65432   0.00000  Uiso   1.00
C5     C     0.24817   0.45836   0.78008   0.00000  Uiso   1.00
C6     C     0.31651   0.25924   0.36078   0.00000  Uiso   1.00
C7     C     0.35294   0.28268   0.29972   0.00000  Uiso   1.00
C8     C     0.45229   0.22949   0.23605   0.00000  Uiso   1.00
C9     C     0.60801   0.16493   0.11971   0.00000  Uiso   1.00
C10    C     0.15932   0.24312   0.42723   0.00000  Uiso   1.00
C11    C     0.06359   0.25299   0.42202   0.00000  Uiso   1.00
C12    C     0.03061   0.18622   0.41427   0.00000  Uiso   1.00
C13    C     0.94226   0.09663   0.40110   0.00000  Uiso   1.00
C14    C     0.32193   0.17192   0.43142   0.00000  Uiso   1.00
C15    C     0.29218   0.25457   0.51424   0.00000  Uiso   1.00
C16    C     0.32006   0.25958   0.58174   0.00000  Uiso   1.00
C17    C     0.28510   0.34126   0.65186   0.00000  Uiso   1.00
C18    C     0.37715   0.18530   0.35833   0.00000  Uiso   1.00
C19    C     0.47647   0.13206   0.29472   0.00000  Uiso   1.00
C20    C     0.51305   0.15541   0.23359   0.00000  Uiso   1.00
C21    C     0.21996   0.16917   0.42478   0.00000  Uiso   1.00
C22    C     0.18712   0.10237   0.41702   0.00000  Uiso   1.00
C23    C     0.09137   0.11214   0.41181   0.00000  Uiso   1.00
H24    H     0.16306   0.36563   0.43785   0.00000  Uiso   1.00
H25    H     0.14960   0.46742   0.58861   0.00000  Uiso   1.00
H26    H     0.30599   0.33990   0.30164   0.00000  Uiso   1.00
H27    H     0.01668   0.31022   0.42392   0.00000  Uiso   1.00
H28    H     0.16145   0.54766   0.75466   0.00000  Uiso   1.00
H29    H     0.49119   0.27878   0.14955   0.00000  Uiso   1.00
H30    H     0.88113   0.21619   0.40740   0.00000  Uiso   1.00
H31    H     0.36915   0.11434   0.42950   0.00000  Uiso   1.00
H32    H     0.36699   0.20235   0.57982   0.00000  Uiso   1.00
H33    H     0.52338   0.07484   0.29284   0.00000  Uiso   1.00
H34    H     0.23408   0.04516   0.41513   0.00000  Uiso   1.00
H35    H     0.33790   0.33252   0.74753   0.00000  Uiso   1.00
H36    H     0.66764   0.06364   0.14240   0.00000  Uiso   1.00
H37    H     0.05758   0.00105   0.40026   0.00000  Uiso   1.00
O38    O     0.24457   0.50252   0.85011   0.00000  Uiso   1.00
O39    O     0.67716   0.14975   0.05621   0.00000  Uiso   1.00
O40    O     0.87678   0.06764   0.39452   0.00000  Uiso   1.00
N41    N     0.20326   0.48495   0.73236   0.00000  Uiso   1.00
N42    N     0.51155   0.23357   0.16662   0.00000  Uiso   1.00
N43    N     0.94121   0.17505   0.40767   0.00000  Uiso   1.00
N44    N     0.29820   0.36918   0.72852   0.00000  Uiso   1.00
N45    N     0.60649   0.11781   0.16278   0.00000  Uiso   1.00
N46    N     0.03615   0.05928   0.40383   0.00000  Uiso   1.00
C47    C     0.64602   0.56298   0.87225   0.00000  Uiso   1.00
C48    C     0.74686   0.48320   0.81248   0.00000  Uiso   1.00
C49    C     0.78103   0.41261   0.82397   0.00000  Uiso   1.00
C50    C     0.87542   0.34611   0.76209   0.00000  Uiso   1.00
C51    C     0.02318   0.22163   0.68009   0.00000  Uiso   1.00
C52    C     0.67744   0.64012   0.89822   0.00000  Uiso   1.00
C53    C     0.65324   0.70148   0.98180   0.00000  Uiso   1.00
C54    C     0.68918   0.76707   0.99209   0.00000  Uiso   1.00
C55    C     0.72912   0.88625   0.04320   0.00000  Uiso   1.00
C56    C     0.58700   0.57071   0.81673   0.00000  Uiso   1.00
C57    C     0.48674   0.57373   0.83180   0.00000  Uiso   1.00
C58    C     0.44653   0.58091   0.77350   0.00000  Uiso   1.00
C59    C     0.34603   0.59232   0.69808   0.00000  Uiso   1.00
C60    C     0.75288   0.57038   0.74193   0.00000  Uiso   1.00
C61    C     0.80490   0.48722   0.74170   0.00000  Uiso   1.00
C62    C     0.89926   0.42080   0.67979   0.00000  Uiso   1.00
C63    C     0.93356   0.35013   0.69118   0.00000  Uiso   1.00
C64    C     0.73548   0.64414   0.82744   0.00000  Uiso   1.00
C65    C     0.77146   0.70966   0.83762   0.00000  Uiso   1.00
C66    C     0.74733   0.77110   0.92118   0.00000  Uiso   1.00
C67    C     0.64504   0.57472   0.74595   0.00000  Uiso   1.00
C68    C     0.60497   0.58191   0.68761   0.00000  Uiso   1.00
C69    C     0.50467   0.58494   0.70259   0.00000  Uiso   1.00
H70    H     0.60083   0.55986   0.92736   0.00000  Uiso   1.00
H71    H     0.73609   0.40953   0.87876   0.00000  Uiso   1.00
H72    H     0.60831   0.69836   0.03656   0.00000  Uiso   1.00
H73    H     0.44185   0.57062   0.88658   0.00000  Uiso   1.00
H74    H     0.91167   0.24466   0.79369   0.00000  Uiso   1.00
H75    H     0.64220   0.85367   0.12642   0.00000  Uiso   1.00
H76    H     0.29117   0.58433   0.81016   0.00000  Uiso   1.00
H77    H     0.79807   0.57351   0.68682   0.00000  Uiso   1.00
H78    H     0.94416   0.42392   0.62502   0.00000  Uiso   1.00
H79    H     0.81637   0.71275   0.78282   0.00000  Uiso   1.00
H80    H     0.64991   0.58502   0.63284   0.00000  Uiso   1.00
H81    H     0.08054   0.25634   0.58774   0.00000  Uiso   1.00
H82    H     0.81107   0.86535   0.92048   0.00000  Uiso   1.00
H83    H     0.46005   0.59601   0.60422   0.00000  Uiso   1.00
O84    O     0.08866   0.15186   0.65441   0.00000  Uiso   1.00
O85    O     0.73512   0.95087   0.09095   0.00000  Uiso   1.00
O86    O     0.27458   0.59750   0.67603   0.00000  Uiso   1.00
N87    N     0.93135   0.26792   0.75369   0.00000  Uiso   1.00
N88    N     0.67944   0.83731   0.06477   0.00000  Uiso   1.00
N89    N     0.35124   0.58552   0.76911   0.00000  Uiso   1.00
N90    N     0.02222   0.27421   0.64287   0.00000  Uiso   1.00
N91    N     0.77030   0.84359   0.95396   0.00000  Uiso   1.00
N92    N     0.44211   0.59180   0.65830   0.00000  Uiso   1.00
C93    C     0.51849   0.12746   0.69115   0.00000  Uiso   1.00
C94    C     0.55986   0.18929   0.67126   0.00000  Uiso   1.00
C95    C     0.60536   0.17887   0.59005   0.00000  Uiso   1.00
C96    C     0.63820   0.24261   0.58540   0.00000  Uiso   1.00
C97    C     0.70434   0.32771   0.54327   0.00000  Uiso   1.00
C98    C     0.57513   0.10211   0.74165   0.00000  Uiso   1.00
C99    C     0.63347   0.01840   0.71962   0.00000  Uiso   1.00
C100   C     0.67914   0.00876   0.77423   0.00000  Uiso   1.00
C101   C     0.76893   0.95851   0.84142   0.00000  Uiso   1.00
C102   C     0.40500   0.18125   0.75384   0.00000  Uiso   1.00
C103   C     0.32029   0.16406   0.74207   0.00000  Uiso   1.00
C104   C     0.22272   0.22104   0.80695   0.00000  Uiso   1.00
C105   C     0.04836   0.29366   0.89306   0.00000  Uiso   1.00
C106   C     0.49587   0.25920   0.82732   0.00000  Uiso   1.00
C107   C     0.54757   0.26084   0.74523   0.00000  Uiso   1.00
C108   C     0.58033   0.32462   0.74071   0.00000  Uiso   1.00
C109   C     0.62588   0.31430   0.65950   0.00000  Uiso   1.00
C110   C     0.56284   0.17367   0.81562   0.00000  Uiso   1.00
C111   C     0.60843   0.16415   0.87028   0.00000  Uiso   1.00
C112   C     0.66683   0.08044   0.84833   0.00000  Uiso   1.00
C113   C     0.39271   0.25281   0.82781   0.00000  Uiso   1.00
C114   C     0.29526   0.30982   0.89273   0.00000  Uiso   1.00
C115   C     0.21041   0.29272   0.88106   0.00000  Uiso   1.00
H116   H     0.52807   0.07175   0.63356   0.00000  Uiso   1.00
H117   H     0.61487   0.12347   0.53282   0.00000  Uiso   1.00
H118   H     0.64296   0.96303   0.66238   0.00000  Uiso   1.00
H119   H     0.32983   0.10868   0.68482   0.00000  Uiso   1.00
H120   H     0.70573   0.21237   0.45374   0.00000  Uiso   1.00
H121   H     0.76492   0.87406   0.72694   0.00000  Uiso   1.00
H122   H     0.10462   0.18118   0.77426   0.00000  Uiso   1.00
H123   H     0.48630   0.31491   0.88491   0.00000  Uiso   1.00
H124   H     0.57081   0.37999   0.79796   0.00000  Uiso   1.00
H125   H     0.59890   0.21954   0.92752   0.00000  Uiso   1.00
H126   H     0.28577   0.36519   0.94996   0.00000  Uiso   1.00
H127   H     0.66997   0.42056   0.66894   0.00000  Uiso   1.00
H128   H     0.72916   0.08226   0.94214   0.00000  Uiso   1.00
H129   H     0.06887   0.38938   0.98946   0.00000  Uiso   1.00
O130   O     0.74423   0.35487   0.49960   0.00000  Uiso   1.00
O131   O     0.82186   0.91103   0.85804   0.00000  Uiso   1.00
O132   O     0.95558   0.31396   0.92012   0.00000  Uiso   1.00
N133   N     0.68569   0.25244   0.51632   0.00000  Uiso   1.00
N134   N     0.74105   0.93615   0.77174   0.00000  Uiso   1.00
N135   N     0.12373   0.22327   0.81600   0.00000  Uiso   1.00
N136   N     0.66645   0.36447   0.63212   0.00000  Uiso   1.00
N137   N     0.72181   0.04818   0.88754   0.00000  Uiso   1.00
N138   N     0.10449   0.33530   0.93179   0.00000  Uiso   1.00
C139   C     0.14619   0.87206   0.56353   0.00000  Uiso   1.00
C140   C     0.24711   0.81261   0.48365   0.00000  Uiso   1.00
C141   C     0.28163   0.82457   0.41350   0.00000  Uiso   1.00
C142   C     0.37604   0.76292   0.34682   0.00000  Uiso   1.00
C143   C     0.52399   0.68143   0.22229   0.00000  Uiso   1.00
C144   C     0.17739   0.89850   0.63965   0.00000  Uiso   1.00
C145   C     0.15328   0.98266   0.70067   0.00000  Uiso   1.00
C146   C     0.18900   0.99331   0.76532   0.00000  Uiso   1.00
C147   C     0.22865   0.04516   0.88302   0.00000  Uiso   1.00
C148   C     0.08690   0.81548   0.57162   0.00000  Uiso   1.00
C149   C     0.98668   0.82986   0.57547   0.00000  Uiso   1.00
C150   C     0.94619   0.77062   0.58286   0.00000  Uiso   1.00
C151   C     0.84533   0.69358   0.59493   0.00000  Uiso   1.00
C152   C     0.25247   0.74132   0.56985   0.00000  Uiso   1.00
C153   C     0.30483   0.74160   0.48709   0.00000  Uiso   1.00
C154   C     0.39921   0.67991   0.42050   0.00000  Uiso   1.00
C155   C     0.43387   0.69177   0.35026   0.00000  Uiso   1.00
C156   C     0.23512   0.82749   0.64309   0.00000  Uiso   1.00
C157   C     0.27087   0.83801   0.70767   0.00000  Uiso   1.00
C158   C     0.24683   0.92216   0.76876   0.00000  Uiso   1.00
C159   C     0.14462   0.74446   0.57506   0.00000  Uiso   1.00
C160   C     0.10427   0.68520   0.58245   0.00000  Uiso   1.00
C161   C     0.00402   0.69948   0.58630   0.00000  Uiso   1.00
H162   H     0.10125   0.92736   0.56086   0.00000  Uiso   1.00
H163   H     0.23694   0.87954   0.41087   0.00000  Uiso   1.00
H164   H     0.10861   0.03761   0.69800   0.00000  Uiso   1.00
H165   H     0.94203   0.88482   0.57281   0.00000  Uiso   1.00
H166   H     0.41285   0.79522   0.24611   0.00000  Uiso   1.00
H167   H     0.14223   0.12852   0.85155   0.00000  Uiso   1.00
H168   H     0.79097   0.80635   0.58756   0.00000  Uiso   1.00
H169   H     0.29741   0.68603   0.57253   0.00000  Uiso   1.00
H170   H     0.44387   0.62496   0.42317   0.00000  Uiso   1.00
H171   H     0.31553   0.78304   0.71031   0.00000  Uiso   1.00
H172   H     0.14896   0.63025   0.58511   0.00000  Uiso   1.00
H173   H     0.58081   0.58860   0.25609   0.00000  Uiso   1.00
H174   H     0.31018   0.92190   0.86155   0.00000  Uiso   1.00
H175   H     0.95893   0.59972   0.59755   0.00000  Uiso   1.00
O176   O     0.58965   0.65611   0.15265   0.00000  Uiso   1.00
O177   O     0.23458   0.09339   0.94698   0.00000  Uiso   1.00
O178   O     0.77375   0.67070   0.60062   0.00000  Uiso   1.00
N179   N     0.43227   0.75496   0.26895   0.00000  Uiso   1.00
N180   N     0.17927   0.06658   0.83500   0.00000  Uiso   1.00
N181   N     0.85086   0.76539   0.58821   0.00000  Uiso   1.00
N182   N     0.52264   0.64378   0.27432   0.00000  Uiso   1.00
N183   N     0.26964   0.95540   0.84037   0.00000  Uiso   1.00
N184   N     0.94124   0.65420   0.59358   0.00000  Uiso   1.00
C185   C     0.01837   0.69060   0.12756   0.00000  Uiso   1.00
C186   C     0.05939   0.67081   0.18841   0.00000  Uiso   1.00
C187   C     0.10460   0.58916   0.17764   0.00000  Uiso   1.00
C188   C     0.13714   0.58468   0.24047   0.00000  Uiso   1.00
C189   C     0.20274   0.54261   0.32413   0.00000  Uiso   1.00
C190   C     0.07533   0.74212   0.10204   0.00000  Uiso   1.00
C191   C     0.13393   0.72042   0.01865   0.00000  Uiso   1.00
C192   C     0.17987   0.77598   0.00878   0.00000  Uiso   1.00
C193   C     0.27017   0.84465   0.95835   0.00000  Uiso   1.00
C194   C     0.90491   0.75293   0.18181   0.00000  Uiso   1.00
C195   C     0.82022   0.74033   0.16549   0.00000  Uiso   1.00
C196   C     0.72269   0.80501   0.22276   0.00000  Uiso   1.00
C197   C     0.54838   0.89046   0.29619   0.00000  Uiso   1.00
C198   C     0.99577   0.82785   0.25829   0.00000  Uiso   1.00
C199   C     0.04711   0.74536   0.25941   0.00000  Uiso   1.00
C200   C     0.07959   0.74101   0.32228   0.00000  Uiso   1.00
C201   C     0.12484   0.65937   0.31161   0.00000  Uiso   1.00
C202   C     0.06306   0.81666   0.17304   0.00000  Uiso   1.00
C203   C     0.10892   0.87227   0.16329   0.00000  Uiso   1.00
C204   C     0.16758   0.85067   0.07991   0.00000  Uiso   1.00
C205   C     0.89263   0.82747   0.25282   0.00000  Uiso   1.00
C206   C     0.79521   0.89218   0.31013   0.00000  Uiso   1.00
C207   C     0.71039   0.87969   0.29390   0.00000  Uiso   1.00
H208   H     0.02793   0.63256   0.07227   0.00000  Uiso   1.00
H209   H     0.11409   0.53148   0.12268   0.00000  Uiso   1.00
H210   H     0.14341   0.66273   0.96372   0.00000  Uiso   1.00
H211   H     0.82975   0.68264   0.11053   0.00000  Uiso   1.00
H212   H     0.20424   0.45229   0.20986   0.00000  Uiso   1.00
H213   H     0.26602   0.72905   0.87468   0.00000  Uiso   1.00
H214   H     0.60461   0.77103   0.18426   0.00000  Uiso   1.00
H215   H     0.98621   0.88589   0.31357   0.00000  Uiso   1.00
H216   H     0.07008   0.79871   0.37722   0.00000  Uiso   1.00
H217   H     0.09940   0.92996   0.21825   0.00000  Uiso   1.00
H218   H     0.78574   0.94987   0.36507   0.00000  Uiso   1.00
H219   H     0.16852   0.66918   0.41645   0.00000  Uiso   1.00
H220   H     0.23030   0.94595   0.08126   0.00000  Uiso   1.00
H221   H     0.56889   0.98792   0.39085   0.00000  Uiso   1.00
O222   O     0.24234   0.49881   0.35066   0.00000  Uiso   1.00
O223   O     0.32337   0.86192   0.91091   0.00000  Uiso   1.00
O224   O     0.45563   0.91699   0.31708   0.00000  Uiso   1.00
N225   N     0.18430   0.51530   0.24976   0.00000  Uiso   1.00
N226   N     0.24208   0.77405   0.93638   0.00000  Uiso   1.00
N227   N     0.62372   0.81331   0.22580   0.00000  Uiso   1.00
N228   N     0.16508   0.63201   0.36092   0.00000  Uiso   1.00
N229   N     0.22286   0.89076   0.04754   0.00000  Uiso   1.00
N230   N     0.60450   0.93001   0.33697   0.00000  Uiso   1.00
C231   C     0.71023   0.43584   0.30824   0.00000  Uiso   1.00
C232   C     0.73175   0.51758   0.32839   0.00000  Uiso   1.00
C233   C     0.69669   0.58796   0.40961   0.00000  Uiso   1.00
C234   C     0.72478   0.65646   0.41452   0.00000  Uiso   1.00
C235   C     0.74896   0.78365   0.45702   0.00000  Uiso   1.00
C236   C     0.81636   0.36086   0.25897   0.00000  Uiso   1.00
C237   C     0.85243   0.29947   0.28182   0.00000  Uiso   1.00
C238   C     0.95174   0.23603   0.22828   0.00000  Uiso   1.00
C239   C     0.10725   0.11987   0.16296   0.00000  Uiso   1.00
C240   C     0.65951   0.42667   0.24437   0.00000  Uiso   1.00
C241   C     0.56372   0.42059   0.25493   0.00000  Uiso   1.00
C242   C     0.53098   0.41254   0.18910   0.00000  Uiso   1.00
C243   C     0.44296   0.39858   0.10112   0.00000  Uiso   1.00
C244   C     0.82245   0.43233   0.17253   0.00000  Uiso   1.00
C245   C     0.79270   0.51567   0.25467   0.00000  Uiso   1.00
C246   C     0.82085   0.58408   0.25946   0.00000  Uiso   1.00
C247   C     0.78584   0.65455   0.34067   0.00000  Uiso   1.00
C248   C     0.87731   0.35895   0.18525   0.00000  Uiso   1.00
C249   C     0.97658   0.29559   0.13167   0.00000  Uiso   1.00
C250   C     0.01281   0.23412   0.15443   0.00000  Uiso   1.00
C251   C     0.72046   0.42477   0.17066   0.00000  Uiso   1.00
C252   C     0.68787   0.41672   0.10479   0.00000  Uiso   1.00
C253   C     0.59205   0.41063   0.11525   0.00000  Uiso   1.00
H254   H     0.66279   0.43732   0.36563   0.00000  Uiso   1.00
H255   H     0.64954   0.58941   0.46664   0.00000  Uiso   1.00
H256   H     0.80524   0.30095   0.33886   0.00000  Uiso   1.00
H257   H     0.51657   0.42207   0.31199   0.00000  Uiso   1.00
H258   H     0.66175   0.75717   0.54613   0.00000  Uiso   1.00
H259   H     0.99006   0.14894   0.27668   0.00000  Uiso   1.00
H260   H     0.38134   0.40432   0.22001   0.00000  Uiso   1.00
H261   H     0.86990   0.43085   0.11514   0.00000  Uiso   1.00
H262   H     0.86801   0.58259   0.20240   0.00000  Uiso   1.00
H263   H     0.02373   0.29413   0.07462   0.00000  Uiso   1.00
H264   H     0.73506   0.41525   0.04775   0.00000  Uiso   1.00
H265   H     0.83908   0.75164   0.33166   0.00000  Uiso   1.00
H266   H     0.16739   0.14339   0.06221   0.00000  Uiso   1.00
H267   H     0.55867   0.39879   0.00555   0.00000  Uiso   1.00
O268   O     0.74547   0.85433   0.50082   0.00000  Uiso   1.00
O269   O     0.17619   0.05634   0.14731   0.00000  Uiso   1.00
O270   O     0.37756   0.39141   0.07297   0.00000  Uiso   1.00
N271   N     0.70373   0.73505   0.48367   0.00000  Uiso   1.00
N272   N     0.01069   0.16640   0.23176   0.00000  Uiso   1.00
N273   N     0.44160   0.40514   0.17877   0.00000  Uiso   1.00
N274   N     0.79915   0.73207   0.36827   0.00000  Uiso   1.00
N275   N     0.10610   0.16342   0.11636   0.00000  Uiso   1.00
N276   N     0.53702   0.40216   0.06337   0.00000  Uiso   1.00
