data_job_01994
_audit_creation_date              2018-12-19
_audit_creation_method            'Materials Studio'
_symmetry_space_group_name_H-M    'P1'
_symmetry_Int_Tables_number       1
_symmetry_cell_setting            triclinic
loop_
_symmetry_equiv_pos_as_xyz
  x,y,z
_cell_length_a                    29.0673
_cell_length_b                    10.5007
_cell_length_c                    22.2205
_cell_angle_alpha                 90.0000
_cell_angle_beta                  90.0000
_cell_angle_gamma                 90.0000
loop_
_atom_site_label
_atom_site_type_symbol
_atom_site_fract_x
_atom_site_fract_y
_atom_site_fract_z
_atom_site_U_iso_or_equiv
_atom_site_adp_type
_atom_site_occupancy
C1     C     0.88652   0.03593   0.36561   0.00000  Uiso   1.00
C2     C     0.84921   0.09117   0.40618   0.00000  Uiso   1.00
C3     C     0.85468   0.19234   0.44572   0.00000  Uiso   1.00
C4     C     0.81636   0.22856   0.47886   0.00000  Uiso   1.00
C5     C     0.76485   0.32384   0.54283   0.00000  Uiso   1.00
C6     C     0.88947   0.89471   0.38112   0.00000  Uiso   1.00
C7     C     0.92878   0.83069   0.39958   0.00000  Uiso   1.00
C8     C     0.92435   0.70153   0.41162   0.00000  Uiso   1.00
C9     C     0.93536   0.49177   0.43663   0.00000  Uiso   1.00
C10    C     0.86760   0.04272   0.30168   0.00000  Uiso   1.00
C11    C     0.88854   0.10313   0.25335   0.00000  Uiso   1.00
C12    C     0.86570   0.09855   0.19851   0.00000  Uiso   1.00
C13    C     0.84275   0.11861   0.10019   0.00000  Uiso   1.00
C14    C     0.80875   0.92036   0.35415   0.00000  Uiso   1.00
C15    C     0.80697   0.02839   0.39995   0.00000  Uiso   1.00
C16    C     0.76863   0.06448   0.43304   0.00000  Uiso   1.00
C17    C     0.77404   0.16568   0.47263   0.00000  Uiso   1.00
C18    C     0.84723   0.83193   0.37490   0.00000  Uiso   1.00
C19    C     0.84274   0.70283   0.38691   0.00000  Uiso   1.00
C20    C     0.88204   0.63864   0.40539   0.00000  Uiso   1.00
C21    C     0.82536   0.97995   0.29546   0.00000  Uiso   1.00
C22    C     0.80249   0.97527   0.24068   0.00000  Uiso   1.00
C23    C     0.82339   0.03566   0.19228   0.00000  Uiso   1.00
H24    H     0.91941   0.08480   0.37045   0.00000  Uiso   1.00
H25    H     0.88737   0.24089   0.45053   0.00000  Uiso   1.00
H26    H     0.96147   0.87930   0.40439   0.00000  Uiso   1.00
H27    H     0.92122   0.15169   0.25818   0.00000  Uiso   1.00
H28    H     0.83323   0.38623   0.53657   0.00000  Uiso   1.00
H29    H     0.98947   0.62378   0.43927   0.00000  Uiso   1.00
H30    H     0.90461   0.19819   0.13097   0.00000  Uiso   1.00
H31    H     0.77587   0.87149   0.34931   0.00000  Uiso   1.00
H32    H     0.73595   0.01588   0.42822   0.00000  Uiso   1.00
H33    H     0.81005   0.65428   0.38208   0.00000  Uiso   1.00
H34    H     0.76980   0.92668   0.23588   0.00000  Uiso   1.00
H35    H     0.71033   0.20360   0.51847   0.00000  Uiso   1.00
H36    H     0.86657   0.44115   0.42117   0.00000  Uiso   1.00
H37    H     0.78171   0.01556   0.11287   0.00000  Uiso   1.00
O38    O     0.74811   0.39372   0.57983   0.00000  Uiso   1.00
O39    O     0.95309   0.39342   0.45216   0.00000  Uiso   1.00
O40    O     0.84176   0.14703   0.04768   0.00000  Uiso   1.00
N41    N     0.80978   0.32345   0.52147   0.00000  Uiso   1.00
N42    N     0.95585   0.61061   0.43051   0.00000  Uiso   1.00
N43    N     0.87652   0.14760   0.14227   0.00000  Uiso   1.00
N44    N     0.74365   0.22518   0.51173   0.00000  Uiso   1.00
N45    N     0.88972   0.51234   0.42077   0.00000  Uiso   1.00
N46    N     0.81039   0.04933   0.13253   0.00000  Uiso   1.00
C47    C     0.88652   0.53593   0.86561   0.00000  Uiso   1.00
C48    C     0.84921   0.59117   0.90618   0.00000  Uiso   1.00
C49    C     0.85468   0.69234   0.94572   0.00000  Uiso   1.00
C50    C     0.81636   0.72856   0.97886   0.00000  Uiso   1.00
C51    C     0.76485   0.82384   0.04283   0.00000  Uiso   1.00
C52    C     0.88947   0.39471   0.88112   0.00000  Uiso   1.00
C53    C     0.92878   0.33069   0.89958   0.00000  Uiso   1.00
C54    C     0.92435   0.20153   0.91162   0.00000  Uiso   1.00
C55    C     0.93536   0.99177   0.93663   0.00000  Uiso   1.00
C56    C     0.86760   0.54272   0.80168   0.00000  Uiso   1.00
C57    C     0.88854   0.60313   0.75335   0.00000  Uiso   1.00
C58    C     0.86570   0.59855   0.69851   0.00000  Uiso   1.00
C59    C     0.84275   0.61861   0.60019   0.00000  Uiso   1.00
C60    C     0.80875   0.42036   0.85415   0.00000  Uiso   1.00
C61    C     0.80697   0.52839   0.89995   0.00000  Uiso   1.00
C62    C     0.76863   0.56448   0.93304   0.00000  Uiso   1.00
C63    C     0.77404   0.66568   0.97263   0.00000  Uiso   1.00
C64    C     0.84723   0.33193   0.87490   0.00000  Uiso   1.00
C65    C     0.84274   0.20283   0.88691   0.00000  Uiso   1.00
C66    C     0.88204   0.13864   0.90539   0.00000  Uiso   1.00
C67    C     0.82536   0.47995   0.79546   0.00000  Uiso   1.00
C68    C     0.80249   0.47527   0.74068   0.00000  Uiso   1.00
C69    C     0.82339   0.53566   0.69228   0.00000  Uiso   1.00
H70    H     0.91941   0.58480   0.87045   0.00000  Uiso   1.00
H71    H     0.88737   0.74089   0.95053   0.00000  Uiso   1.00
H72    H     0.96147   0.37930   0.90439   0.00000  Uiso   1.00
H73    H     0.92122   0.65169   0.75818   0.00000  Uiso   1.00
H74    H     0.83323   0.88623   0.03657   0.00000  Uiso   1.00
H75    H     0.98947   0.12378   0.93927   0.00000  Uiso   1.00
H76    H     0.90461   0.69819   0.63097   0.00000  Uiso   1.00
H77    H     0.77587   0.37149   0.84931   0.00000  Uiso   1.00
H78    H     0.73595   0.51588   0.92822   0.00000  Uiso   1.00
H79    H     0.81005   0.15428   0.88208   0.00000  Uiso   1.00
H80    H     0.76980   0.42668   0.73588   0.00000  Uiso   1.00
H81    H     0.71033   0.70360   0.01847   0.00000  Uiso   1.00
H82    H     0.86657   0.94115   0.92117   0.00000  Uiso   1.00
H83    H     0.78171   0.51556   0.61287   0.00000  Uiso   1.00
O84    O     0.74811   0.89372   0.07983   0.00000  Uiso   1.00
O85    O     0.95309   0.89342   0.95216   0.00000  Uiso   1.00
O86    O     0.84176   0.64703   0.54768   0.00000  Uiso   1.00
N87    N     0.80978   0.82345   0.02147   0.00000  Uiso   1.00
N88    N     0.95585   0.11061   0.93051   0.00000  Uiso   1.00
N89    N     0.87652   0.64760   0.64227   0.00000  Uiso   1.00
N90    N     0.74365   0.72518   0.01173   0.00000  Uiso   1.00
N91    N     0.88972   0.01234   0.92077   0.00000  Uiso   1.00
N92    N     0.81039   0.54933   0.63253   0.00000  Uiso   1.00
C93    C     0.11348   0.96407   0.36561   0.00000  Uiso   1.00
C94    C     0.15079   0.90883   0.40618   0.00000  Uiso   1.00
C95    C     0.14532   0.80766   0.44572   0.00000  Uiso   1.00
C96    C     0.18364   0.77144   0.47886   0.00000  Uiso   1.00
C97    C     0.23515   0.67616   0.54283   0.00000  Uiso   1.00
C98    C     0.11053   0.10529   0.38112   0.00000  Uiso   1.00
C99    C     0.07122   0.16931   0.39958   0.00000  Uiso   1.00
C100   C     0.07565   0.29847   0.41162   0.00000  Uiso   1.00
C101   C     0.06464   0.50823   0.43663   0.00000  Uiso   1.00
C102   C     0.13240   0.95728   0.30168   0.00000  Uiso   1.00
C103   C     0.11146   0.89687   0.25335   0.00000  Uiso   1.00
C104   C     0.13430   0.90145   0.19851   0.00000  Uiso   1.00
C105   C     0.15725   0.88139   0.10019   0.00000  Uiso   1.00
C106   C     0.19125   0.07964   0.35415   0.00000  Uiso   1.00
C107   C     0.19303   0.97161   0.39995   0.00000  Uiso   1.00
C108   C     0.23137   0.93552   0.43304   0.00000  Uiso   1.00
C109   C     0.22596   0.83432   0.47263   0.00000  Uiso   1.00
C110   C     0.15277   0.16807   0.37490   0.00000  Uiso   1.00
C111   C     0.15726   0.29717   0.38691   0.00000  Uiso   1.00
C112   C     0.11796   0.36136   0.40539   0.00000  Uiso   1.00
C113   C     0.17464   0.02005   0.29546   0.00000  Uiso   1.00
C114   C     0.19751   0.02473   0.24068   0.00000  Uiso   1.00
C115   C     0.17661   0.96434   0.19228   0.00000  Uiso   1.00
H116   H     0.08059   0.91520   0.37045   0.00000  Uiso   1.00
H117   H     0.11263   0.75911   0.45053   0.00000  Uiso   1.00
H118   H     0.03853   0.12070   0.40439   0.00000  Uiso   1.00
H119   H     0.07878   0.84831   0.25818   0.00000  Uiso   1.00
H120   H     0.16677   0.61377   0.53657   0.00000  Uiso   1.00
H121   H     0.01053   0.37622   0.43927   0.00000  Uiso   1.00
H122   H     0.09539   0.80181   0.13097   0.00000  Uiso   1.00
H123   H     0.22413   0.12851   0.34931   0.00000  Uiso   1.00
H124   H     0.26405   0.98412   0.42822   0.00000  Uiso   1.00
H125   H     0.18995   0.34572   0.38208   0.00000  Uiso   1.00
H126   H     0.23020   0.07332   0.23588   0.00000  Uiso   1.00
H127   H     0.28967   0.79640   0.51847   0.00000  Uiso   1.00
H128   H     0.13343   0.55885   0.42117   0.00000  Uiso   1.00
H129   H     0.21829   0.98444   0.11287   0.00000  Uiso   1.00
O130   O     0.25189   0.60628   0.57983   0.00000  Uiso   1.00
O131   O     0.04691   0.60658   0.45216   0.00000  Uiso   1.00
O132   O     0.15824   0.85297   0.04768   0.00000  Uiso   1.00
N133   N     0.19022   0.67655   0.52147   0.00000  Uiso   1.00
N134   N     0.04415   0.38939   0.43051   0.00000  Uiso   1.00
N135   N     0.12348   0.85240   0.14227   0.00000  Uiso   1.00
N136   N     0.25635   0.77482   0.51173   0.00000  Uiso   1.00
N137   N     0.11028   0.48766   0.42077   0.00000  Uiso   1.00
N138   N     0.18961   0.95067   0.13253   0.00000  Uiso   1.00
C139   C     0.11348   0.46407   0.86561   0.00000  Uiso   1.00
C140   C     0.15079   0.40883   0.90618   0.00000  Uiso   1.00
C141   C     0.14532   0.30766   0.94572   0.00000  Uiso   1.00
C142   C     0.18364   0.27144   0.97886   0.00000  Uiso   1.00
C143   C     0.23515   0.17616   0.04283   0.00000  Uiso   1.00
C144   C     0.11053   0.60529   0.88112   0.00000  Uiso   1.00
C145   C     0.07122   0.66931   0.89958   0.00000  Uiso   1.00
C146   C     0.07565   0.79847   0.91162   0.00000  Uiso   1.00
C147   C     0.06464   0.00823   0.93663   0.00000  Uiso   1.00
C148   C     0.13240   0.45728   0.80168   0.00000  Uiso   1.00
C149   C     0.11146   0.39687   0.75335   0.00000  Uiso   1.00
C150   C     0.13430   0.40145   0.69851   0.00000  Uiso   1.00
C151   C     0.15725   0.38139   0.60019   0.00000  Uiso   1.00
C152   C     0.19125   0.57964   0.85415   0.00000  Uiso   1.00
C153   C     0.19303   0.47161   0.89995   0.00000  Uiso   1.00
C154   C     0.23137   0.43552   0.93304   0.00000  Uiso   1.00
C155   C     0.22596   0.33432   0.97263   0.00000  Uiso   1.00
C156   C     0.15277   0.66807   0.87490   0.00000  Uiso   1.00
C157   C     0.15726   0.79717   0.88691   0.00000  Uiso   1.00
C158   C     0.11796   0.86136   0.90539   0.00000  Uiso   1.00
C159   C     0.17464   0.52005   0.79546   0.00000  Uiso   1.00
C160   C     0.19751   0.52473   0.74068   0.00000  Uiso   1.00
C161   C     0.17661   0.46434   0.69228   0.00000  Uiso   1.00
H162   H     0.08059   0.41520   0.87045   0.00000  Uiso   1.00
H163   H     0.11263   0.25911   0.95053   0.00000  Uiso   1.00
H164   H     0.03853   0.62070   0.90439   0.00000  Uiso   1.00
H165   H     0.07878   0.34831   0.75818   0.00000  Uiso   1.00
H166   H     0.16677   0.11377   0.03657   0.00000  Uiso   1.00
H167   H     0.01053   0.87622   0.93927   0.00000  Uiso   1.00
H168   H     0.09539   0.30181   0.63097   0.00000  Uiso   1.00
H169   H     0.22413   0.62851   0.84931   0.00000  Uiso   1.00
H170   H     0.26405   0.48412   0.92822   0.00000  Uiso   1.00
H171   H     0.18995   0.84572   0.88208   0.00000  Uiso   1.00
H172   H     0.23020   0.57332   0.73588   0.00000  Uiso   1.00
H173   H     0.28967   0.29640   0.01847   0.00000  Uiso   1.00
H174   H     0.13343   0.05885   0.92117   0.00000  Uiso   1.00
H175   H     0.21829   0.48444   0.61287   0.00000  Uiso   1.00
O176   O     0.25189   0.10628   0.07983   0.00000  Uiso   1.00
O177   O     0.04691   0.10658   0.95216   0.00000  Uiso   1.00
O178   O     0.15824   0.35297   0.54768   0.00000  Uiso   1.00
N179   N     0.19022   0.17655   0.02147   0.00000  Uiso   1.00
N180   N     0.04415   0.88939   0.93051   0.00000  Uiso   1.00
N181   N     0.12348   0.35240   0.64227   0.00000  Uiso   1.00
N182   N     0.25635   0.27482   0.01173   0.00000  Uiso   1.00
N183   N     0.11028   0.98766   0.92077   0.00000  Uiso   1.00
N184   N     0.18961   0.45067   0.63253   0.00000  Uiso   1.00
C185   C     0.38652   0.46407   0.36561   0.00000  Uiso   1.00
C186   C     0.34921   0.40883   0.40618   0.00000  Uiso   1.00
C187   C     0.35468   0.30766   0.44572   0.00000  Uiso   1.00
C188   C     0.31636   0.27144   0.47886   0.00000  Uiso   1.00
C189   C     0.26485   0.17616   0.54283   0.00000  Uiso   1.00
C190   C     0.38947   0.60529   0.38112   0.00000  Uiso   1.00
C191   C     0.42878   0.66931   0.39958   0.00000  Uiso   1.00
C192   C     0.42435   0.79847   0.41162   0.00000  Uiso   1.00
C193   C     0.43536   0.00823   0.43663   0.00000  Uiso   1.00
C194   C     0.36760   0.45728   0.30168   0.00000  Uiso   1.00
C195   C     0.38854   0.39687   0.25335   0.00000  Uiso   1.00
C196   C     0.36570   0.40145   0.19851   0.00000  Uiso   1.00
C197   C     0.34275   0.38139   0.10019   0.00000  Uiso   1.00
C198   C     0.30875   0.57964   0.35415   0.00000  Uiso   1.00
C199   C     0.30697   0.47161   0.39995   0.00000  Uiso   1.00
C200   C     0.26863   0.43552   0.43304   0.00000  Uiso   1.00
C201   C     0.27404   0.33432   0.47263   0.00000  Uiso   1.00
C202   C     0.34723   0.66807   0.37490   0.00000  Uiso   1.00
C203   C     0.34274   0.79717   0.38691   0.00000  Uiso   1.00
C204   C     0.38204   0.86136   0.40539   0.00000  Uiso   1.00
C205   C     0.32536   0.52005   0.29546   0.00000  Uiso   1.00
C206   C     0.30249   0.52473   0.24068   0.00000  Uiso   1.00
C207   C     0.32339   0.46434   0.19228   0.00000  Uiso   1.00
H208   H     0.41941   0.41520   0.37045   0.00000  Uiso   1.00
H209   H     0.38737   0.25911   0.45053   0.00000  Uiso   1.00
H210   H     0.46147   0.62070   0.40439   0.00000  Uiso   1.00
H211   H     0.42122   0.34831   0.25818   0.00000  Uiso   1.00
H212   H     0.33323   0.11377   0.53657   0.00000  Uiso   1.00
H213   H     0.48947   0.87622   0.43927   0.00000  Uiso   1.00
H214   H     0.40461   0.30181   0.13097   0.00000  Uiso   1.00
H215   H     0.27587   0.62851   0.34931   0.00000  Uiso   1.00
H216   H     0.23595   0.48412   0.42822   0.00000  Uiso   1.00
H217   H     0.31005   0.84572   0.38208   0.00000  Uiso   1.00
H218   H     0.26980   0.57332   0.23588   0.00000  Uiso   1.00
H219   H     0.21033   0.29640   0.51847   0.00000  Uiso   1.00
H220   H     0.36657   0.05885   0.42117   0.00000  Uiso   1.00
H221   H     0.28171   0.48444   0.11287   0.00000  Uiso   1.00
O222   O     0.24811   0.10628   0.57983   0.00000  Uiso   1.00
O223   O     0.45309   0.10658   0.45216   0.00000  Uiso   1.00
O224   O     0.34176   0.35297   0.04768   0.00000  Uiso   1.00
N225   N     0.30978   0.17655   0.52147   0.00000  Uiso   1.00
N226   N     0.45585   0.88939   0.43051   0.00000  Uiso   1.00
N227   N     0.37652   0.35240   0.14227   0.00000  Uiso   1.00
N228   N     0.24365   0.27482   0.51173   0.00000  Uiso   1.00
N229   N     0.38972   0.98766   0.42077   0.00000  Uiso   1.00
N230   N     0.31039   0.45067   0.13253   0.00000  Uiso   1.00
C231   C     0.38652   0.96407   0.86561   0.00000  Uiso   1.00
C232   C     0.34921   0.90883   0.90618   0.00000  Uiso   1.00
C233   C     0.35468   0.80766   0.94572   0.00000  Uiso   1.00
C234   C     0.31636   0.77144   0.97886   0.00000  Uiso   1.00
C235   C     0.26485   0.67616   0.04283   0.00000  Uiso   1.00
C236   C     0.38947   0.10529   0.88112   0.00000  Uiso   1.00
C237   C     0.42878   0.16931   0.89958   0.00000  Uiso   1.00
C238   C     0.42435   0.29847   0.91162   0.00000  Uiso   1.00
C239   C     0.43536   0.50823   0.93663   0.00000  Uiso   1.00
C240   C     0.36760   0.95728   0.80168   0.00000  Uiso   1.00
C241   C     0.38854   0.89687   0.75335   0.00000  Uiso   1.00
C242   C     0.36570   0.90145   0.69851   0.00000  Uiso   1.00
C243   C     0.34275   0.88139   0.60019   0.00000  Uiso   1.00
C244   C     0.30875   0.07964   0.85415   0.00000  Uiso   1.00
C245   C     0.30697   0.97161   0.89995   0.00000  Uiso   1.00
C246   C     0.26863   0.93552   0.93304   0.00000  Uiso   1.00
C247   C     0.27404   0.83432   0.97263   0.00000  Uiso   1.00
C248   C     0.34723   0.16807   0.87490   0.00000  Uiso   1.00
C249   C     0.34274   0.29717   0.88691   0.00000  Uiso   1.00
C250   C     0.38204   0.36136   0.90539   0.00000  Uiso   1.00
C251   C     0.32536   0.02005   0.79546   0.00000  Uiso   1.00
C252   C     0.30249   0.02473   0.74068   0.00000  Uiso   1.00
C253   C     0.32339   0.96434   0.69228   0.00000  Uiso   1.00
H254   H     0.41941   0.91520   0.87045   0.00000  Uiso   1.00
H255   H     0.38737   0.75911   0.95053   0.00000  Uiso   1.00
H256   H     0.46147   0.12070   0.90439   0.00000  Uiso   1.00
H257   H     0.42122   0.84831   0.75818   0.00000  Uiso   1.00
H258   H     0.33323   0.61377   0.03657   0.00000  Uiso   1.00
H259   H     0.48947   0.37622   0.93927   0.00000  Uiso   1.00
H260   H     0.40461   0.80181   0.63097   0.00000  Uiso   1.00
H261   H     0.27587   0.12851   0.84931   0.00000  Uiso   1.00
H262   H     0.23595   0.98412   0.92822   0.00000  Uiso   1.00
H263   H     0.31005   0.34572   0.88208   0.00000  Uiso   1.00
H264   H     0.26980   0.07332   0.73588   0.00000  Uiso   1.00
H265   H     0.21033   0.79640   0.01847   0.00000  Uiso   1.00
H266   H     0.36657   0.55885   0.92117   0.00000  Uiso   1.00
H267   H     0.28171   0.98444   0.61287   0.00000  Uiso   1.00
O268   O     0.24811   0.60628   0.07983   0.00000  Uiso   1.00
O269   O     0.45309   0.60658   0.95216   0.00000  Uiso   1.00
O270   O     0.34176   0.85297   0.54768   0.00000  Uiso   1.00
N271   N     0.30978   0.67655   0.02147   0.00000  Uiso   1.00
N272   N     0.45585   0.38939   0.93051   0.00000  Uiso   1.00
N273   N     0.37652   0.85240   0.64227   0.00000  Uiso   1.00
N274   N     0.24365   0.77482   0.01173   0.00000  Uiso   1.00
N275   N     0.38972   0.48766   0.92077   0.00000  Uiso   1.00
N276   N     0.31039   0.95067   0.63253   0.00000  Uiso   1.00
C277   C     0.61348   0.53593   0.36561   0.00000  Uiso   1.00
C278   C     0.65079   0.59117   0.40618   0.00000  Uiso   1.00
C279   C     0.64532   0.69234   0.44572   0.00000  Uiso   1.00
C280   C     0.68364   0.72856   0.47886   0.00000  Uiso   1.00
C281   C     0.73515   0.82384   0.54283   0.00000  Uiso   1.00
C282   C     0.61053   0.39471   0.38112   0.00000  Uiso   1.00
C283   C     0.57122   0.33069   0.39958   0.00000  Uiso   1.00
C284   C     0.57565   0.20153   0.41162   0.00000  Uiso   1.00
C285   C     0.56464   0.99177   0.43663   0.00000  Uiso   1.00
C286   C     0.63240   0.54272   0.30168   0.00000  Uiso   1.00
C287   C     0.61146   0.60313   0.25335   0.00000  Uiso   1.00
C288   C     0.63430   0.59855   0.19851   0.00000  Uiso   1.00
C289   C     0.65725   0.61861   0.10019   0.00000  Uiso   1.00
C290   C     0.69125   0.42036   0.35415   0.00000  Uiso   1.00
C291   C     0.69303   0.52839   0.39995   0.00000  Uiso   1.00
C292   C     0.73137   0.56448   0.43304   0.00000  Uiso   1.00
C293   C     0.72596   0.66568   0.47263   0.00000  Uiso   1.00
C294   C     0.65277   0.33193   0.37490   0.00000  Uiso   1.00
C295   C     0.65726   0.20283   0.38691   0.00000  Uiso   1.00
C296   C     0.61796   0.13864   0.40539   0.00000  Uiso   1.00
C297   C     0.67464   0.47995   0.29546   0.00000  Uiso   1.00
C298   C     0.69751   0.47527   0.24068   0.00000  Uiso   1.00
C299   C     0.67661   0.53566   0.19228   0.00000  Uiso   1.00
H300   H     0.58059   0.58480   0.37045   0.00000  Uiso   1.00
H301   H     0.61263   0.74089   0.45053   0.00000  Uiso   1.00
H302   H     0.53853   0.37930   0.40439   0.00000  Uiso   1.00
H303   H     0.57878   0.65169   0.25818   0.00000  Uiso   1.00
H304   H     0.66677   0.88623   0.53657   0.00000  Uiso   1.00
H305   H     0.51053   0.12378   0.43927   0.00000  Uiso   1.00
H306   H     0.59539   0.69819   0.13097   0.00000  Uiso   1.00
H307   H     0.72413   0.37149   0.34931   0.00000  Uiso   1.00
H308   H     0.76405   0.51588   0.42822   0.00000  Uiso   1.00
H309   H     0.68995   0.15428   0.38208   0.00000  Uiso   1.00
H310   H     0.73020   0.42668   0.23588   0.00000  Uiso   1.00
H311   H     0.78967   0.70360   0.51847   0.00000  Uiso   1.00
H312   H     0.63343   0.94115   0.42117   0.00000  Uiso   1.00
H313   H     0.71829   0.51556   0.11287   0.00000  Uiso   1.00
O314   O     0.75189   0.89372   0.57983   0.00000  Uiso   1.00
O315   O     0.54691   0.89342   0.45216   0.00000  Uiso   1.00
O316   O     0.65824   0.64703   0.04768   0.00000  Uiso   1.00
N317   N     0.69022   0.82345   0.52147   0.00000  Uiso   1.00
N318   N     0.54415   0.11061   0.43051   0.00000  Uiso   1.00
N319   N     0.62348   0.64760   0.14227   0.00000  Uiso   1.00
N320   N     0.75635   0.72518   0.51173   0.00000  Uiso   1.00
N321   N     0.61028   0.01234   0.42077   0.00000  Uiso   1.00
N322   N     0.68961   0.54933   0.13253   0.00000  Uiso   1.00
C323   C     0.61348   0.03593   0.86561   0.00000  Uiso   1.00
C324   C     0.65079   0.09117   0.90618   0.00000  Uiso   1.00
C325   C     0.64532   0.19234   0.94572   0.00000  Uiso   1.00
C326   C     0.68364   0.22856   0.97886   0.00000  Uiso   1.00
C327   C     0.73515   0.32384   0.04283   0.00000  Uiso   1.00
C328   C     0.61053   0.89471   0.88112   0.00000  Uiso   1.00
C329   C     0.57122   0.83069   0.89958   0.00000  Uiso   1.00
C330   C     0.57565   0.70153   0.91162   0.00000  Uiso   1.00
C331   C     0.56464   0.49177   0.93663   0.00000  Uiso   1.00
C332   C     0.63240   0.04272   0.80168   0.00000  Uiso   1.00
C333   C     0.61146   0.10313   0.75335   0.00000  Uiso   1.00
C334   C     0.63430   0.09855   0.69851   0.00000  Uiso   1.00
C335   C     0.65725   0.11861   0.60019   0.00000  Uiso   1.00
C336   C     0.69125   0.92036   0.85415   0.00000  Uiso   1.00
C337   C     0.69303   0.02839   0.89995   0.00000  Uiso   1.00
C338   C     0.73137   0.06448   0.93304   0.00000  Uiso   1.00
C339   C     0.72596   0.16568   0.97263   0.00000  Uiso   1.00
C340   C     0.65277   0.83193   0.87490   0.00000  Uiso   1.00
C341   C     0.65726   0.70283   0.88691   0.00000  Uiso   1.00
C342   C     0.61796   0.63864   0.90539   0.00000  Uiso   1.00
C343   C     0.67464   0.97995   0.79546   0.00000  Uiso   1.00
C344   C     0.69751   0.97527   0.74068   0.00000  Uiso   1.00
C345   C     0.67661   0.03566   0.69228   0.00000  Uiso   1.00
H346   H     0.58059   0.08480   0.87045   0.00000  Uiso   1.00
H347   H     0.61263   0.24089   0.95053   0.00000  Uiso   1.00
H348   H     0.53853   0.87930   0.90439   0.00000  Uiso   1.00
H349   H     0.57878   0.15169   0.75818   0.00000  Uiso   1.00
H350   H     0.66677   0.38623   0.03657   0.00000  Uiso   1.00
H351   H     0.51053   0.62378   0.93927   0.00000  Uiso   1.00
H352   H     0.59539   0.19819   0.63097   0.00000  Uiso   1.00
H353   H     0.72413   0.87149   0.84931   0.00000  Uiso   1.00
H354   H     0.76405   0.01588   0.92822   0.00000  Uiso   1.00
H355   H     0.68995   0.65428   0.88208   0.00000  Uiso   1.00
H356   H     0.73020   0.92668   0.73588   0.00000  Uiso   1.00
H357   H     0.78967   0.20360   0.01847   0.00000  Uiso   1.00
H358   H     0.63343   0.44115   0.92117   0.00000  Uiso   1.00
H359   H     0.71829   0.01556   0.61287   0.00000  Uiso   1.00
O360   O     0.75189   0.39372   0.07983   0.00000  Uiso   1.00
O361   O     0.54691   0.39342   0.95216   0.00000  Uiso   1.00
O362   O     0.65824   0.14703   0.54768   0.00000  Uiso   1.00
N363   N     0.69022   0.32345   0.02147   0.00000  Uiso   1.00
N364   N     0.54415   0.61061   0.93051   0.00000  Uiso   1.00
N365   N     0.62348   0.14760   0.64227   0.00000  Uiso   1.00
N366   N     0.75635   0.22518   0.01173   0.00000  Uiso   1.00
N367   N     0.61028   0.51234   0.92077   0.00000  Uiso   1.00
N368   N     0.68961   0.04933   0.63253   0.00000  Uiso   1.00
