data_job_03053
_audit_creation_date              2018-12-19
_audit_creation_method            'Materials Studio'
_symmetry_space_group_name_H-M    'P1'
_symmetry_Int_Tables_number       1
_symmetry_cell_setting            triclinic
loop_
_symmetry_equiv_pos_as_xyz
  x,y,z
_cell_length_a                    12.6377
_cell_length_b                    20.3832
_cell_length_c                    19.8683
_cell_angle_alpha                 90.0000
_cell_angle_beta                  119.8643
_cell_angle_gamma                 90.0000
loop_
_atom_site_label
_atom_site_type_symbol
_atom_site_fract_x
_atom_site_fract_y
_atom_site_fract_z
_atom_site_U_iso_or_equiv
_atom_site_adp_type
_atom_site_occupancy
C1     C     0.14889   0.82485   0.19085   0.00000  Uiso   1.00
C2     C     0.11803   0.75687   0.15394   0.00000  Uiso   1.00
C3     C     0.17114   0.69838   0.19124   0.00000  Uiso   1.00
C4     C     0.13035   0.64139   0.14735   0.00000  Uiso   1.00
C5     C     0.09626   0.53560   0.10195   0.00000  Uiso   1.00
C6     C     0.18522   0.86593   0.14142   0.00000  Uiso   1.00
C7     C     0.29483   0.89915   0.16820   0.00000  Uiso   1.00
C8     C     0.31059   0.93398   0.11377   0.00000  Uiso   1.00
C9     C     0.38077   0.99755   0.04894   0.00000  Uiso   1.00
C10    C     0.02907   0.85369   0.17832   0.00000  Uiso   1.00
C11    C     0.00738   0.87663   0.23613   0.00000  Uiso   1.00
C12    C     0.89168   0.90117   0.21276   0.00000  Uiso   1.00
C13    C     0.71941   0.94573   0.20523   0.00000  Uiso   1.00
C14    C     0.98199   0.82767   0.04658   0.00000  Uiso   1.00
C15    C     0.02737   0.75840   0.07558   0.00000  Uiso   1.00
C16    C     0.98648   0.70149   0.03162   0.00000  Uiso   1.00
C17    C     0.03953   0.64292   0.06885   0.00000  Uiso   1.00
C18    C     0.09457   0.86746   0.06306   0.00000  Uiso   1.00
C19    C     0.11017   0.90226   0.00858   0.00000  Uiso   1.00
C20    C     0.21977   0.93551   0.03527   0.00000  Uiso   1.00
C21    C     0.93841   0.85522   0.09996   0.00000  Uiso   1.00
C22    C     0.82272   0.87973   0.07650   0.00000  Uiso   1.00
C23    C     0.80086   0.90270   0.13426   0.00000  Uiso   1.00
H24    H     0.21948   0.82367   0.25186   0.00000  Uiso   1.00
H25    H     0.24131   0.69721   0.25189   0.00000  Uiso   1.00
H26    H     0.36496   0.89796   0.22885   0.00000  Uiso   1.00
H27    H     0.07756   0.87544   0.29676   0.00000  Uiso   1.00
H28    H     0.22556   0.55769   0.21735   0.00000  Uiso   1.00
H29    H     0.48627   0.98099   0.16878   0.00000  Uiso   1.00
H30    H     0.88023   0.93351   0.31199   0.00000  Uiso   1.00
H31    H     0.91141   0.82886   0.98557   0.00000  Uiso   1.00
H32    H     0.91633   0.70269   0.97098   0.00000  Uiso   1.00
H33    H     0.03999   0.90343   0.94794   0.00000  Uiso   1.00
H34    H     0.75259   0.88091   0.01585   0.00000  Uiso   1.00
H35    H     0.96180   0.56213   0.98935   0.00000  Uiso   1.00
H36    H     0.22252   0.98544   0.94078   0.00000  Uiso   1.00
H37    H     0.61648   0.93795   0.08399   0.00000  Uiso   1.00
O38    O     0.10251   0.47682   0.09855   0.00000  Uiso   1.00
O39    O     0.44454   0.03219   0.03483   0.00000  Uiso   1.00
O40    O     0.64943   0.96988   0.22272   0.00000  Uiso   1.00
N41    N     0.16279   0.57605   0.16569   0.00000  Uiso   1.00
N42    N     0.40655   0.97181   0.12028   0.00000  Uiso   1.00
N43    N     0.83997   0.92742   0.25417   0.00000  Uiso   1.00
N44    N     0.02086   0.57844   0.04301   0.00000  Uiso   1.00
N45    N     0.26463   0.97420   0.99760   0.00000  Uiso   1.00
N46    N     0.69804   0.92981   0.13149   0.00000  Uiso   1.00
C47    C     0.85111   0.32485   0.30915   0.00000  Uiso   1.00
C48    C     0.88197   0.25687   0.34606   0.00000  Uiso   1.00
C49    C     0.82886   0.19838   0.30876   0.00000  Uiso   1.00
C50    C     0.86965   0.14139   0.35265   0.00000  Uiso   1.00
C51    C     0.90374   0.03560   0.39805   0.00000  Uiso   1.00
C52    C     0.81478   0.36593   0.35858   0.00000  Uiso   1.00
C53    C     0.70517   0.39915   0.33180   0.00000  Uiso   1.00
C54    C     0.68941   0.43398   0.38623   0.00000  Uiso   1.00
C55    C     0.61923   0.49755   0.45106   0.00000  Uiso   1.00
C56    C     0.97093   0.35369   0.32168   0.00000  Uiso   1.00
C57    C     0.99262   0.37663   0.26387   0.00000  Uiso   1.00
C58    C     0.10832   0.40117   0.28724   0.00000  Uiso   1.00
C59    C     0.28059   0.44573   0.29477   0.00000  Uiso   1.00
C60    C     0.01801   0.32767   0.45342   0.00000  Uiso   1.00
C61    C     0.97263   0.25840   0.42442   0.00000  Uiso   1.00
C62    C     0.01352   0.20149   0.46838   0.00000  Uiso   1.00
C63    C     0.96047   0.14292   0.43115   0.00000  Uiso   1.00
C64    C     0.90543   0.36746   0.43694   0.00000  Uiso   1.00
C65    C     0.88983   0.40226   0.49142   0.00000  Uiso   1.00
C66    C     0.78023   0.43551   0.46473   0.00000  Uiso   1.00
C67    C     0.06159   0.35522   0.40004   0.00000  Uiso   1.00
C68    C     0.17728   0.37973   0.42350   0.00000  Uiso   1.00
C69    C     0.19914   0.40270   0.36574   0.00000  Uiso   1.00
H70    H     0.78052   0.32367   0.24814   0.00000  Uiso   1.00
H71    H     0.75869   0.19721   0.24811   0.00000  Uiso   1.00
H72    H     0.63504   0.39796   0.27115   0.00000  Uiso   1.00
H73    H     0.92244   0.37544   0.20324   0.00000  Uiso   1.00
H74    H     0.77444   0.05769   0.28265   0.00000  Uiso   1.00
H75    H     0.51373   0.48099   0.33122   0.00000  Uiso   1.00
H76    H     0.11977   0.43351   0.18801   0.00000  Uiso   1.00
H77    H     0.08859   0.32886   0.51443   0.00000  Uiso   1.00
H78    H     0.08367   0.20269   0.52902   0.00000  Uiso   1.00
H79    H     0.96001   0.40343   0.55206   0.00000  Uiso   1.00
H80    H     0.24741   0.38091   0.48415   0.00000  Uiso   1.00
H81    H     0.03820   0.06213   0.51065   0.00000  Uiso   1.00
H82    H     0.77748   0.48544   0.55922   0.00000  Uiso   1.00
H83    H     0.38352   0.43795   0.41601   0.00000  Uiso   1.00
O84    O     0.89749   0.97682   0.40145   0.00000  Uiso   1.00
O85    O     0.55546   0.53219   0.46517   0.00000  Uiso   1.00
O86    O     0.35057   0.46988   0.27728   0.00000  Uiso   1.00
N87    N     0.83721   0.07605   0.33431   0.00000  Uiso   1.00
N88    N     0.59345   0.47181   0.37972   0.00000  Uiso   1.00
N89    N     0.16003   0.42742   0.24583   0.00000  Uiso   1.00
N90    N     0.97914   0.07844   0.45699   0.00000  Uiso   1.00
N91    N     0.73537   0.47420   0.50240   0.00000  Uiso   1.00
N92    N     0.30196   0.42981   0.36851   0.00000  Uiso   1.00
C93    C     0.85111   0.17515   0.80915   0.00000  Uiso   1.00
C94    C     0.88197   0.24313   0.84606   0.00000  Uiso   1.00
C95    C     0.82886   0.30162   0.80876   0.00000  Uiso   1.00
C96    C     0.86965   0.35861   0.85265   0.00000  Uiso   1.00
C97    C     0.90374   0.46440   0.89805   0.00000  Uiso   1.00
C98    C     0.81478   0.13407   0.85858   0.00000  Uiso   1.00
C99    C     0.70517   0.10085   0.83180   0.00000  Uiso   1.00
C100   C     0.68941   0.06602   0.88623   0.00000  Uiso   1.00
C101   C     0.61923   0.00245   0.95106   0.00000  Uiso   1.00
C102   C     0.97093   0.14631   0.82168   0.00000  Uiso   1.00
C103   C     0.99262   0.12337   0.76387   0.00000  Uiso   1.00
C104   C     0.10832   0.09883   0.78724   0.00000  Uiso   1.00
C105   C     0.28059   0.05427   0.79477   0.00000  Uiso   1.00
C106   C     0.01801   0.17233   0.95342   0.00000  Uiso   1.00
C107   C     0.97263   0.24160   0.92442   0.00000  Uiso   1.00
C108   C     0.01352   0.29851   0.96838   0.00000  Uiso   1.00
C109   C     0.96047   0.35708   0.93115   0.00000  Uiso   1.00
C110   C     0.90543   0.13254   0.93694   0.00000  Uiso   1.00
C111   C     0.88983   0.09774   0.99142   0.00000  Uiso   1.00
C112   C     0.78023   0.06449   0.96473   0.00000  Uiso   1.00
C113   C     0.06159   0.14478   0.90004   0.00000  Uiso   1.00
C114   C     0.17728   0.12027   0.92350   0.00000  Uiso   1.00
C115   C     0.19914   0.09730   0.86574   0.00000  Uiso   1.00
H116   H     0.78052   0.17633   0.74814   0.00000  Uiso   1.00
H117   H     0.75869   0.30279   0.74811   0.00000  Uiso   1.00
H118   H     0.63504   0.10204   0.77115   0.00000  Uiso   1.00
H119   H     0.92244   0.12456   0.70324   0.00000  Uiso   1.00
H120   H     0.77444   0.44231   0.78265   0.00000  Uiso   1.00
H121   H     0.51373   0.01901   0.83122   0.00000  Uiso   1.00
H122   H     0.11977   0.06649   0.68801   0.00000  Uiso   1.00
H123   H     0.08859   0.17114   0.01443   0.00000  Uiso   1.00
H124   H     0.08367   0.29731   0.02902   0.00000  Uiso   1.00
H125   H     0.96001   0.09657   0.05206   0.00000  Uiso   1.00
H126   H     0.24741   0.11909   0.98415   0.00000  Uiso   1.00
H127   H     0.03820   0.43787   0.01065   0.00000  Uiso   1.00
H128   H     0.77748   0.01456   0.05922   0.00000  Uiso   1.00
H129   H     0.38352   0.06205   0.91601   0.00000  Uiso   1.00
O130   O     0.89749   0.52318   0.90145   0.00000  Uiso   1.00
O131   O     0.55546   0.96781   0.96517   0.00000  Uiso   1.00
O132   O     0.35057   0.03012   0.77728   0.00000  Uiso   1.00
N133   N     0.83721   0.42395   0.83431   0.00000  Uiso   1.00
N134   N     0.59345   0.02819   0.87972   0.00000  Uiso   1.00
N135   N     0.16003   0.07258   0.74583   0.00000  Uiso   1.00
N136   N     0.97914   0.42156   0.95699   0.00000  Uiso   1.00
N137   N     0.73537   0.02580   0.00240   0.00000  Uiso   1.00
N138   N     0.30196   0.07019   0.86851   0.00000  Uiso   1.00
C139   C     0.14889   0.67515   0.69085   0.00000  Uiso   1.00
C140   C     0.11803   0.74313   0.65394   0.00000  Uiso   1.00
C141   C     0.17114   0.80162   0.69124   0.00000  Uiso   1.00
C142   C     0.13035   0.85861   0.64735   0.00000  Uiso   1.00
C143   C     0.09626   0.96440   0.60195   0.00000  Uiso   1.00
C144   C     0.18522   0.63407   0.64142   0.00000  Uiso   1.00
C145   C     0.29483   0.60085   0.66820   0.00000  Uiso   1.00
C146   C     0.31059   0.56602   0.61377   0.00000  Uiso   1.00
C147   C     0.38077   0.50245   0.54894   0.00000  Uiso   1.00
C148   C     0.02907   0.64631   0.67832   0.00000  Uiso   1.00
C149   C     0.00738   0.62337   0.73613   0.00000  Uiso   1.00
C150   C     0.89168   0.59883   0.71276   0.00000  Uiso   1.00
C151   C     0.71941   0.55427   0.70523   0.00000  Uiso   1.00
C152   C     0.98199   0.67233   0.54658   0.00000  Uiso   1.00
C153   C     0.02737   0.74160   0.57558   0.00000  Uiso   1.00
C154   C     0.98648   0.79851   0.53162   0.00000  Uiso   1.00
C155   C     0.03953   0.85708   0.56885   0.00000  Uiso   1.00
C156   C     0.09457   0.63254   0.56306   0.00000  Uiso   1.00
C157   C     0.11017   0.59774   0.50858   0.00000  Uiso   1.00
C158   C     0.21977   0.56449   0.53527   0.00000  Uiso   1.00
C159   C     0.93841   0.64478   0.59996   0.00000  Uiso   1.00
C160   C     0.82272   0.62027   0.57650   0.00000  Uiso   1.00
C161   C     0.80086   0.59730   0.63426   0.00000  Uiso   1.00
H162   H     0.21948   0.67633   0.75186   0.00000  Uiso   1.00
H163   H     0.24131   0.80279   0.75189   0.00000  Uiso   1.00
H164   H     0.36496   0.60204   0.72885   0.00000  Uiso   1.00
H165   H     0.07756   0.62456   0.79676   0.00000  Uiso   1.00
H166   H     0.22556   0.94231   0.71735   0.00000  Uiso   1.00
H167   H     0.48627   0.51901   0.66878   0.00000  Uiso   1.00
H168   H     0.88023   0.56649   0.81199   0.00000  Uiso   1.00
H169   H     0.91141   0.67114   0.48557   0.00000  Uiso   1.00
H170   H     0.91633   0.79731   0.47098   0.00000  Uiso   1.00
H171   H     0.03999   0.59657   0.44794   0.00000  Uiso   1.00
H172   H     0.75259   0.61909   0.51585   0.00000  Uiso   1.00
H173   H     0.96180   0.93787   0.48935   0.00000  Uiso   1.00
H174   H     0.22252   0.51456   0.44078   0.00000  Uiso   1.00
H175   H     0.61648   0.56205   0.58399   0.00000  Uiso   1.00
O176   O     0.10251   0.02318   0.59855   0.00000  Uiso   1.00
O177   O     0.44454   0.46781   0.53483   0.00000  Uiso   1.00
O178   O     0.64943   0.53012   0.72272   0.00000  Uiso   1.00
N179   N     0.16279   0.92395   0.66569   0.00000  Uiso   1.00
N180   N     0.40655   0.52819   0.62028   0.00000  Uiso   1.00
N181   N     0.83997   0.57258   0.75417   0.00000  Uiso   1.00
N182   N     0.02086   0.92156   0.54301   0.00000  Uiso   1.00
N183   N     0.26463   0.52580   0.49760   0.00000  Uiso   1.00
N184   N     0.69804   0.57019   0.63149   0.00000  Uiso   1.00
