data_job_03987
_audit_creation_date              2018-12-19
_audit_creation_method            'Materials Studio'
_symmetry_space_group_name_H-M    'P1'
_symmetry_Int_Tables_number       1
_symmetry_cell_setting            triclinic
loop_
_symmetry_equiv_pos_as_xyz
  x,y,z
_cell_length_a                    25.5935
_cell_length_b                    15.0638
_cell_length_c                    7.1043
_cell_angle_alpha                 90.0000
_cell_angle_beta                  90.0000
_cell_angle_gamma                 90.0000
loop_
_atom_site_label
_atom_site_type_symbol
_atom_site_fract_x
_atom_site_fract_y
_atom_site_fract_z
_atom_site_U_iso_or_equiv
_atom_site_adp_type
_atom_site_occupancy
C1     C     0.12613   0.62139   0.00546   0.00000  Uiso   1.00
C2     C     0.11127   0.54873   0.86593   0.00000  Uiso   1.00
C3     C     0.10115   0.46070   0.91051   0.00000  Uiso   1.00
C4     C     0.08820   0.40457   0.76268   0.00000  Uiso   1.00
C5     C     0.06556   0.28704   0.57425   0.00000  Uiso   1.00
C6     C     0.17787   0.65943   0.93606   0.00000  Uiso   1.00
C7     C     0.22376   0.66449   0.03964   0.00000  Uiso   1.00
C8     C     0.26688   0.70157   0.95084   0.00000  Uiso   1.00
C9     C     0.34764   0.75597   0.87135   0.00000  Uiso   1.00
C10    C     0.08582   0.69498   0.98015   0.00000  Uiso   1.00
C11    C     0.05432   0.72994   0.12080   0.00000  Uiso   1.00
C12    C     0.01994   0.79696   0.06914   0.00000  Uiso   1.00
C13    C     0.95778   0.90654   0.05809   0.00000  Uiso   1.00
C14    C     0.12112   0.67826   0.66364   0.00000  Uiso   1.00
C15    C     0.10855   0.57962   0.68026   0.00000  Uiso   1.00
C16    C     0.09561   0.52362   0.53232   0.00000  Uiso   1.00
C17    C     0.08547   0.43552   0.57668   0.00000  Uiso   1.00
C18    C     0.17516   0.69032   0.75040   0.00000  Uiso   1.00
C19    C     0.21822   0.72741   0.66144   0.00000  Uiso   1.00
C20    C     0.26415   0.73251   0.76484   0.00000  Uiso   1.00
C21    C     0.08310   0.72587   0.79448   0.00000  Uiso   1.00
C22    C     0.04878   0.79285   0.74260   0.00000  Uiso   1.00
C23    C     0.01722   0.82790   0.88313   0.00000  Uiso   1.00
H24    H     0.12825   0.59734   0.15001   0.00000  Uiso   1.00
H25    H     0.10326   0.43682   0.05422   0.00000  Uiso   1.00
H26    H     0.22585   0.64059   0.18332   0.00000  Uiso   1.00
H27    H     0.05643   0.70602   0.26446   0.00000  Uiso   1.00
H28    H     0.07437   0.27246   0.86612   0.00000  Uiso   1.00
H29    H     0.33285   0.70215   0.13836   0.00000  Uiso   1.00
H30    H     0.97561   0.84012   0.30947   0.00000  Uiso   1.00
H31    H     0.11901   0.70231   0.51908   0.00000  Uiso   1.00
H32    H     0.09351   0.54754   0.38865   0.00000  Uiso   1.00
H33    H     0.21610   0.75131   0.51776   0.00000  Uiso   1.00
H34    H     0.04668   0.81674   0.59890   0.00000  Uiso   1.00
H35    H     0.06646   0.36232   0.32592   0.00000  Uiso   1.00
H36    H     0.32494   0.79201   0.59817   0.00000  Uiso   1.00
H37    H     0.96769   0.92999   0.76928   0.00000  Uiso   1.00
O38    O     0.05383   0.21368   0.52160   0.00000  Uiso   1.00
O39    O     0.39294   0.77743   0.87879   0.00000  Uiso   1.00
O40    O     0.92424   0.95844   0.10328   0.00000  Uiso   1.00
N41    N     0.07600   0.31485   0.75689   0.00000  Uiso   1.00
N42    N     0.31767   0.71657   0.01141   0.00000  Uiso   1.00
N43    N     0.98368   0.84558   0.17139   0.00000  Uiso   1.00
N44    N     0.07174   0.36321   0.46621   0.00000  Uiso   1.00
N45    N     0.31341   0.76493   0.72073   0.00000  Uiso   1.00
N46    N     0.97942   0.89394   0.88072   0.00000  Uiso   1.00
C47    C     0.87387   0.37861   0.00546   0.00000  Uiso   1.00
C48    C     0.88873   0.45127   0.86593   0.00000  Uiso   1.00
C49    C     0.89885   0.53930   0.91051   0.00000  Uiso   1.00
C50    C     0.91180   0.59543   0.76268   0.00000  Uiso   1.00
C51    C     0.93444   0.71296   0.57425   0.00000  Uiso   1.00
C52    C     0.82213   0.34057   0.93606   0.00000  Uiso   1.00
C53    C     0.77624   0.33551   0.03964   0.00000  Uiso   1.00
C54    C     0.73312   0.29843   0.95084   0.00000  Uiso   1.00
C55    C     0.65236   0.24403   0.87135   0.00000  Uiso   1.00
C56    C     0.91418   0.30502   0.98015   0.00000  Uiso   1.00
C57    C     0.94568   0.27006   0.12080   0.00000  Uiso   1.00
C58    C     0.98006   0.20304   0.06914   0.00000  Uiso   1.00
C59    C     0.04222   0.09346   0.05809   0.00000  Uiso   1.00
C60    C     0.87888   0.32174   0.66364   0.00000  Uiso   1.00
C61    C     0.89145   0.42038   0.68026   0.00000  Uiso   1.00
C62    C     0.90439   0.47638   0.53232   0.00000  Uiso   1.00
C63    C     0.91453   0.56448   0.57668   0.00000  Uiso   1.00
C64    C     0.82484   0.30968   0.75040   0.00000  Uiso   1.00
C65    C     0.78178   0.27259   0.66144   0.00000  Uiso   1.00
C66    C     0.73585   0.26749   0.76484   0.00000  Uiso   1.00
C67    C     0.91690   0.27413   0.79448   0.00000  Uiso   1.00
C68    C     0.95122   0.20715   0.74260   0.00000  Uiso   1.00
C69    C     0.98278   0.17210   0.88313   0.00000  Uiso   1.00
H70    H     0.87175   0.40266   0.15001   0.00000  Uiso   1.00
H71    H     0.89674   0.56318   0.05422   0.00000  Uiso   1.00
H72    H     0.77415   0.35941   0.18332   0.00000  Uiso   1.00
H73    H     0.94357   0.29398   0.26446   0.00000  Uiso   1.00
H74    H     0.92563   0.72754   0.86612   0.00000  Uiso   1.00
H75    H     0.66715   0.29785   0.13836   0.00000  Uiso   1.00
H76    H     0.02439   0.15988   0.30947   0.00000  Uiso   1.00
H77    H     0.88099   0.29769   0.51908   0.00000  Uiso   1.00
H78    H     0.90649   0.45246   0.38865   0.00000  Uiso   1.00
H79    H     0.78390   0.24869   0.51776   0.00000  Uiso   1.00
H80    H     0.95332   0.18326   0.59890   0.00000  Uiso   1.00
H81    H     0.93354   0.63768   0.32592   0.00000  Uiso   1.00
H82    H     0.67506   0.20799   0.59817   0.00000  Uiso   1.00
H83    H     0.03231   0.07001   0.76928   0.00000  Uiso   1.00
O84    O     0.94617   0.78632   0.52160   0.00000  Uiso   1.00
O85    O     0.60706   0.22257   0.87879   0.00000  Uiso   1.00
O86    O     0.07576   0.04156   0.10328   0.00000  Uiso   1.00
N87    N     0.92400   0.68515   0.75689   0.00000  Uiso   1.00
N88    N     0.68233   0.28343   0.01141   0.00000  Uiso   1.00
N89    N     0.01632   0.15442   0.17139   0.00000  Uiso   1.00
N90    N     0.92826   0.63679   0.46621   0.00000  Uiso   1.00
N91    N     0.68659   0.23507   0.72073   0.00000  Uiso   1.00
N92    N     0.02058   0.10606   0.88072   0.00000  Uiso   1.00
C93    C     0.37387   0.12139   0.99454   0.00000  Uiso   1.00
C94    C     0.38873   0.04873   0.13407   0.00000  Uiso   1.00
C95    C     0.39885   0.96070   0.08949   0.00000  Uiso   1.00
C96    C     0.41180   0.90457   0.23732   0.00000  Uiso   1.00
C97    C     0.43444   0.78704   0.42575   0.00000  Uiso   1.00
C98    C     0.32213   0.15943   0.06394   0.00000  Uiso   1.00
C99    C     0.27624   0.16449   0.96036   0.00000  Uiso   1.00
C100   C     0.23312   0.20157   0.04916   0.00000  Uiso   1.00
C101   C     0.15236   0.25597   0.12865   0.00000  Uiso   1.00
C102   C     0.41418   0.19498   0.01985   0.00000  Uiso   1.00
C103   C     0.44568   0.22994   0.87920   0.00000  Uiso   1.00
C104   C     0.48006   0.29696   0.93086   0.00000  Uiso   1.00
C105   C     0.54222   0.40654   0.94191   0.00000  Uiso   1.00
C106   C     0.37888   0.17826   0.33636   0.00000  Uiso   1.00
C107   C     0.39145   0.07962   0.31974   0.00000  Uiso   1.00
C108   C     0.40439   0.02362   0.46768   0.00000  Uiso   1.00
C109   C     0.41453   0.93552   0.42332   0.00000  Uiso   1.00
C110   C     0.32484   0.19032   0.24960   0.00000  Uiso   1.00
C111   C     0.28178   0.22741   0.33856   0.00000  Uiso   1.00
C112   C     0.23585   0.23251   0.23516   0.00000  Uiso   1.00
C113   C     0.41690   0.22587   0.20552   0.00000  Uiso   1.00
C114   C     0.45122   0.29285   0.25740   0.00000  Uiso   1.00
C115   C     0.48278   0.32790   0.11687   0.00000  Uiso   1.00
H116   H     0.37175   0.09734   0.84999   0.00000  Uiso   1.00
H117   H     0.39674   0.93682   0.94578   0.00000  Uiso   1.00
H118   H     0.27415   0.14059   0.81668   0.00000  Uiso   1.00
H119   H     0.44357   0.20602   0.73554   0.00000  Uiso   1.00
H120   H     0.42563   0.77246   0.13388   0.00000  Uiso   1.00
H121   H     0.16715   0.20215   0.86164   0.00000  Uiso   1.00
H122   H     0.52439   0.34012   0.69053   0.00000  Uiso   1.00
H123   H     0.38099   0.20231   0.48092   0.00000  Uiso   1.00
H124   H     0.40649   0.04754   0.61135   0.00000  Uiso   1.00
H125   H     0.28390   0.25131   0.48224   0.00000  Uiso   1.00
H126   H     0.45332   0.31674   0.40110   0.00000  Uiso   1.00
H127   H     0.43354   0.86232   0.67408   0.00000  Uiso   1.00
H128   H     0.17506   0.29201   0.40183   0.00000  Uiso   1.00
H129   H     0.53231   0.42999   0.23072   0.00000  Uiso   1.00
O130   O     0.44617   0.71368   0.47840   0.00000  Uiso   1.00
O131   O     0.10706   0.27743   0.12121   0.00000  Uiso   1.00
O132   O     0.57576   0.45844   0.89672   0.00000  Uiso   1.00
N133   N     0.42400   0.81485   0.24311   0.00000  Uiso   1.00
N134   N     0.18233   0.21657   0.98859   0.00000  Uiso   1.00
N135   N     0.51632   0.34558   0.82861   0.00000  Uiso   1.00
N136   N     0.42826   0.86321   0.53379   0.00000  Uiso   1.00
N137   N     0.18659   0.26493   0.27927   0.00000  Uiso   1.00
N138   N     0.52058   0.39394   0.11928   0.00000  Uiso   1.00
C139   C     0.62613   0.87861   0.99454   0.00000  Uiso   1.00
C140   C     0.61127   0.95127   0.13407   0.00000  Uiso   1.00
C141   C     0.60115   0.03930   0.08949   0.00000  Uiso   1.00
C142   C     0.58820   0.09543   0.23732   0.00000  Uiso   1.00
C143   C     0.56556   0.21296   0.42575   0.00000  Uiso   1.00
C144   C     0.67787   0.84057   0.06394   0.00000  Uiso   1.00
C145   C     0.72376   0.83551   0.96036   0.00000  Uiso   1.00
C146   C     0.76688   0.79843   0.04916   0.00000  Uiso   1.00
C147   C     0.84764   0.74403   0.12865   0.00000  Uiso   1.00
C148   C     0.58582   0.80502   0.01985   0.00000  Uiso   1.00
C149   C     0.55432   0.77006   0.87920   0.00000  Uiso   1.00
C150   C     0.51994   0.70304   0.93086   0.00000  Uiso   1.00
C151   C     0.45778   0.59346   0.94191   0.00000  Uiso   1.00
C152   C     0.62112   0.82174   0.33636   0.00000  Uiso   1.00
C153   C     0.60855   0.92038   0.31974   0.00000  Uiso   1.00
C154   C     0.59561   0.97638   0.46768   0.00000  Uiso   1.00
C155   C     0.58547   0.06448   0.42332   0.00000  Uiso   1.00
C156   C     0.67516   0.80968   0.24960   0.00000  Uiso   1.00
C157   C     0.71822   0.77259   0.33856   0.00000  Uiso   1.00
C158   C     0.76415   0.76749   0.23516   0.00000  Uiso   1.00
C159   C     0.58310   0.77413   0.20552   0.00000  Uiso   1.00
C160   C     0.54878   0.70715   0.25740   0.00000  Uiso   1.00
C161   C     0.51722   0.67210   0.11687   0.00000  Uiso   1.00
H162   H     0.62825   0.90266   0.84999   0.00000  Uiso   1.00
H163   H     0.60326   0.06318   0.94578   0.00000  Uiso   1.00
H164   H     0.72585   0.85941   0.81668   0.00000  Uiso   1.00
H165   H     0.55643   0.79398   0.73554   0.00000  Uiso   1.00
H166   H     0.57437   0.22754   0.13388   0.00000  Uiso   1.00
H167   H     0.83285   0.79785   0.86164   0.00000  Uiso   1.00
H168   H     0.47561   0.65988   0.69053   0.00000  Uiso   1.00
H169   H     0.61901   0.79769   0.48092   0.00000  Uiso   1.00
H170   H     0.59351   0.95246   0.61135   0.00000  Uiso   1.00
H171   H     0.71610   0.74869   0.48224   0.00000  Uiso   1.00
H172   H     0.54668   0.68326   0.40110   0.00000  Uiso   1.00
H173   H     0.56646   0.13768   0.67408   0.00000  Uiso   1.00
H174   H     0.82494   0.70799   0.40183   0.00000  Uiso   1.00
H175   H     0.46769   0.57001   0.23072   0.00000  Uiso   1.00
O176   O     0.55383   0.28632   0.47840   0.00000  Uiso   1.00
O177   O     0.89294   0.72257   0.12121   0.00000  Uiso   1.00
O178   O     0.42424   0.54156   0.89672   0.00000  Uiso   1.00
N179   N     0.57600   0.18515   0.24311   0.00000  Uiso   1.00
N180   N     0.81767   0.78343   0.98859   0.00000  Uiso   1.00
N181   N     0.48368   0.65442   0.82861   0.00000  Uiso   1.00
N182   N     0.57174   0.13679   0.53379   0.00000  Uiso   1.00
N183   N     0.81341   0.73507   0.27927   0.00000  Uiso   1.00
N184   N     0.47942   0.60606   0.11928   0.00000  Uiso   1.00
