data_job_01802
_audit_creation_date              2018-12-19
_audit_creation_method            'Materials Studio'
_symmetry_space_group_name_H-M    'P1'
_symmetry_Int_Tables_number       1
_symmetry_cell_setting            triclinic
loop_
_symmetry_equiv_pos_as_xyz
  x,y,z
_cell_length_a                    12.3480
_cell_length_b                    10.9738
_cell_length_c                    19.9091
_cell_angle_alpha                 90.0000
_cell_angle_beta                  90.0000
_cell_angle_gamma                 90.0000
loop_
_atom_site_label
_atom_site_type_symbol
_atom_site_fract_x
_atom_site_fract_y
_atom_site_fract_z
_atom_site_U_iso_or_equiv
_atom_site_adp_type
_atom_site_occupancy
C1     C     0.73017   0.05741   0.60743   0.00000  Uiso   1.00
C2     C     0.73311   0.05821   0.53086   0.00000  Uiso   1.00
C3     C     0.70795   0.15679   0.49008   0.00000  Uiso   1.00
C4     C     0.71559   0.13910   0.42119   0.00000  Uiso   1.00
C5     C     0.71528   0.15740   0.30641   0.00000  Uiso   1.00
C6     C     0.65437   0.95370   0.62714   0.00000  Uiso   1.00
C7     C     0.56302   0.96441   0.66733   0.00000  Uiso   1.00
C8     C     0.50438   0.85874   0.67950   0.00000  Uiso   1.00
C9     C     0.38188   0.71477   0.71425   0.00000  Uiso   1.00
C10    C     0.84297   0.01867   0.63014   0.00000  Uiso   1.00
C11    C     0.91019   0.08398   0.67286   0.00000  Uiso   1.00
C12    C     0.01033   0.03299   0.68757   0.00000  Uiso   1.00
C13    C     0.18065   0.98989   0.72698   0.00000  Uiso   1.00
C14    C     0.78846   0.85070   0.55761   0.00000  Uiso   1.00
C15    C     0.76477   0.94593   0.50380   0.00000  Uiso   1.00
C16    C     0.77245   0.92809   0.43495   0.00000  Uiso   1.00
C17    C     0.74731   0.02662   0.39408   0.00000  Uiso   1.00
C18    C     0.68603   0.84143   0.60008   0.00000  Uiso   1.00
C19    C     0.62752   0.73571   0.61220   0.00000  Uiso   1.00
C20    C     0.53610   0.74626   0.65239   0.00000  Uiso   1.00
C21    C     0.87463   0.90639   0.60308   0.00000  Uiso   1.00
C22    C     0.97468   0.85528   0.61773   0.00000  Uiso   1.00
C23    C     0.04205   0.92051   0.66046   0.00000  Uiso   1.00
H24    H     0.70552   0.14482   0.62850   0.00000  Uiso   1.00
H25    H     0.68344   0.24366   0.51104   0.00000  Uiso   1.00
H26    H     0.53855   0.05131   0.68827   0.00000  Uiso   1.00
H27    H     0.88566   0.17086   0.69380   0.00000  Uiso   1.00
H28    H     0.67290   0.30371   0.36888   0.00000  Uiso   1.00
H29    H     0.36739   0.89812   0.74259   0.00000  Uiso   1.00
H30    H     0.09935   0.15022   0.75425   0.00000  Uiso   1.00
H31    H     0.81311   0.76329   0.53654   0.00000  Uiso   1.00
H32    H     0.79695   0.84119   0.41402   0.00000  Uiso   1.00
H33    H     0.65205   0.64884   0.59125   0.00000  Uiso   1.00
H34    H     0.99916   0.76840   0.59678   0.00000  Uiso   1.00
H35    H     0.76502   0.97705   0.29013   0.00000  Uiso   1.00
H36    H     0.45951   0.57146   0.66385   0.00000  Uiso   1.00
H37    H     0.19147   0.82357   0.67551   0.00000  Uiso   1.00
O38    O     0.70635   0.19850   0.25057   0.00000  Uiso   1.00
O39    O     0.30555   0.66638   0.74088   0.00000  Uiso   1.00
O40    O     0.26586   0.99714   0.75618   0.00000  Uiso   1.00
N41    N     0.69682   0.21615   0.36716   0.00000  Uiso   1.00
N42    N     0.41118   0.83695   0.71655   0.00000  Uiso   1.00
N43    N     0.09548   0.07263   0.72747   0.00000  Uiso   1.00
N44    N     0.74639   0.04038   0.32479   0.00000  Uiso   1.00
N45    N     0.46075   0.66118   0.67418   0.00000  Uiso   1.00
N46    N     0.14505   0.89686   0.68510   0.00000  Uiso   1.00
C47    C     0.76983   0.94259   0.10743   0.00000  Uiso   1.00
C48    C     0.76689   0.94179   0.03086   0.00000  Uiso   1.00
C49    C     0.79205   0.84321   0.99008   0.00000  Uiso   1.00
C50    C     0.78441   0.86090   0.92119   0.00000  Uiso   1.00
C51    C     0.78472   0.84260   0.80641   0.00000  Uiso   1.00
C52    C     0.84563   0.04630   0.12714   0.00000  Uiso   1.00
C53    C     0.93698   0.03559   0.16733   0.00000  Uiso   1.00
C54    C     0.99562   0.14126   0.17950   0.00000  Uiso   1.00
C55    C     0.11812   0.28523   0.21425   0.00000  Uiso   1.00
C56    C     0.65703   0.98133   0.13014   0.00000  Uiso   1.00
C57    C     0.58981   0.91602   0.17286   0.00000  Uiso   1.00
C58    C     0.48967   0.96701   0.18757   0.00000  Uiso   1.00
C59    C     0.31935   0.01011   0.22698   0.00000  Uiso   1.00
C60    C     0.71154   0.14930   0.05761   0.00000  Uiso   1.00
C61    C     0.73523   0.05407   0.00380   0.00000  Uiso   1.00
C62    C     0.72755   0.07191   0.93495   0.00000  Uiso   1.00
C63    C     0.75269   0.97338   0.89408   0.00000  Uiso   1.00
C64    C     0.81397   0.15857   0.10008   0.00000  Uiso   1.00
C65    C     0.87248   0.26429   0.11220   0.00000  Uiso   1.00
C66    C     0.96390   0.25374   0.15239   0.00000  Uiso   1.00
C67    C     0.62537   0.09361   0.10308   0.00000  Uiso   1.00
C68    C     0.52532   0.14472   0.11773   0.00000  Uiso   1.00
C69    C     0.45795   0.07949   0.16046   0.00000  Uiso   1.00
H70    H     0.79448   0.85518   0.12850   0.00000  Uiso   1.00
H71    H     0.81656   0.75634   0.01104   0.00000  Uiso   1.00
H72    H     0.96145   0.94869   0.18827   0.00000  Uiso   1.00
H73    H     0.61434   0.82914   0.19380   0.00000  Uiso   1.00
H74    H     0.82710   0.69629   0.86888   0.00000  Uiso   1.00
H75    H     0.13261   0.10188   0.24259   0.00000  Uiso   1.00
H76    H     0.40065   0.84978   0.25425   0.00000  Uiso   1.00
H77    H     0.68689   0.23671   0.03654   0.00000  Uiso   1.00
H78    H     0.70305   0.15881   0.91402   0.00000  Uiso   1.00
H79    H     0.84795   0.35116   0.09125   0.00000  Uiso   1.00
H80    H     0.50084   0.23160   0.09678   0.00000  Uiso   1.00
H81    H     0.73498   0.02295   0.79013   0.00000  Uiso   1.00
H82    H     0.04049   0.42854   0.16385   0.00000  Uiso   1.00
H83    H     0.30853   0.17643   0.17551   0.00000  Uiso   1.00
O84    O     0.79365   0.80150   0.75057   0.00000  Uiso   1.00
O85    O     0.19445   0.33362   0.24088   0.00000  Uiso   1.00
O86    O     0.23414   0.00286   0.25618   0.00000  Uiso   1.00
N87    N     0.80318   0.78385   0.86716   0.00000  Uiso   1.00
N88    N     0.08882   0.16305   0.21655   0.00000  Uiso   1.00
N89    N     0.40452   0.92737   0.22747   0.00000  Uiso   1.00
N90    N     0.75361   0.95962   0.82479   0.00000  Uiso   1.00
N91    N     0.03925   0.33882   0.17418   0.00000  Uiso   1.00
N92    N     0.35495   0.10314   0.18510   0.00000  Uiso   1.00
C93    C     0.26983   0.55741   0.89257   0.00000  Uiso   1.00
C94    C     0.26689   0.55821   0.96914   0.00000  Uiso   1.00
C95    C     0.29205   0.65679   0.00992   0.00000  Uiso   1.00
C96    C     0.28441   0.63910   0.07881   0.00000  Uiso   1.00
C97    C     0.28472   0.65740   0.19359   0.00000  Uiso   1.00
C98    C     0.34563   0.45370   0.87286   0.00000  Uiso   1.00
C99    C     0.43698   0.46441   0.83267   0.00000  Uiso   1.00
C100   C     0.49562   0.35874   0.82050   0.00000  Uiso   1.00
C101   C     0.61812   0.21477   0.78575   0.00000  Uiso   1.00
C102   C     0.15703   0.51867   0.86986   0.00000  Uiso   1.00
C103   C     0.08981   0.58398   0.82714   0.00000  Uiso   1.00
C104   C     0.98967   0.53299   0.81243   0.00000  Uiso   1.00
C105   C     0.81935   0.48989   0.77302   0.00000  Uiso   1.00
C106   C     0.21154   0.35070   0.94239   0.00000  Uiso   1.00
C107   C     0.23523   0.44593   0.99620   0.00000  Uiso   1.00
C108   C     0.22755   0.42809   0.06505   0.00000  Uiso   1.00
C109   C     0.25269   0.52662   0.10592   0.00000  Uiso   1.00
C110   C     0.31397   0.34143   0.89992   0.00000  Uiso   1.00
C111   C     0.37248   0.23571   0.88780   0.00000  Uiso   1.00
C112   C     0.46390   0.24626   0.84761   0.00000  Uiso   1.00
C113   C     0.12537   0.40639   0.89692   0.00000  Uiso   1.00
C114   C     0.02532   0.35528   0.88227   0.00000  Uiso   1.00
C115   C     0.95795   0.42051   0.83954   0.00000  Uiso   1.00
H116   H     0.29448   0.64482   0.87150   0.00000  Uiso   1.00
H117   H     0.31656   0.74366   0.98896   0.00000  Uiso   1.00
H118   H     0.46145   0.55131   0.81173   0.00000  Uiso   1.00
H119   H     0.11434   0.67086   0.80620   0.00000  Uiso   1.00
H120   H     0.32710   0.80371   0.13112   0.00000  Uiso   1.00
H121   H     0.63261   0.39812   0.75741   0.00000  Uiso   1.00
H122   H     0.90065   0.65022   0.74575   0.00000  Uiso   1.00
H123   H     0.18689   0.26329   0.96346   0.00000  Uiso   1.00
H124   H     0.20305   0.34119   0.08598   0.00000  Uiso   1.00
H125   H     0.34795   0.14884   0.90875   0.00000  Uiso   1.00
H126   H     0.00084   0.26840   0.90322   0.00000  Uiso   1.00
H127   H     0.23498   0.47705   0.20987   0.00000  Uiso   1.00
H128   H     0.54049   0.07146   0.83615   0.00000  Uiso   1.00
H129   H     0.80853   0.32357   0.82449   0.00000  Uiso   1.00
O130   O     0.29365   0.69850   0.24943   0.00000  Uiso   1.00
O131   O     0.69445   0.16638   0.75912   0.00000  Uiso   1.00
O132   O     0.73414   0.49714   0.74382   0.00000  Uiso   1.00
N133   N     0.30318   0.71615   0.13284   0.00000  Uiso   1.00
N134   N     0.58882   0.33695   0.78345   0.00000  Uiso   1.00
N135   N     0.90452   0.57263   0.77253   0.00000  Uiso   1.00
N136   N     0.25361   0.54038   0.17521   0.00000  Uiso   1.00
N137   N     0.53925   0.16118   0.82582   0.00000  Uiso   1.00
N138   N     0.85495   0.39686   0.81490   0.00000  Uiso   1.00
C139   C     0.23017   0.44259   0.39257   0.00000  Uiso   1.00
C140   C     0.23311   0.44179   0.46914   0.00000  Uiso   1.00
C141   C     0.20795   0.34321   0.50992   0.00000  Uiso   1.00
C142   C     0.21559   0.36090   0.57881   0.00000  Uiso   1.00
C143   C     0.21528   0.34260   0.69359   0.00000  Uiso   1.00
C144   C     0.15437   0.54630   0.37286   0.00000  Uiso   1.00
C145   C     0.06302   0.53559   0.33267   0.00000  Uiso   1.00
C146   C     0.00438   0.64126   0.32050   0.00000  Uiso   1.00
C147   C     0.88188   0.78523   0.28575   0.00000  Uiso   1.00
C148   C     0.34297   0.48133   0.36986   0.00000  Uiso   1.00
C149   C     0.41019   0.41602   0.32714   0.00000  Uiso   1.00
C150   C     0.51033   0.46701   0.31243   0.00000  Uiso   1.00
C151   C     0.68065   0.51011   0.27302   0.00000  Uiso   1.00
C152   C     0.28846   0.64930   0.44239   0.00000  Uiso   1.00
C153   C     0.26477   0.55407   0.49620   0.00000  Uiso   1.00
C154   C     0.27245   0.57191   0.56505   0.00000  Uiso   1.00
C155   C     0.24731   0.47338   0.60592   0.00000  Uiso   1.00
C156   C     0.18603   0.65857   0.39992   0.00000  Uiso   1.00
C157   C     0.12752   0.76429   0.38780   0.00000  Uiso   1.00
C158   C     0.03610   0.75374   0.34761   0.00000  Uiso   1.00
C159   C     0.37463   0.59361   0.39692   0.00000  Uiso   1.00
C160   C     0.47468   0.64472   0.38227   0.00000  Uiso   1.00
C161   C     0.54205   0.57949   0.33954   0.00000  Uiso   1.00
H162   H     0.20552   0.35518   0.37150   0.00000  Uiso   1.00
H163   H     0.18344   0.25634   0.48896   0.00000  Uiso   1.00
H164   H     0.03855   0.44869   0.31173   0.00000  Uiso   1.00
H165   H     0.38566   0.32914   0.30620   0.00000  Uiso   1.00
H166   H     0.17290   0.19629   0.63112   0.00000  Uiso   1.00
H167   H     0.86739   0.60188   0.25741   0.00000  Uiso   1.00
H168   H     0.59935   0.34978   0.24575   0.00000  Uiso   1.00
H169   H     0.31311   0.73671   0.46346   0.00000  Uiso   1.00
H170   H     0.29695   0.65881   0.58598   0.00000  Uiso   1.00
H171   H     0.15205   0.85116   0.40875   0.00000  Uiso   1.00
H172   H     0.49916   0.73160   0.40322   0.00000  Uiso   1.00
H173   H     0.26502   0.52295   0.70987   0.00000  Uiso   1.00
H174   H     0.95951   0.92854   0.33615   0.00000  Uiso   1.00
H175   H     0.69147   0.67643   0.32449   0.00000  Uiso   1.00
O176   O     0.20635   0.30150   0.74943   0.00000  Uiso   1.00
O177   O     0.80555   0.83362   0.25912   0.00000  Uiso   1.00
O178   O     0.76586   0.50286   0.24382   0.00000  Uiso   1.00
N179   N     0.19682   0.28385   0.63284   0.00000  Uiso   1.00
N180   N     0.91118   0.66305   0.28345   0.00000  Uiso   1.00
N181   N     0.59548   0.42737   0.27253   0.00000  Uiso   1.00
N182   N     0.24639   0.45962   0.67521   0.00000  Uiso   1.00
N183   N     0.96075   0.83882   0.32582   0.00000  Uiso   1.00
N184   N     0.64505   0.60314   0.31490   0.00000  Uiso   1.00
