data_job_01343
_audit_creation_date              2018-12-19
_audit_creation_method            'Materials Studio'
_symmetry_space_group_name_H-M    'P1'
_symmetry_Int_Tables_number       1
_symmetry_cell_setting            triclinic
loop_
_symmetry_equiv_pos_as_xyz
  x,y,z
_cell_length_a                    12.6686
_cell_length_b                    17.2318
_cell_length_c                    12.3648
_cell_angle_alpha                 90.0000
_cell_angle_beta                  97.8488
_cell_angle_gamma                 90.0000
loop_
_atom_site_label
_atom_site_type_symbol
_atom_site_fract_x
_atom_site_fract_y
_atom_site_fract_z
_atom_site_U_iso_or_equiv
_atom_site_adp_type
_atom_site_occupancy
C1     C     0.19990   0.17585   0.92642   0.00000  Uiso   1.00
C2     C     0.21793   0.10770   0.00547   0.00000  Uiso   1.00
C3     C     0.15846   0.09138   0.08899   0.00000  Uiso   1.00
C4     C     0.18764   0.02634   0.15236   0.00000  Uiso   1.00
C5     C     0.20265   0.92769   0.27811   0.00000  Uiso   1.00
C6     C     0.30519   0.21993   0.93693   0.00000  Uiso   1.00
C7     C     0.31907   0.29796   0.96282   0.00000  Uiso   1.00
C8     C     0.42170   0.32739   0.96847   0.00000  Uiso   1.00
C9     C     0.57216   0.40298   0.98773   0.00000  Uiso   1.00
C10    C     0.18459   0.14065   0.81220   0.00000  Uiso   1.00
C11    C     0.09708   0.15205   0.73320   0.00000  Uiso   1.00
C12    C     0.09819   0.11475   0.63382   0.00000  Uiso   1.00
C13    C     0.06140   0.06726   0.45943   0.00000  Uiso   1.00
C14    C     0.35749   0.08936   0.89042   0.00000  Uiso   1.00
C15    C     0.30353   0.06073   0.98592   0.00000  Uiso   1.00
C16    C     0.33281   0.99569   0.04916   0.00000  Uiso   1.00
C17    C     0.27339   0.97927   0.13277   0.00000  Uiso   1.00
C18    C     0.39078   0.17295   0.91738   0.00000  Uiso   1.00
C19    C     0.49342   0.20227   0.92299   0.00000  Uiso   1.00
C20    C     0.50745   0.28033   0.94888   0.00000  Uiso   1.00
C21    C     0.27018   0.09367   0.79265   0.00000  Uiso   1.00
C22    C     0.27143   0.05636   0.69337   0.00000  Uiso   1.00
C23    C     0.18394   0.06769   0.61423   0.00000  Uiso   1.00
H24    H     0.13327   0.21243   0.94165   0.00000  Uiso   1.00
H25    H     0.09223   0.12776   0.10411   0.00000  Uiso   1.00
H26    H     0.25281   0.33430   0.97793   0.00000  Uiso   1.00
H27    H     0.03086   0.18841   0.74836   0.00000  Uiso   1.00
H28    H     0.08450   0.01318   0.27563   0.00000  Uiso   1.00
H29    H     0.42309   0.44870   0.00955   0.00000  Uiso   1.00
H30    H     0.95506   0.14106   0.52544   0.00000  Uiso   1.00
H31    H     0.42413   0.05279   0.87520   0.00000  Uiso   1.00
H32    H     0.39905   0.95935   0.03401   0.00000  Uiso   1.00
H33    H     0.55963   0.16590   0.90784   0.00000  Uiso   1.00
H34    H     0.33768   0.02001   0.67827   0.00000  Uiso   1.00
H35    H     0.33353   0.87650   0.21874   0.00000  Uiso   1.00
H36    H     0.67212   0.31202   0.95266   0.00000  Uiso   1.00
H37    H     0.20409   0.00438   0.46855   0.00000  Uiso   1.00
O38    O     0.18729   0.88627   0.35288   0.00000  Uiso   1.00
O39    O     0.63150   0.45766   0.00378   0.00000  Uiso   1.00
O40    O     0.01746   0.05404   0.36864   0.00000  Uiso   1.00
N41    N     0.14654   0.99382   0.24043   0.00000  Uiso   1.00
N42    N     0.46310   0.40101   0.99168   0.00000  Uiso   1.00
N43    N     0.02555   0.11341   0.53907   0.00000  Uiso   1.00
N44    N     0.28054   0.92028   0.20982   0.00000  Uiso   1.00
N45    N     0.59710   0.32746   0.96107   0.00000  Uiso   1.00
N46    N     0.15955   0.03986   0.50846   0.00000  Uiso   1.00
C47    C     0.80010   0.67585   0.57358   0.00000  Uiso   1.00
C48    C     0.78207   0.60770   0.49453   0.00000  Uiso   1.00
C49    C     0.84154   0.59138   0.41101   0.00000  Uiso   1.00
C50    C     0.81236   0.52634   0.34764   0.00000  Uiso   1.00
C51    C     0.79735   0.42769   0.22189   0.00000  Uiso   1.00
C52    C     0.69481   0.71993   0.56307   0.00000  Uiso   1.00
C53    C     0.68093   0.79796   0.53718   0.00000  Uiso   1.00
C54    C     0.57830   0.82739   0.53153   0.00000  Uiso   1.00
C55    C     0.42784   0.90298   0.51227   0.00000  Uiso   1.00
C56    C     0.81541   0.64065   0.68780   0.00000  Uiso   1.00
C57    C     0.90292   0.65205   0.76680   0.00000  Uiso   1.00
C58    C     0.90181   0.61475   0.86618   0.00000  Uiso   1.00
C59    C     0.93860   0.56726   0.04057   0.00000  Uiso   1.00
C60    C     0.64251   0.58936   0.60958   0.00000  Uiso   1.00
C61    C     0.69647   0.56073   0.51408   0.00000  Uiso   1.00
C62    C     0.66719   0.49569   0.45084   0.00000  Uiso   1.00
C63    C     0.72661   0.47927   0.36723   0.00000  Uiso   1.00
C64    C     0.60922   0.67295   0.58262   0.00000  Uiso   1.00
C65    C     0.50658   0.70227   0.57701   0.00000  Uiso   1.00
C66    C     0.49255   0.78033   0.55112   0.00000  Uiso   1.00
C67    C     0.72982   0.59367   0.70735   0.00000  Uiso   1.00
C68    C     0.72857   0.55636   0.80663   0.00000  Uiso   1.00
C69    C     0.81606   0.56769   0.88577   0.00000  Uiso   1.00
H70    H     0.86673   0.71243   0.55835   0.00000  Uiso   1.00
H71    H     0.90777   0.62776   0.39589   0.00000  Uiso   1.00
H72    H     0.74719   0.83430   0.52207   0.00000  Uiso   1.00
H73    H     0.96914   0.68841   0.75164   0.00000  Uiso   1.00
H74    H     0.91550   0.51318   0.22437   0.00000  Uiso   1.00
H75    H     0.57691   0.94870   0.49045   0.00000  Uiso   1.00
H76    H     0.04494   0.64106   0.97456   0.00000  Uiso   1.00
H77    H     0.57587   0.55279   0.62480   0.00000  Uiso   1.00
H78    H     0.60095   0.45935   0.46599   0.00000  Uiso   1.00
H79    H     0.44037   0.66590   0.59216   0.00000  Uiso   1.00
H80    H     0.66232   0.52001   0.82173   0.00000  Uiso   1.00
H81    H     0.66647   0.37650   0.28126   0.00000  Uiso   1.00
H82    H     0.32788   0.81202   0.54734   0.00000  Uiso   1.00
H83    H     0.79591   0.50438   0.03145   0.00000  Uiso   1.00
O84    O     0.81271   0.38627   0.14712   0.00000  Uiso   1.00
O85    O     0.36850   0.95766   0.49622   0.00000  Uiso   1.00
O86    O     0.98254   0.55404   0.13136   0.00000  Uiso   1.00
N87    N     0.85346   0.49382   0.25957   0.00000  Uiso   1.00
N88    N     0.53690   0.90101   0.50832   0.00000  Uiso   1.00
N89    N     0.97445   0.61341   0.96093   0.00000  Uiso   1.00
N90    N     0.71946   0.42028   0.29018   0.00000  Uiso   1.00
N91    N     0.40290   0.82746   0.53893   0.00000  Uiso   1.00
N92    N     0.84045   0.53986   0.99154   0.00000  Uiso   1.00
C93    C     0.80010   0.82415   0.07358   0.00000  Uiso   1.00
C94    C     0.78207   0.89230   0.99453   0.00000  Uiso   1.00
C95    C     0.84154   0.90862   0.91101   0.00000  Uiso   1.00
C96    C     0.81236   0.97366   0.84764   0.00000  Uiso   1.00
C97    C     0.79735   0.07231   0.72189   0.00000  Uiso   1.00
C98    C     0.69481   0.78007   0.06307   0.00000  Uiso   1.00
C99    C     0.68093   0.70204   0.03718   0.00000  Uiso   1.00
C100   C     0.57830   0.67261   0.03153   0.00000  Uiso   1.00
C101   C     0.42784   0.59702   0.01227   0.00000  Uiso   1.00
C102   C     0.81541   0.85935   0.18780   0.00000  Uiso   1.00
C103   C     0.90292   0.84795   0.26680   0.00000  Uiso   1.00
C104   C     0.90181   0.88525   0.36618   0.00000  Uiso   1.00
C105   C     0.93860   0.93274   0.54057   0.00000  Uiso   1.00
C106   C     0.64251   0.91064   0.10958   0.00000  Uiso   1.00
C107   C     0.69647   0.93927   0.01408   0.00000  Uiso   1.00
C108   C     0.66719   0.00431   0.95084   0.00000  Uiso   1.00
C109   C     0.72661   0.02073   0.86723   0.00000  Uiso   1.00
C110   C     0.60922   0.82705   0.08262   0.00000  Uiso   1.00
C111   C     0.50658   0.79773   0.07701   0.00000  Uiso   1.00
C112   C     0.49255   0.71967   0.05112   0.00000  Uiso   1.00
C113   C     0.72982   0.90633   0.20735   0.00000  Uiso   1.00
C114   C     0.72857   0.94364   0.30663   0.00000  Uiso   1.00
C115   C     0.81606   0.93231   0.38577   0.00000  Uiso   1.00
H116   H     0.86673   0.78757   0.05835   0.00000  Uiso   1.00
H117   H     0.90777   0.87224   0.89589   0.00000  Uiso   1.00
H118   H     0.74719   0.66570   0.02207   0.00000  Uiso   1.00
H119   H     0.96914   0.81159   0.25164   0.00000  Uiso   1.00
H120   H     0.91550   0.98682   0.72437   0.00000  Uiso   1.00
H121   H     0.57691   0.55130   0.99045   0.00000  Uiso   1.00
H122   H     0.04494   0.85894   0.47456   0.00000  Uiso   1.00
H123   H     0.57587   0.94721   0.12480   0.00000  Uiso   1.00
H124   H     0.60095   0.04065   0.96599   0.00000  Uiso   1.00
H125   H     0.44037   0.83410   0.09216   0.00000  Uiso   1.00
H126   H     0.66232   0.97999   0.32173   0.00000  Uiso   1.00
H127   H     0.66647   0.12350   0.78126   0.00000  Uiso   1.00
H128   H     0.32788   0.68798   0.04734   0.00000  Uiso   1.00
H129   H     0.79591   0.99562   0.53145   0.00000  Uiso   1.00
O130   O     0.81271   0.11373   0.64712   0.00000  Uiso   1.00
O131   O     0.36850   0.54234   0.99622   0.00000  Uiso   1.00
O132   O     0.98254   0.94596   0.63136   0.00000  Uiso   1.00
N133   N     0.85346   0.00618   0.75957   0.00000  Uiso   1.00
N134   N     0.53690   0.59899   0.00832   0.00000  Uiso   1.00
N135   N     0.97445   0.88659   0.46093   0.00000  Uiso   1.00
N136   N     0.71946   0.07972   0.79018   0.00000  Uiso   1.00
N137   N     0.40290   0.67254   0.03893   0.00000  Uiso   1.00
N138   N     0.84045   0.96014   0.49154   0.00000  Uiso   1.00
C139   C     0.19990   0.32415   0.42642   0.00000  Uiso   1.00
C140   C     0.21793   0.39230   0.50547   0.00000  Uiso   1.00
C141   C     0.15846   0.40862   0.58899   0.00000  Uiso   1.00
C142   C     0.18764   0.47366   0.65236   0.00000  Uiso   1.00
C143   C     0.20265   0.57231   0.77811   0.00000  Uiso   1.00
C144   C     0.30519   0.28007   0.43693   0.00000  Uiso   1.00
C145   C     0.31907   0.20204   0.46282   0.00000  Uiso   1.00
C146   C     0.42170   0.17261   0.46847   0.00000  Uiso   1.00
C147   C     0.57216   0.09702   0.48773   0.00000  Uiso   1.00
C148   C     0.18459   0.35935   0.31220   0.00000  Uiso   1.00
C149   C     0.09708   0.34795   0.23320   0.00000  Uiso   1.00
C150   C     0.09819   0.38525   0.13382   0.00000  Uiso   1.00
C151   C     0.06140   0.43274   0.95943   0.00000  Uiso   1.00
C152   C     0.35749   0.41064   0.39042   0.00000  Uiso   1.00
C153   C     0.30353   0.43927   0.48592   0.00000  Uiso   1.00
C154   C     0.33281   0.50431   0.54916   0.00000  Uiso   1.00
C155   C     0.27339   0.52073   0.63277   0.00000  Uiso   1.00
C156   C     0.39078   0.32705   0.41738   0.00000  Uiso   1.00
C157   C     0.49342   0.29773   0.42299   0.00000  Uiso   1.00
C158   C     0.50745   0.21967   0.44888   0.00000  Uiso   1.00
C159   C     0.27018   0.40633   0.29265   0.00000  Uiso   1.00
C160   C     0.27143   0.44364   0.19337   0.00000  Uiso   1.00
C161   C     0.18394   0.43231   0.11423   0.00000  Uiso   1.00
H162   H     0.13327   0.28757   0.44165   0.00000  Uiso   1.00
H163   H     0.09223   0.37224   0.60411   0.00000  Uiso   1.00
H164   H     0.25281   0.16570   0.47793   0.00000  Uiso   1.00
H165   H     0.03086   0.31159   0.24836   0.00000  Uiso   1.00
H166   H     0.08450   0.48682   0.77563   0.00000  Uiso   1.00
H167   H     0.42309   0.05130   0.50955   0.00000  Uiso   1.00
H168   H     0.95506   0.35894   0.02544   0.00000  Uiso   1.00
H169   H     0.42413   0.44721   0.37520   0.00000  Uiso   1.00
H170   H     0.39905   0.54065   0.53401   0.00000  Uiso   1.00
H171   H     0.55963   0.33410   0.40784   0.00000  Uiso   1.00
H172   H     0.33768   0.47999   0.17827   0.00000  Uiso   1.00
H173   H     0.33353   0.62350   0.71874   0.00000  Uiso   1.00
H174   H     0.67212   0.18798   0.45266   0.00000  Uiso   1.00
H175   H     0.20409   0.49562   0.96855   0.00000  Uiso   1.00
O176   O     0.18729   0.61373   0.85288   0.00000  Uiso   1.00
O177   O     0.63150   0.04234   0.50378   0.00000  Uiso   1.00
O178   O     0.01746   0.44596   0.86864   0.00000  Uiso   1.00
N179   N     0.14654   0.50618   0.74043   0.00000  Uiso   1.00
N180   N     0.46310   0.09899   0.49168   0.00000  Uiso   1.00
N181   N     0.02555   0.38659   0.03907   0.00000  Uiso   1.00
N182   N     0.28054   0.57972   0.70982   0.00000  Uiso   1.00
N183   N     0.59710   0.17254   0.46107   0.00000  Uiso   1.00
N184   N     0.15955   0.46014   0.00846   0.00000  Uiso   1.00
