data_job_00827
_audit_creation_date              2018-12-19
_audit_creation_method            'Materials Studio'
_symmetry_space_group_name_H-M    'P1'
_symmetry_Int_Tables_number       1
_symmetry_cell_setting            triclinic
loop_
_symmetry_equiv_pos_as_xyz
  x,y,z
_cell_length_a                    19.2284
_cell_length_b                    12.3604
_cell_length_c                    31.6678
_cell_angle_alpha                 90.0000
_cell_angle_beta                  44.9199
_cell_angle_gamma                 90.0000
loop_
_atom_site_label
_atom_site_type_symbol
_atom_site_fract_x
_atom_site_fract_y
_atom_site_fract_z
_atom_site_U_iso_or_equiv
_atom_site_adp_type
_atom_site_occupancy
C1     C     0.49259   0.96018   0.58411   0.00000  Uiso   1.00
C2     C     0.53443   0.07194   0.57583   0.00000  Uiso   1.00
C3     C     0.58361   0.13830   0.52631   0.00000  Uiso   1.00
C4     C     0.61622   0.23755   0.52732   0.00000  Uiso   1.00
C5     C     0.68367   0.40624   0.50703   0.00000  Uiso   1.00
C6     C     0.53955   0.88321   0.59571   0.00000  Uiso   1.00
C7     C     0.59303   0.79088   0.56290   0.00000  Uiso   1.00
C8     C     0.62995   0.73126   0.58065   0.00000  Uiso   1.00
C9     C     0.70529   0.60690   0.59125   0.00000  Uiso   1.00
C10    C     0.38355   0.96532   0.64235   0.00000  Uiso   1.00
C11    C     0.30586   0.94200   0.64877   0.00000  Uiso   1.00
C12    C     0.21143   0.95149   0.70578   0.00000  Uiso   1.00
C13    C     0.04456   0.95462   0.78880   0.00000  Uiso   1.00
C14    C     0.46304   0.01845   0.67395   0.00000  Uiso   1.00
C15    C     0.51838   0.10358   0.62463   0.00000  Uiso   1.00
C16    C     0.55092   0.20276   0.62572   0.00000  Uiso   1.00
C17    C     0.60014   0.26926   0.57621   0.00000  Uiso   1.00
C18    C     0.52351   0.91486   0.64450   0.00000  Uiso   1.00
C19    C     0.56034   0.85535   0.66231   0.00000  Uiso   1.00
C20    C     0.61387   0.76296   0.62954   0.00000  Uiso   1.00
C21    C     0.36750   0.99697   0.69115   0.00000  Uiso   1.00
C22    C     0.27317   0.00648   0.74817   0.00000  Uiso   1.00
C23    C     0.19535   0.98319   0.75467   0.00000  Uiso   1.00
H24    H     0.50508   0.93554   0.54611   0.00000  Uiso   1.00
H25    H     0.59602   0.11377   0.48855   0.00000  Uiso   1.00
H26    H     0.60543   0.76641   0.52515   0.00000  Uiso   1.00
H27    H     0.31831   0.91752   0.61099   0.00000  Uiso   1.00
H28    H     0.68980   0.32531   0.44625   0.00000  Uiso   1.00
H29    H     0.70961   0.59286   0.52342   0.00000  Uiso   1.00
H30    H     0.10415   0.91150   0.70444   0.00000  Uiso   1.00
H31    H     0.45055   0.04309   0.71195   0.00000  Uiso   1.00
H32    H     0.53850   0.22723   0.66349   0.00000  Uiso   1.00
H33    H     0.54791   0.87986   0.70008   0.00000  Uiso   1.00
H34    H     0.26078   0.03097   0.78592   0.00000  Uiso   1.00
H35    H     0.64311   0.41740   0.58823   0.00000  Uiso   1.00
H36    H     0.66292   0.68494   0.66540   0.00000  Uiso   1.00
H37    H     0.05746   0.00358   0.84642   0.00000  Uiso   1.00
O38    O     0.72532   0.49053   0.48236   0.00000  Uiso   1.00
O39    O     0.75129   0.52957   0.58361   0.00000  Uiso   1.00
O40    O     0.95695   0.94762   0.82110   0.00000  Uiso   1.00
N41    N     0.66672   0.32172   0.48632   0.00000  Uiso   1.00
N42    N     0.68526   0.63693   0.55846   0.00000  Uiso   1.00
N43    N     0.11920   0.93480   0.72771   0.00000  Uiso   1.00
N44    N     0.64160   0.37128   0.56272   0.00000  Uiso   1.00
N45    N     0.66014   0.68648   0.63486   0.00000  Uiso   1.00
N46    N     0.09408   0.98436   0.80411   0.00000  Uiso   1.00
C47    C     0.99259   0.46018   0.58411   0.00000  Uiso   1.00
C48    C     0.03443   0.57194   0.57583   0.00000  Uiso   1.00
C49    C     0.08361   0.63830   0.52631   0.00000  Uiso   1.00
C50    C     0.11622   0.73755   0.52732   0.00000  Uiso   1.00
C51    C     0.18367   0.90624   0.50703   0.00000  Uiso   1.00
C52    C     0.03955   0.38321   0.59571   0.00000  Uiso   1.00
C53    C     0.09303   0.29088   0.56290   0.00000  Uiso   1.00
C54    C     0.12995   0.23126   0.58065   0.00000  Uiso   1.00
C55    C     0.20529   0.10690   0.59125   0.00000  Uiso   1.00
C56    C     0.88355   0.46532   0.64235   0.00000  Uiso   1.00
C57    C     0.80586   0.44200   0.64877   0.00000  Uiso   1.00
C58    C     0.71143   0.45149   0.70578   0.00000  Uiso   1.00
C59    C     0.54456   0.45462   0.78880   0.00000  Uiso   1.00
C60    C     0.96304   0.51845   0.67395   0.00000  Uiso   1.00
C61    C     0.01838   0.60358   0.62463   0.00000  Uiso   1.00
C62    C     0.05092   0.70276   0.62572   0.00000  Uiso   1.00
C63    C     0.10014   0.76926   0.57621   0.00000  Uiso   1.00
C64    C     0.02351   0.41486   0.64450   0.00000  Uiso   1.00
C65    C     0.06034   0.35535   0.66231   0.00000  Uiso   1.00
C66    C     0.11387   0.26296   0.62954   0.00000  Uiso   1.00
C67    C     0.86750   0.49697   0.69115   0.00000  Uiso   1.00
C68    C     0.77317   0.50648   0.74817   0.00000  Uiso   1.00
C69    C     0.69535   0.48319   0.75467   0.00000  Uiso   1.00
H70    H     0.00508   0.43554   0.54611   0.00000  Uiso   1.00
H71    H     0.09602   0.61377   0.48855   0.00000  Uiso   1.00
H72    H     0.10543   0.26641   0.52515   0.00000  Uiso   1.00
H73    H     0.81831   0.41752   0.61099   0.00000  Uiso   1.00
H74    H     0.18980   0.82531   0.44625   0.00000  Uiso   1.00
H75    H     0.20961   0.09286   0.52342   0.00000  Uiso   1.00
H76    H     0.60415   0.41150   0.70444   0.00000  Uiso   1.00
H77    H     0.95055   0.54309   0.71195   0.00000  Uiso   1.00
H78    H     0.03850   0.72723   0.66349   0.00000  Uiso   1.00
H79    H     0.04791   0.37986   0.70008   0.00000  Uiso   1.00
H80    H     0.76078   0.53097   0.78592   0.00000  Uiso   1.00
H81    H     0.14311   0.91740   0.58823   0.00000  Uiso   1.00
H82    H     0.16292   0.18494   0.66540   0.00000  Uiso   1.00
H83    H     0.55746   0.50358   0.84642   0.00000  Uiso   1.00
O84    O     0.22532   0.99053   0.48236   0.00000  Uiso   1.00
O85    O     0.25129   0.02957   0.58361   0.00000  Uiso   1.00
O86    O     0.45695   0.44762   0.82110   0.00000  Uiso   1.00
N87    N     0.16672   0.82172   0.48632   0.00000  Uiso   1.00
N88    N     0.18526   0.13693   0.55846   0.00000  Uiso   1.00
N89    N     0.61920   0.43480   0.72771   0.00000  Uiso   1.00
N90    N     0.14160   0.87128   0.56272   0.00000  Uiso   1.00
N91    N     0.16014   0.18648   0.63486   0.00000  Uiso   1.00
N92    N     0.59408   0.48436   0.80411   0.00000  Uiso   1.00
C93    C     0.50741   0.96018   0.91589   0.00000  Uiso   1.00
C94    C     0.46557   0.07194   0.92417   0.00000  Uiso   1.00
C95    C     0.41639   0.13830   0.97369   0.00000  Uiso   1.00
C96    C     0.38378   0.23755   0.97268   0.00000  Uiso   1.00
C97    C     0.31633   0.40624   0.99297   0.00000  Uiso   1.00
C98    C     0.46045   0.88321   0.90429   0.00000  Uiso   1.00
C99    C     0.40697   0.79088   0.93710   0.00000  Uiso   1.00
C100   C     0.37005   0.73126   0.91935   0.00000  Uiso   1.00
C101   C     0.29471   0.60690   0.90875   0.00000  Uiso   1.00
C102   C     0.61645   0.96532   0.85765   0.00000  Uiso   1.00
C103   C     0.69414   0.94200   0.85123   0.00000  Uiso   1.00
C104   C     0.78857   0.95149   0.79422   0.00000  Uiso   1.00
C105   C     0.95544   0.95462   0.71120   0.00000  Uiso   1.00
C106   C     0.53696   0.01845   0.82605   0.00000  Uiso   1.00
C107   C     0.48162   0.10358   0.87537   0.00000  Uiso   1.00
C108   C     0.44908   0.20276   0.87428   0.00000  Uiso   1.00
C109   C     0.39986   0.26926   0.92379   0.00000  Uiso   1.00
C110   C     0.47649   0.91486   0.85550   0.00000  Uiso   1.00
C111   C     0.43966   0.85535   0.83769   0.00000  Uiso   1.00
C112   C     0.38613   0.76296   0.87046   0.00000  Uiso   1.00
C113   C     0.63250   0.99697   0.80885   0.00000  Uiso   1.00
C114   C     0.72683   0.00648   0.75183   0.00000  Uiso   1.00
C115   C     0.80465   0.98319   0.74533   0.00000  Uiso   1.00
H116   H     0.49492   0.93554   0.95389   0.00000  Uiso   1.00
H117   H     0.40398   0.11377   0.01145   0.00000  Uiso   1.00
H118   H     0.39457   0.76641   0.97485   0.00000  Uiso   1.00
H119   H     0.68169   0.91752   0.88901   0.00000  Uiso   1.00
H120   H     0.31020   0.32531   0.05375   0.00000  Uiso   1.00
H121   H     0.29039   0.59286   0.97658   0.00000  Uiso   1.00
H122   H     0.89585   0.91150   0.79556   0.00000  Uiso   1.00
H123   H     0.54945   0.04309   0.78805   0.00000  Uiso   1.00
H124   H     0.46150   0.22723   0.83651   0.00000  Uiso   1.00
H125   H     0.45209   0.87986   0.79992   0.00000  Uiso   1.00
H126   H     0.73922   0.03097   0.71408   0.00000  Uiso   1.00
H127   H     0.35689   0.41740   0.91177   0.00000  Uiso   1.00
H128   H     0.33708   0.68494   0.83460   0.00000  Uiso   1.00
H129   H     0.94254   0.00358   0.65358   0.00000  Uiso   1.00
O130   O     0.27468   0.49053   0.01764   0.00000  Uiso   1.00
O131   O     0.24871   0.52957   0.91639   0.00000  Uiso   1.00
O132   O     0.04305   0.94762   0.67890   0.00000  Uiso   1.00
N133   N     0.33328   0.32172   0.01368   0.00000  Uiso   1.00
N134   N     0.31474   0.63693   0.94154   0.00000  Uiso   1.00
N135   N     0.88080   0.93480   0.77229   0.00000  Uiso   1.00
N136   N     0.35840   0.37128   0.93728   0.00000  Uiso   1.00
N137   N     0.33986   0.68648   0.86514   0.00000  Uiso   1.00
N138   N     0.90592   0.98436   0.69589   0.00000  Uiso   1.00
C139   C     0.00741   0.46018   0.91589   0.00000  Uiso   1.00
C140   C     0.96557   0.57194   0.92417   0.00000  Uiso   1.00
C141   C     0.91639   0.63830   0.97369   0.00000  Uiso   1.00
C142   C     0.88378   0.73755   0.97268   0.00000  Uiso   1.00
C143   C     0.81633   0.90624   0.99297   0.00000  Uiso   1.00
C144   C     0.96045   0.38321   0.90429   0.00000  Uiso   1.00
C145   C     0.90697   0.29088   0.93710   0.00000  Uiso   1.00
C146   C     0.87005   0.23126   0.91935   0.00000  Uiso   1.00
C147   C     0.79471   0.10690   0.90875   0.00000  Uiso   1.00
C148   C     0.11645   0.46532   0.85765   0.00000  Uiso   1.00
C149   C     0.19414   0.44200   0.85123   0.00000  Uiso   1.00
C150   C     0.28857   0.45149   0.79422   0.00000  Uiso   1.00
C151   C     0.45544   0.45462   0.71120   0.00000  Uiso   1.00
C152   C     0.03696   0.51845   0.82605   0.00000  Uiso   1.00
C153   C     0.98162   0.60358   0.87537   0.00000  Uiso   1.00
C154   C     0.94908   0.70276   0.87428   0.00000  Uiso   1.00
C155   C     0.89986   0.76926   0.92379   0.00000  Uiso   1.00
C156   C     0.97649   0.41486   0.85550   0.00000  Uiso   1.00
C157   C     0.93966   0.35535   0.83769   0.00000  Uiso   1.00
C158   C     0.88613   0.26296   0.87046   0.00000  Uiso   1.00
C159   C     0.13250   0.49697   0.80885   0.00000  Uiso   1.00
C160   C     0.22683   0.50648   0.75183   0.00000  Uiso   1.00
C161   C     0.30465   0.48319   0.74533   0.00000  Uiso   1.00
H162   H     0.99492   0.43554   0.95389   0.00000  Uiso   1.00
H163   H     0.90398   0.61377   0.01145   0.00000  Uiso   1.00
H164   H     0.89457   0.26641   0.97485   0.00000  Uiso   1.00
H165   H     0.18169   0.41752   0.88901   0.00000  Uiso   1.00
H166   H     0.81020   0.82531   0.05375   0.00000  Uiso   1.00
H167   H     0.79039   0.09286   0.97658   0.00000  Uiso   1.00
H168   H     0.39585   0.41150   0.79556   0.00000  Uiso   1.00
H169   H     0.04945   0.54309   0.78805   0.00000  Uiso   1.00
H170   H     0.96150   0.72723   0.83651   0.00000  Uiso   1.00
H171   H     0.95209   0.37986   0.79992   0.00000  Uiso   1.00
H172   H     0.23922   0.53097   0.71408   0.00000  Uiso   1.00
H173   H     0.85689   0.91740   0.91177   0.00000  Uiso   1.00
H174   H     0.83708   0.18494   0.83460   0.00000  Uiso   1.00
H175   H     0.44254   0.50358   0.65358   0.00000  Uiso   1.00
O176   O     0.77468   0.99053   0.01764   0.00000  Uiso   1.00
O177   O     0.74871   0.02957   0.91639   0.00000  Uiso   1.00
O178   O     0.54305   0.44762   0.67890   0.00000  Uiso   1.00
N179   N     0.83328   0.82172   0.01368   0.00000  Uiso   1.00
N180   N     0.81474   0.13693   0.94154   0.00000  Uiso   1.00
N181   N     0.38080   0.43480   0.77229   0.00000  Uiso   1.00
N182   N     0.85840   0.87128   0.93728   0.00000  Uiso   1.00
N183   N     0.83986   0.18648   0.86514   0.00000  Uiso   1.00
N184   N     0.40592   0.48436   0.69589   0.00000  Uiso   1.00
C185   C     0.50741   0.03982   0.41589   0.00000  Uiso   1.00
C186   C     0.46557   0.92806   0.42417   0.00000  Uiso   1.00
C187   C     0.41639   0.86170   0.47369   0.00000  Uiso   1.00
C188   C     0.38378   0.76245   0.47268   0.00000  Uiso   1.00
C189   C     0.31633   0.59376   0.49297   0.00000  Uiso   1.00
C190   C     0.46045   0.11679   0.40429   0.00000  Uiso   1.00
C191   C     0.40697   0.20912   0.43710   0.00000  Uiso   1.00
C192   C     0.37005   0.26874   0.41935   0.00000  Uiso   1.00
C193   C     0.29471   0.39310   0.40875   0.00000  Uiso   1.00
C194   C     0.61645   0.03468   0.35765   0.00000  Uiso   1.00
C195   C     0.69414   0.05800   0.35123   0.00000  Uiso   1.00
C196   C     0.78857   0.04851   0.29422   0.00000  Uiso   1.00
C197   C     0.95544   0.04538   0.21120   0.00000  Uiso   1.00
C198   C     0.53696   0.98155   0.32605   0.00000  Uiso   1.00
C199   C     0.48162   0.89642   0.37537   0.00000  Uiso   1.00
C200   C     0.44908   0.79724   0.37428   0.00000  Uiso   1.00
C201   C     0.39986   0.73074   0.42379   0.00000  Uiso   1.00
C202   C     0.47649   0.08514   0.35550   0.00000  Uiso   1.00
C203   C     0.43966   0.14465   0.33769   0.00000  Uiso   1.00
C204   C     0.38613   0.23704   0.37046   0.00000  Uiso   1.00
C205   C     0.63250   0.00303   0.30885   0.00000  Uiso   1.00
C206   C     0.72683   0.99352   0.25183   0.00000  Uiso   1.00
C207   C     0.80465   0.01681   0.24533   0.00000  Uiso   1.00
H208   H     0.49492   0.06446   0.45389   0.00000  Uiso   1.00
H209   H     0.40398   0.88623   0.51145   0.00000  Uiso   1.00
H210   H     0.39457   0.23359   0.47485   0.00000  Uiso   1.00
H211   H     0.68169   0.08248   0.38901   0.00000  Uiso   1.00
H212   H     0.31020   0.67469   0.55375   0.00000  Uiso   1.00
H213   H     0.29039   0.40714   0.47658   0.00000  Uiso   1.00
H214   H     0.89585   0.08850   0.29556   0.00000  Uiso   1.00
H215   H     0.54945   0.95691   0.28805   0.00000  Uiso   1.00
H216   H     0.46150   0.77277   0.33651   0.00000  Uiso   1.00
H217   H     0.45209   0.12014   0.29992   0.00000  Uiso   1.00
H218   H     0.73922   0.96903   0.21408   0.00000  Uiso   1.00
H219   H     0.35689   0.58260   0.41177   0.00000  Uiso   1.00
H220   H     0.33708   0.31506   0.33460   0.00000  Uiso   1.00
H221   H     0.94254   0.99642   0.15358   0.00000  Uiso   1.00
O222   O     0.27468   0.50947   0.51764   0.00000  Uiso   1.00
O223   O     0.24871   0.47043   0.41639   0.00000  Uiso   1.00
O224   O     0.04305   0.05238   0.17890   0.00000  Uiso   1.00
N225   N     0.33328   0.67828   0.51368   0.00000  Uiso   1.00
N226   N     0.31474   0.36307   0.44154   0.00000  Uiso   1.00
N227   N     0.88080   0.06520   0.27229   0.00000  Uiso   1.00
N228   N     0.35840   0.62872   0.43728   0.00000  Uiso   1.00
N229   N     0.33986   0.31352   0.36514   0.00000  Uiso   1.00
N230   N     0.90592   0.01564   0.19589   0.00000  Uiso   1.00
C231   C     0.00741   0.53982   0.41589   0.00000  Uiso   1.00
C232   C     0.96557   0.42806   0.42417   0.00000  Uiso   1.00
C233   C     0.91639   0.36170   0.47369   0.00000  Uiso   1.00
C234   C     0.88378   0.26245   0.47268   0.00000  Uiso   1.00
C235   C     0.81633   0.09376   0.49297   0.00000  Uiso   1.00
C236   C     0.96045   0.61679   0.40429   0.00000  Uiso   1.00
C237   C     0.90697   0.70912   0.43710   0.00000  Uiso   1.00
C238   C     0.87005   0.76874   0.41935   0.00000  Uiso   1.00
C239   C     0.79471   0.89310   0.40875   0.00000  Uiso   1.00
C240   C     0.11645   0.53468   0.35765   0.00000  Uiso   1.00
C241   C     0.19414   0.55800   0.35123   0.00000  Uiso   1.00
C242   C     0.28857   0.54851   0.29422   0.00000  Uiso   1.00
C243   C     0.45544   0.54538   0.21120   0.00000  Uiso   1.00
C244   C     0.03696   0.48155   0.32605   0.00000  Uiso   1.00
C245   C     0.98162   0.39642   0.37537   0.00000  Uiso   1.00
C246   C     0.94908   0.29724   0.37428   0.00000  Uiso   1.00
C247   C     0.89986   0.23074   0.42379   0.00000  Uiso   1.00
C248   C     0.97649   0.58514   0.35550   0.00000  Uiso   1.00
C249   C     0.93966   0.64465   0.33769   0.00000  Uiso   1.00
C250   C     0.88613   0.73704   0.37046   0.00000  Uiso   1.00
C251   C     0.13250   0.50303   0.30885   0.00000  Uiso   1.00
C252   C     0.22683   0.49352   0.25183   0.00000  Uiso   1.00
C253   C     0.30465   0.51681   0.24533   0.00000  Uiso   1.00
H254   H     0.99492   0.56446   0.45389   0.00000  Uiso   1.00
H255   H     0.90398   0.38623   0.51145   0.00000  Uiso   1.00
H256   H     0.89457   0.73359   0.47485   0.00000  Uiso   1.00
H257   H     0.18169   0.58248   0.38901   0.00000  Uiso   1.00
H258   H     0.81020   0.17469   0.55375   0.00000  Uiso   1.00
H259   H     0.79039   0.90714   0.47658   0.00000  Uiso   1.00
H260   H     0.39585   0.58850   0.29556   0.00000  Uiso   1.00
H261   H     0.04945   0.45691   0.28805   0.00000  Uiso   1.00
H262   H     0.96150   0.27277   0.33651   0.00000  Uiso   1.00
H263   H     0.95209   0.62014   0.29992   0.00000  Uiso   1.00
H264   H     0.23922   0.46903   0.21408   0.00000  Uiso   1.00
H265   H     0.85689   0.08260   0.41177   0.00000  Uiso   1.00
H266   H     0.83708   0.81506   0.33460   0.00000  Uiso   1.00
H267   H     0.44254   0.49642   0.15358   0.00000  Uiso   1.00
O268   O     0.77468   0.00947   0.51764   0.00000  Uiso   1.00
O269   O     0.74871   0.97043   0.41639   0.00000  Uiso   1.00
O270   O     0.54305   0.55238   0.17890   0.00000  Uiso   1.00
N271   N     0.83328   0.17828   0.51368   0.00000  Uiso   1.00
N272   N     0.81474   0.86307   0.44154   0.00000  Uiso   1.00
N273   N     0.38080   0.56520   0.27229   0.00000  Uiso   1.00
N274   N     0.85840   0.12872   0.43728   0.00000  Uiso   1.00
N275   N     0.83986   0.81352   0.36514   0.00000  Uiso   1.00
N276   N     0.40592   0.51564   0.19589   0.00000  Uiso   1.00
C277   C     0.49259   0.03982   0.08411   0.00000  Uiso   1.00
C278   C     0.53443   0.92806   0.07583   0.00000  Uiso   1.00
C279   C     0.58361   0.86170   0.02631   0.00000  Uiso   1.00
C280   C     0.61622   0.76245   0.02732   0.00000  Uiso   1.00
C281   C     0.68367   0.59376   0.00703   0.00000  Uiso   1.00
C282   C     0.53955   0.11679   0.09571   0.00000  Uiso   1.00
C283   C     0.59303   0.20912   0.06290   0.00000  Uiso   1.00
C284   C     0.62995   0.26874   0.08065   0.00000  Uiso   1.00
C285   C     0.70529   0.39310   0.09125   0.00000  Uiso   1.00
C286   C     0.38355   0.03468   0.14235   0.00000  Uiso   1.00
C287   C     0.30586   0.05800   0.14877   0.00000  Uiso   1.00
C288   C     0.21143   0.04851   0.20578   0.00000  Uiso   1.00
C289   C     0.04456   0.04538   0.28880   0.00000  Uiso   1.00
C290   C     0.46304   0.98155   0.17395   0.00000  Uiso   1.00
C291   C     0.51838   0.89642   0.12463   0.00000  Uiso   1.00
C292   C     0.55092   0.79724   0.12572   0.00000  Uiso   1.00
C293   C     0.60014   0.73074   0.07621   0.00000  Uiso   1.00
C294   C     0.52351   0.08514   0.14450   0.00000  Uiso   1.00
C295   C     0.56034   0.14465   0.16231   0.00000  Uiso   1.00
C296   C     0.61387   0.23704   0.12954   0.00000  Uiso   1.00
C297   C     0.36750   0.00303   0.19115   0.00000  Uiso   1.00
C298   C     0.27317   0.99352   0.24817   0.00000  Uiso   1.00
C299   C     0.19535   0.01681   0.25467   0.00000  Uiso   1.00
H300   H     0.50508   0.06446   0.04611   0.00000  Uiso   1.00
H301   H     0.59602   0.88623   0.98855   0.00000  Uiso   1.00
H302   H     0.60543   0.23359   0.02515   0.00000  Uiso   1.00
H303   H     0.31831   0.08248   0.11099   0.00000  Uiso   1.00
H304   H     0.68980   0.67469   0.94625   0.00000  Uiso   1.00
H305   H     0.70961   0.40714   0.02342   0.00000  Uiso   1.00
H306   H     0.10415   0.08850   0.20444   0.00000  Uiso   1.00
H307   H     0.45055   0.95691   0.21195   0.00000  Uiso   1.00
H308   H     0.53850   0.77277   0.16349   0.00000  Uiso   1.00
H309   H     0.54791   0.12014   0.20008   0.00000  Uiso   1.00
H310   H     0.26078   0.96903   0.28592   0.00000  Uiso   1.00
H311   H     0.64311   0.58260   0.08823   0.00000  Uiso   1.00
H312   H     0.66292   0.31506   0.16540   0.00000  Uiso   1.00
H313   H     0.05746   0.99642   0.34642   0.00000  Uiso   1.00
O314   O     0.72532   0.50947   0.98236   0.00000  Uiso   1.00
O315   O     0.75129   0.47043   0.08361   0.00000  Uiso   1.00
O316   O     0.95695   0.05238   0.32110   0.00000  Uiso   1.00
N317   N     0.66672   0.67828   0.98632   0.00000  Uiso   1.00
N318   N     0.68526   0.36307   0.05846   0.00000  Uiso   1.00
N319   N     0.11920   0.06520   0.22771   0.00000  Uiso   1.00
N320   N     0.64160   0.62872   0.06272   0.00000  Uiso   1.00
N321   N     0.66014   0.31352   0.13486   0.00000  Uiso   1.00
N322   N     0.09408   0.01564   0.30411   0.00000  Uiso   1.00
C323   C     0.99259   0.53982   0.08411   0.00000  Uiso   1.00
C324   C     0.03443   0.42806   0.07583   0.00000  Uiso   1.00
C325   C     0.08361   0.36170   0.02631   0.00000  Uiso   1.00
C326   C     0.11622   0.26245   0.02732   0.00000  Uiso   1.00
C327   C     0.18367   0.09376   0.00703   0.00000  Uiso   1.00
C328   C     0.03955   0.61679   0.09571   0.00000  Uiso   1.00
C329   C     0.09303   0.70912   0.06290   0.00000  Uiso   1.00
C330   C     0.12995   0.76874   0.08065   0.00000  Uiso   1.00
C331   C     0.20529   0.89310   0.09125   0.00000  Uiso   1.00
C332   C     0.88355   0.53468   0.14235   0.00000  Uiso   1.00
C333   C     0.80586   0.55800   0.14877   0.00000  Uiso   1.00
C334   C     0.71143   0.54851   0.20578   0.00000  Uiso   1.00
C335   C     0.54456   0.54538   0.28880   0.00000  Uiso   1.00
C336   C     0.96304   0.48155   0.17395   0.00000  Uiso   1.00
C337   C     0.01838   0.39642   0.12463   0.00000  Uiso   1.00
C338   C     0.05092   0.29724   0.12572   0.00000  Uiso   1.00
C339   C     0.10014   0.23074   0.07621   0.00000  Uiso   1.00
C340   C     0.02351   0.58514   0.14450   0.00000  Uiso   1.00
C341   C     0.06034   0.64465   0.16231   0.00000  Uiso   1.00
C342   C     0.11387   0.73704   0.12954   0.00000  Uiso   1.00
C343   C     0.86750   0.50303   0.19115   0.00000  Uiso   1.00
C344   C     0.77317   0.49352   0.24817   0.00000  Uiso   1.00
C345   C     0.69535   0.51681   0.25467   0.00000  Uiso   1.00
H346   H     0.00508   0.56446   0.04611   0.00000  Uiso   1.00
H347   H     0.09602   0.38623   0.98855   0.00000  Uiso   1.00
H348   H     0.10543   0.73359   0.02515   0.00000  Uiso   1.00
H349   H     0.81831   0.58248   0.11099   0.00000  Uiso   1.00
H350   H     0.18980   0.17469   0.94625   0.00000  Uiso   1.00
H351   H     0.20961   0.90714   0.02342   0.00000  Uiso   1.00
H352   H     0.60415   0.58850   0.20444   0.00000  Uiso   1.00
H353   H     0.95055   0.45691   0.21195   0.00000  Uiso   1.00
H354   H     0.03850   0.27277   0.16349   0.00000  Uiso   1.00
H355   H     0.04791   0.62014   0.20008   0.00000  Uiso   1.00
H356   H     0.76078   0.46903   0.28592   0.00000  Uiso   1.00
H357   H     0.14311   0.08260   0.08823   0.00000  Uiso   1.00
H358   H     0.16292   0.81506   0.16540   0.00000  Uiso   1.00
H359   H     0.55746   0.49642   0.34642   0.00000  Uiso   1.00
O360   O     0.22532   0.00947   0.98236   0.00000  Uiso   1.00
O361   O     0.25129   0.97043   0.08361   0.00000  Uiso   1.00
O362   O     0.45695   0.55238   0.32110   0.00000  Uiso   1.00
N363   N     0.16672   0.17828   0.98632   0.00000  Uiso   1.00
N364   N     0.18526   0.86307   0.05846   0.00000  Uiso   1.00
N365   N     0.61920   0.56520   0.22771   0.00000  Uiso   1.00
N366   N     0.14160   0.12872   0.06272   0.00000  Uiso   1.00
N367   N     0.16014   0.81352   0.13486   0.00000  Uiso   1.00
N368   N     0.59408   0.51564   0.30411   0.00000  Uiso   1.00
