data_job_04230
_audit_creation_date              2018-12-19
_audit_creation_method            'Materials Studio'
_symmetry_space_group_name_H-M    'P1'
_symmetry_Int_Tables_number       1
_symmetry_cell_setting            triclinic
loop_
_symmetry_equiv_pos_as_xyz
  x,y,z
_cell_length_a                    23.6190
_cell_length_b                    20.6898
_cell_length_c                    14.3141
_cell_angle_alpha                 90.0000
_cell_angle_beta                  90.0000
_cell_angle_gamma                 90.0000
loop_
_atom_site_label
_atom_site_type_symbol
_atom_site_fract_x
_atom_site_fract_y
_atom_site_fract_z
_atom_site_U_iso_or_equiv
_atom_site_adp_type
_atom_site_occupancy
C1     C     0.25004   0.41191   0.90790   0.00000  Uiso   1.00
C2     C     0.25005   0.47049   0.84324   0.00000  Uiso   1.00
C3     C     0.25005   0.53467   0.87141   0.00000  Uiso   1.00
C4     C     0.25005   0.58118   0.80149   0.00000  Uiso   1.00
C5     C     0.25004   0.67473   0.71548   0.00000  Uiso   1.00
C6     C     0.19846   0.37184   0.88052   0.00000  Uiso   1.00
C7     C     0.15509   0.35307   0.94005   0.00000  Uiso   1.00
C8     C     0.11166   0.31653   0.90152   0.00000  Uiso   1.00
C9     C     0.03157   0.25689   0.87341   0.00000  Uiso   1.00
C10    C     0.30161   0.37181   0.88053   0.00000  Uiso   1.00
C11    C     0.34496   0.35300   0.94007   0.00000  Uiso   1.00
C12    C     0.38837   0.31642   0.90155   0.00000  Uiso   1.00
C13    C     0.46843   0.25674   0.87345   0.00000  Uiso   1.00
C14    C     0.25004   0.38038   0.73364   0.00000  Uiso   1.00
C15    C     0.25005   0.45336   0.74858   0.00000  Uiso   1.00
C16    C     0.25005   0.49978   0.67860   0.00000  Uiso   1.00
C17    C     0.25005   0.56402   0.70667   0.00000  Uiso   1.00
C18    C     0.19846   0.35471   0.78587   0.00000  Uiso   1.00
C19    C     0.15508   0.31819   0.74725   0.00000  Uiso   1.00
C20    C     0.11166   0.29938   0.80670   0.00000  Uiso   1.00
C21    C     0.30161   0.35468   0.78588   0.00000  Uiso   1.00
C22    C     0.34495   0.31812   0.74726   0.00000  Uiso   1.00
C23    C     0.38836   0.29927   0.80672   0.00000  Uiso   1.00
H24    H     0.25004   0.42524   0.98159   0.00000  Uiso   1.00
H25    H     0.25005   0.54790   0.94467   0.00000  Uiso   1.00
H26    H     0.15511   0.36633   0.01330   0.00000  Uiso   1.00
H27    H     0.34494   0.36626   0.01331   0.00000  Uiso   1.00
H28    H     0.25004   0.67634   0.86198   0.00000  Uiso   1.00
H29    H     0.04985   0.29346   0.00670   0.00000  Uiso   1.00
H30    H     0.45016   0.29332   0.00673   0.00000  Uiso   1.00
H31    H     0.25003   0.36705   0.65995   0.00000  Uiso   1.00
H32    H     0.25005   0.48652   0.60536   0.00000  Uiso   1.00
H33    H     0.15510   0.30494   0.67400   0.00000  Uiso   1.00
H34    H     0.34494   0.30488   0.67401   0.00000  Uiso   1.00
H35    H     0.25003   0.62652   0.58659   0.00000  Uiso   1.00
H36    H     0.04984   0.24364   0.73132   0.00000  Uiso   1.00
H37    H     0.45015   0.24350   0.73134   0.00000  Uiso   1.00
O38    O     0.25002   0.73106   0.69418   0.00000  Uiso   1.00
O39    O     0.98739   0.22874   0.88406   0.00000  Uiso   1.00
O40    O     0.51259   0.22856   0.88409   0.00000  Uiso   1.00
N41    N     0.25005   0.64822   0.80466   0.00000  Uiso   1.00
N42    N     0.06288   0.29026   0.93996   0.00000  Uiso   1.00
N43    N     0.43713   0.29011   0.93999   0.00000  Uiso   1.00
N44    N     0.25004   0.62141   0.65647   0.00000  Uiso   1.00
N45    N     0.06288   0.26345   0.79178   0.00000  Uiso   1.00
N46    N     0.43713   0.26330   0.79181   0.00000  Uiso   1.00
C47    C     0.24996   0.08809   0.40790   0.00000  Uiso   1.00
C48    C     0.24995   0.02951   0.34324   0.00000  Uiso   1.00
C49    C     0.24995   0.96533   0.37141   0.00000  Uiso   1.00
C50    C     0.24995   0.91882   0.30149   0.00000  Uiso   1.00
C51    C     0.24996   0.82527   0.21548   0.00000  Uiso   1.00
C52    C     0.30154   0.12816   0.38052   0.00000  Uiso   1.00
C53    C     0.34491   0.14693   0.44005   0.00000  Uiso   1.00
C54    C     0.38834   0.18347   0.40152   0.00000  Uiso   1.00
C55    C     0.46843   0.24311   0.37341   0.00000  Uiso   1.00
C56    C     0.19839   0.12819   0.38053   0.00000  Uiso   1.00
C57    C     0.15504   0.14700   0.44007   0.00000  Uiso   1.00
C58    C     0.11163   0.18358   0.40155   0.00000  Uiso   1.00
C59    C     0.03157   0.24326   0.37345   0.00000  Uiso   1.00
C60    C     0.24996   0.11962   0.23364   0.00000  Uiso   1.00
C61    C     0.24995   0.04664   0.24858   0.00000  Uiso   1.00
C62    C     0.24995   0.00022   0.17860   0.00000  Uiso   1.00
C63    C     0.24995   0.93598   0.20667   0.00000  Uiso   1.00
C64    C     0.30154   0.14529   0.28587   0.00000  Uiso   1.00
C65    C     0.34492   0.18181   0.24725   0.00000  Uiso   1.00
C66    C     0.38834   0.20062   0.30670   0.00000  Uiso   1.00
C67    C     0.19839   0.14532   0.28588   0.00000  Uiso   1.00
C68    C     0.15505   0.18188   0.24726   0.00000  Uiso   1.00
C69    C     0.11164   0.20073   0.30672   0.00000  Uiso   1.00
H70    H     0.24996   0.07476   0.48159   0.00000  Uiso   1.00
H71    H     0.24995   0.95210   0.44467   0.00000  Uiso   1.00
H72    H     0.34489   0.13367   0.51330   0.00000  Uiso   1.00
H73    H     0.15506   0.13374   0.51331   0.00000  Uiso   1.00
H74    H     0.24996   0.82366   0.36198   0.00000  Uiso   1.00
H75    H     0.45015   0.20654   0.50670   0.00000  Uiso   1.00
H76    H     0.04984   0.20668   0.50673   0.00000  Uiso   1.00
H77    H     0.24997   0.13295   0.15995   0.00000  Uiso   1.00
H78    H     0.24995   0.01348   0.10536   0.00000  Uiso   1.00
H79    H     0.34490   0.19506   0.17400   0.00000  Uiso   1.00
H80    H     0.15506   0.19512   0.17401   0.00000  Uiso   1.00
H81    H     0.24997   0.87348   0.08659   0.00000  Uiso   1.00
H82    H     0.45016   0.25636   0.23132   0.00000  Uiso   1.00
H83    H     0.04985   0.25650   0.23134   0.00000  Uiso   1.00
O84    O     0.24998   0.76894   0.19418   0.00000  Uiso   1.00
O85    O     0.51261   0.27126   0.38406   0.00000  Uiso   1.00
O86    O     0.98741   0.27144   0.38409   0.00000  Uiso   1.00
N87    N     0.24995   0.85178   0.30466   0.00000  Uiso   1.00
N88    N     0.43712   0.20974   0.43996   0.00000  Uiso   1.00
N89    N     0.06287   0.20989   0.43999   0.00000  Uiso   1.00
N90    N     0.24996   0.87859   0.15647   0.00000  Uiso   1.00
N91    N     0.43712   0.23655   0.29178   0.00000  Uiso   1.00
N92    N     0.06287   0.23670   0.29181   0.00000  Uiso   1.00
C93    C     0.74996   0.41191   0.59210   0.00000  Uiso   1.00
C94    C     0.74995   0.47049   0.65676   0.00000  Uiso   1.00
C95    C     0.74995   0.53467   0.62859   0.00000  Uiso   1.00
C96    C     0.74995   0.58118   0.69851   0.00000  Uiso   1.00
C97    C     0.74996   0.67473   0.78452   0.00000  Uiso   1.00
C98    C     0.80154   0.37184   0.61948   0.00000  Uiso   1.00
C99    C     0.84491   0.35307   0.55995   0.00000  Uiso   1.00
C100   C     0.88834   0.31653   0.59848   0.00000  Uiso   1.00
C101   C     0.96843   0.25689   0.62659   0.00000  Uiso   1.00
C102   C     0.69839   0.37181   0.61947   0.00000  Uiso   1.00
C103   C     0.65504   0.35300   0.55993   0.00000  Uiso   1.00
C104   C     0.61163   0.31642   0.59845   0.00000  Uiso   1.00
C105   C     0.53157   0.25674   0.62655   0.00000  Uiso   1.00
C106   C     0.74996   0.38038   0.76636   0.00000  Uiso   1.00
C107   C     0.74995   0.45336   0.75142   0.00000  Uiso   1.00
C108   C     0.74995   0.49978   0.82140   0.00000  Uiso   1.00
C109   C     0.74995   0.56402   0.79333   0.00000  Uiso   1.00
C110   C     0.80154   0.35471   0.71413   0.00000  Uiso   1.00
C111   C     0.84492   0.31819   0.75275   0.00000  Uiso   1.00
C112   C     0.88834   0.29938   0.69330   0.00000  Uiso   1.00
C113   C     0.69839   0.35468   0.71412   0.00000  Uiso   1.00
C114   C     0.65505   0.31812   0.75274   0.00000  Uiso   1.00
C115   C     0.61164   0.29927   0.69328   0.00000  Uiso   1.00
H116   H     0.74996   0.42524   0.51841   0.00000  Uiso   1.00
H117   H     0.74995   0.54790   0.55533   0.00000  Uiso   1.00
H118   H     0.84489   0.36633   0.48670   0.00000  Uiso   1.00
H119   H     0.65506   0.36626   0.48669   0.00000  Uiso   1.00
H120   H     0.74996   0.67634   0.63802   0.00000  Uiso   1.00
H121   H     0.95015   0.29346   0.49330   0.00000  Uiso   1.00
H122   H     0.54984   0.29332   0.49327   0.00000  Uiso   1.00
H123   H     0.74997   0.36705   0.84005   0.00000  Uiso   1.00
H124   H     0.74995   0.48652   0.89464   0.00000  Uiso   1.00
H125   H     0.84490   0.30494   0.82600   0.00000  Uiso   1.00
H126   H     0.65506   0.30488   0.82599   0.00000  Uiso   1.00
H127   H     0.74997   0.62652   0.91341   0.00000  Uiso   1.00
H128   H     0.95016   0.24364   0.76868   0.00000  Uiso   1.00
H129   H     0.54985   0.24350   0.76866   0.00000  Uiso   1.00
O130   O     0.74998   0.73106   0.80582   0.00000  Uiso   1.00
O131   O     0.01261   0.22874   0.61594   0.00000  Uiso   1.00
O132   O     0.48741   0.22856   0.61591   0.00000  Uiso   1.00
N133   N     0.74995   0.64822   0.69534   0.00000  Uiso   1.00
N134   N     0.93712   0.29026   0.56004   0.00000  Uiso   1.00
N135   N     0.56287   0.29011   0.56001   0.00000  Uiso   1.00
N136   N     0.74996   0.62141   0.84353   0.00000  Uiso   1.00
N137   N     0.93712   0.26345   0.70822   0.00000  Uiso   1.00
N138   N     0.56287   0.26330   0.70819   0.00000  Uiso   1.00
C139   C     0.75004   0.08809   0.09210   0.00000  Uiso   1.00
C140   C     0.75005   0.02951   0.15676   0.00000  Uiso   1.00
C141   C     0.75005   0.96533   0.12859   0.00000  Uiso   1.00
C142   C     0.75005   0.91882   0.19851   0.00000  Uiso   1.00
C143   C     0.75004   0.82527   0.28452   0.00000  Uiso   1.00
C144   C     0.69846   0.12816   0.11948   0.00000  Uiso   1.00
C145   C     0.65509   0.14693   0.05995   0.00000  Uiso   1.00
C146   C     0.61166   0.18347   0.09848   0.00000  Uiso   1.00
C147   C     0.53157   0.24311   0.12659   0.00000  Uiso   1.00
C148   C     0.80161   0.12819   0.11947   0.00000  Uiso   1.00
C149   C     0.84496   0.14700   0.05993   0.00000  Uiso   1.00
C150   C     0.88837   0.18358   0.09845   0.00000  Uiso   1.00
C151   C     0.96843   0.24326   0.12655   0.00000  Uiso   1.00
C152   C     0.75004   0.11962   0.26636   0.00000  Uiso   1.00
C153   C     0.75005   0.04664   0.25142   0.00000  Uiso   1.00
C154   C     0.75005   0.00022   0.32140   0.00000  Uiso   1.00
C155   C     0.75005   0.93598   0.29333   0.00000  Uiso   1.00
C156   C     0.69846   0.14529   0.21413   0.00000  Uiso   1.00
C157   C     0.65508   0.18181   0.25275   0.00000  Uiso   1.00
C158   C     0.61166   0.20062   0.19330   0.00000  Uiso   1.00
C159   C     0.80161   0.14532   0.21412   0.00000  Uiso   1.00
C160   C     0.84495   0.18188   0.25274   0.00000  Uiso   1.00
C161   C     0.88836   0.20073   0.19328   0.00000  Uiso   1.00
H162   H     0.75004   0.07476   0.01841   0.00000  Uiso   1.00
H163   H     0.75005   0.95210   0.05533   0.00000  Uiso   1.00
H164   H     0.65511   0.13367   0.98670   0.00000  Uiso   1.00
H165   H     0.84494   0.13374   0.98669   0.00000  Uiso   1.00
H166   H     0.75004   0.82366   0.13802   0.00000  Uiso   1.00
H167   H     0.54985   0.20654   0.99330   0.00000  Uiso   1.00
H168   H     0.95016   0.20668   0.99327   0.00000  Uiso   1.00
H169   H     0.75003   0.13295   0.34005   0.00000  Uiso   1.00
H170   H     0.75005   0.01348   0.39464   0.00000  Uiso   1.00
H171   H     0.65510   0.19506   0.32600   0.00000  Uiso   1.00
H172   H     0.84494   0.19512   0.32599   0.00000  Uiso   1.00
H173   H     0.75003   0.87348   0.41341   0.00000  Uiso   1.00
H174   H     0.54984   0.25636   0.26868   0.00000  Uiso   1.00
H175   H     0.95015   0.25650   0.26866   0.00000  Uiso   1.00
O176   O     0.75002   0.76894   0.30582   0.00000  Uiso   1.00
O177   O     0.48739   0.27126   0.11594   0.00000  Uiso   1.00
O178   O     0.01259   0.27144   0.11591   0.00000  Uiso   1.00
N179   N     0.75005   0.85178   0.19534   0.00000  Uiso   1.00
N180   N     0.56288   0.20974   0.06004   0.00000  Uiso   1.00
N181   N     0.93713   0.20989   0.06001   0.00000  Uiso   1.00
N182   N     0.75004   0.87859   0.34353   0.00000  Uiso   1.00
N183   N     0.56288   0.23655   0.20822   0.00000  Uiso   1.00
N184   N     0.93713   0.23670   0.20819   0.00000  Uiso   1.00
C185   C     0.74996   0.58809   0.09210   0.00000  Uiso   1.00
C186   C     0.74995   0.52951   0.15676   0.00000  Uiso   1.00
C187   C     0.74995   0.46533   0.12859   0.00000  Uiso   1.00
C188   C     0.74995   0.41882   0.19851   0.00000  Uiso   1.00
C189   C     0.74996   0.32527   0.28452   0.00000  Uiso   1.00
C190   C     0.80154   0.62816   0.11948   0.00000  Uiso   1.00
C191   C     0.84491   0.64693   0.05995   0.00000  Uiso   1.00
C192   C     0.88834   0.68347   0.09848   0.00000  Uiso   1.00
C193   C     0.96843   0.74311   0.12659   0.00000  Uiso   1.00
C194   C     0.69839   0.62819   0.11947   0.00000  Uiso   1.00
C195   C     0.65504   0.64700   0.05993   0.00000  Uiso   1.00
C196   C     0.61163   0.68358   0.09845   0.00000  Uiso   1.00
C197   C     0.53157   0.74326   0.12655   0.00000  Uiso   1.00
C198   C     0.74996   0.61962   0.26636   0.00000  Uiso   1.00
C199   C     0.74995   0.54664   0.25142   0.00000  Uiso   1.00
C200   C     0.74995   0.50022   0.32140   0.00000  Uiso   1.00
C201   C     0.74995   0.43598   0.29333   0.00000  Uiso   1.00
C202   C     0.80154   0.64529   0.21413   0.00000  Uiso   1.00
C203   C     0.84492   0.68181   0.25275   0.00000  Uiso   1.00
C204   C     0.88834   0.70062   0.19330   0.00000  Uiso   1.00
C205   C     0.69839   0.64532   0.21412   0.00000  Uiso   1.00
C206   C     0.65505   0.68188   0.25274   0.00000  Uiso   1.00
C207   C     0.61164   0.70073   0.19328   0.00000  Uiso   1.00
H208   H     0.74996   0.57476   0.01841   0.00000  Uiso   1.00
H209   H     0.74995   0.45210   0.05533   0.00000  Uiso   1.00
H210   H     0.84489   0.63367   0.98670   0.00000  Uiso   1.00
H211   H     0.65506   0.63374   0.98669   0.00000  Uiso   1.00
H212   H     0.74996   0.32366   0.13802   0.00000  Uiso   1.00
H213   H     0.95015   0.70654   0.99330   0.00000  Uiso   1.00
H214   H     0.54984   0.70668   0.99327   0.00000  Uiso   1.00
H215   H     0.74997   0.63295   0.34005   0.00000  Uiso   1.00
H216   H     0.74995   0.51348   0.39464   0.00000  Uiso   1.00
H217   H     0.84490   0.69506   0.32600   0.00000  Uiso   1.00
H218   H     0.65506   0.69512   0.32599   0.00000  Uiso   1.00
H219   H     0.74997   0.37348   0.41341   0.00000  Uiso   1.00
H220   H     0.95016   0.75636   0.26868   0.00000  Uiso   1.00
H221   H     0.54985   0.75650   0.26866   0.00000  Uiso   1.00
O222   O     0.74998   0.26894   0.30582   0.00000  Uiso   1.00
O223   O     0.01261   0.77126   0.11594   0.00000  Uiso   1.00
O224   O     0.48741   0.77144   0.11591   0.00000  Uiso   1.00
N225   N     0.74995   0.35178   0.19534   0.00000  Uiso   1.00
N226   N     0.93712   0.70974   0.06004   0.00000  Uiso   1.00
N227   N     0.56287   0.70989   0.06001   0.00000  Uiso   1.00
N228   N     0.74996   0.37859   0.34353   0.00000  Uiso   1.00
N229   N     0.93712   0.73655   0.20822   0.00000  Uiso   1.00
N230   N     0.56287   0.73670   0.20819   0.00000  Uiso   1.00
C231   C     0.75004   0.91191   0.59210   0.00000  Uiso   1.00
C232   C     0.75005   0.97049   0.65676   0.00000  Uiso   1.00
C233   C     0.75005   0.03467   0.62859   0.00000  Uiso   1.00
C234   C     0.75005   0.08118   0.69851   0.00000  Uiso   1.00
C235   C     0.75004   0.17473   0.78452   0.00000  Uiso   1.00
C236   C     0.69846   0.87184   0.61948   0.00000  Uiso   1.00
C237   C     0.65509   0.85307   0.55995   0.00000  Uiso   1.00
C238   C     0.61166   0.81653   0.59848   0.00000  Uiso   1.00
C239   C     0.53157   0.75689   0.62659   0.00000  Uiso   1.00
C240   C     0.80161   0.87181   0.61947   0.00000  Uiso   1.00
C241   C     0.84496   0.85300   0.55993   0.00000  Uiso   1.00
C242   C     0.88837   0.81642   0.59845   0.00000  Uiso   1.00
C243   C     0.96843   0.75674   0.62655   0.00000  Uiso   1.00
C244   C     0.75004   0.88038   0.76636   0.00000  Uiso   1.00
C245   C     0.75005   0.95336   0.75142   0.00000  Uiso   1.00
C246   C     0.75005   0.99978   0.82140   0.00000  Uiso   1.00
C247   C     0.75005   0.06402   0.79333   0.00000  Uiso   1.00
C248   C     0.69846   0.85471   0.71413   0.00000  Uiso   1.00
C249   C     0.65508   0.81819   0.75275   0.00000  Uiso   1.00
C250   C     0.61166   0.79938   0.69330   0.00000  Uiso   1.00
C251   C     0.80161   0.85468   0.71412   0.00000  Uiso   1.00
C252   C     0.84495   0.81812   0.75274   0.00000  Uiso   1.00
C253   C     0.88836   0.79927   0.69328   0.00000  Uiso   1.00
H254   H     0.75004   0.92524   0.51841   0.00000  Uiso   1.00
H255   H     0.75005   0.04790   0.55533   0.00000  Uiso   1.00
H256   H     0.65511   0.86633   0.48670   0.00000  Uiso   1.00
H257   H     0.84494   0.86626   0.48669   0.00000  Uiso   1.00
H258   H     0.75004   0.17634   0.63802   0.00000  Uiso   1.00
H259   H     0.54985   0.79346   0.49330   0.00000  Uiso   1.00
H260   H     0.95016   0.79332   0.49327   0.00000  Uiso   1.00
H261   H     0.75003   0.86705   0.84005   0.00000  Uiso   1.00
H262   H     0.75005   0.98652   0.89464   0.00000  Uiso   1.00
H263   H     0.65510   0.80494   0.82600   0.00000  Uiso   1.00
H264   H     0.84494   0.80488   0.82599   0.00000  Uiso   1.00
H265   H     0.75003   0.12652   0.91341   0.00000  Uiso   1.00
H266   H     0.54984   0.74364   0.76868   0.00000  Uiso   1.00
H267   H     0.95015   0.74350   0.76866   0.00000  Uiso   1.00
O268   O     0.75002   0.23106   0.80582   0.00000  Uiso   1.00
O269   O     0.48739   0.72874   0.61594   0.00000  Uiso   1.00
O270   O     0.01259   0.72856   0.61591   0.00000  Uiso   1.00
N271   N     0.75005   0.14822   0.69534   0.00000  Uiso   1.00
N272   N     0.56288   0.79026   0.56004   0.00000  Uiso   1.00
N273   N     0.93713   0.79011   0.56001   0.00000  Uiso   1.00
N274   N     0.75004   0.12141   0.84353   0.00000  Uiso   1.00
N275   N     0.56288   0.76345   0.70822   0.00000  Uiso   1.00
N276   N     0.93713   0.76330   0.70819   0.00000  Uiso   1.00
C277   C     0.25004   0.58809   0.40790   0.00000  Uiso   1.00
C278   C     0.25005   0.52951   0.34324   0.00000  Uiso   1.00
C279   C     0.25005   0.46533   0.37141   0.00000  Uiso   1.00
C280   C     0.25005   0.41882   0.30149   0.00000  Uiso   1.00
C281   C     0.25004   0.32527   0.21548   0.00000  Uiso   1.00
C282   C     0.19846   0.62816   0.38052   0.00000  Uiso   1.00
C283   C     0.15509   0.64693   0.44005   0.00000  Uiso   1.00
C284   C     0.11166   0.68347   0.40152   0.00000  Uiso   1.00
C285   C     0.03157   0.74311   0.37341   0.00000  Uiso   1.00
C286   C     0.30161   0.62819   0.38053   0.00000  Uiso   1.00
C287   C     0.34496   0.64700   0.44007   0.00000  Uiso   1.00
C288   C     0.38837   0.68358   0.40155   0.00000  Uiso   1.00
C289   C     0.46843   0.74326   0.37345   0.00000  Uiso   1.00
C290   C     0.25004   0.61962   0.23364   0.00000  Uiso   1.00
C291   C     0.25005   0.54664   0.24858   0.00000  Uiso   1.00
C292   C     0.25005   0.50022   0.17860   0.00000  Uiso   1.00
C293   C     0.25005   0.43598   0.20667   0.00000  Uiso   1.00
C294   C     0.19846   0.64529   0.28587   0.00000  Uiso   1.00
C295   C     0.15508   0.68181   0.24725   0.00000  Uiso   1.00
C296   C     0.11166   0.70062   0.30670   0.00000  Uiso   1.00
C297   C     0.30161   0.64532   0.28588   0.00000  Uiso   1.00
C298   C     0.34495   0.68188   0.24726   0.00000  Uiso   1.00
C299   C     0.38836   0.70073   0.30672   0.00000  Uiso   1.00
H300   H     0.25004   0.57476   0.48159   0.00000  Uiso   1.00
H301   H     0.25005   0.45210   0.44467   0.00000  Uiso   1.00
H302   H     0.15511   0.63367   0.51330   0.00000  Uiso   1.00
H303   H     0.34494   0.63374   0.51331   0.00000  Uiso   1.00
H304   H     0.25004   0.32366   0.36198   0.00000  Uiso   1.00
H305   H     0.04985   0.70654   0.50670   0.00000  Uiso   1.00
H306   H     0.45016   0.70668   0.50673   0.00000  Uiso   1.00
H307   H     0.25003   0.63295   0.15995   0.00000  Uiso   1.00
H308   H     0.25005   0.51348   0.10536   0.00000  Uiso   1.00
H309   H     0.15510   0.69506   0.17400   0.00000  Uiso   1.00
H310   H     0.34494   0.69512   0.17401   0.00000  Uiso   1.00
H311   H     0.25003   0.37348   0.08659   0.00000  Uiso   1.00
H312   H     0.04984   0.75636   0.23132   0.00000  Uiso   1.00
H313   H     0.45015   0.75650   0.23134   0.00000  Uiso   1.00
O314   O     0.25002   0.26894   0.19418   0.00000  Uiso   1.00
O315   O     0.98739   0.77126   0.38406   0.00000  Uiso   1.00
O316   O     0.51259   0.77144   0.38409   0.00000  Uiso   1.00
N317   N     0.25005   0.35178   0.30466   0.00000  Uiso   1.00
N318   N     0.06288   0.70974   0.43996   0.00000  Uiso   1.00
N319   N     0.43713   0.70989   0.43999   0.00000  Uiso   1.00
N320   N     0.25004   0.37859   0.15647   0.00000  Uiso   1.00
N321   N     0.06288   0.73655   0.29178   0.00000  Uiso   1.00
N322   N     0.43713   0.73670   0.29181   0.00000  Uiso   1.00
C323   C     0.24996   0.91191   0.90790   0.00000  Uiso   1.00
C324   C     0.24995   0.97049   0.84324   0.00000  Uiso   1.00
C325   C     0.24995   0.03467   0.87141   0.00000  Uiso   1.00
C326   C     0.24995   0.08118   0.80149   0.00000  Uiso   1.00
C327   C     0.24996   0.17473   0.71548   0.00000  Uiso   1.00
C328   C     0.30154   0.87184   0.88052   0.00000  Uiso   1.00
C329   C     0.34491   0.85307   0.94005   0.00000  Uiso   1.00
C330   C     0.38834   0.81653   0.90152   0.00000  Uiso   1.00
C331   C     0.46843   0.75689   0.87341   0.00000  Uiso   1.00
C332   C     0.19839   0.87181   0.88053   0.00000  Uiso   1.00
C333   C     0.15504   0.85300   0.94007   0.00000  Uiso   1.00
C334   C     0.11163   0.81642   0.90155   0.00000  Uiso   1.00
C335   C     0.03157   0.75674   0.87345   0.00000  Uiso   1.00
C336   C     0.24996   0.88038   0.73364   0.00000  Uiso   1.00
C337   C     0.24995   0.95336   0.74858   0.00000  Uiso   1.00
C338   C     0.24995   0.99978   0.67860   0.00000  Uiso   1.00
C339   C     0.24995   0.06402   0.70667   0.00000  Uiso   1.00
C340   C     0.30154   0.85471   0.78587   0.00000  Uiso   1.00
C341   C     0.34492   0.81819   0.74725   0.00000  Uiso   1.00
C342   C     0.38834   0.79938   0.80670   0.00000  Uiso   1.00
C343   C     0.19839   0.85468   0.78588   0.00000  Uiso   1.00
C344   C     0.15505   0.81812   0.74726   0.00000  Uiso   1.00
C345   C     0.11164   0.79927   0.80672   0.00000  Uiso   1.00
H346   H     0.24996   0.92524   0.98159   0.00000  Uiso   1.00
H347   H     0.24995   0.04790   0.94467   0.00000  Uiso   1.00
H348   H     0.34489   0.86633   0.01330   0.00000  Uiso   1.00
H349   H     0.15506   0.86626   0.01331   0.00000  Uiso   1.00
H350   H     0.24996   0.17634   0.86198   0.00000  Uiso   1.00
H351   H     0.45015   0.79346   0.00670   0.00000  Uiso   1.00
H352   H     0.04984   0.79332   0.00673   0.00000  Uiso   1.00
H353   H     0.24997   0.86705   0.65995   0.00000  Uiso   1.00
H354   H     0.24995   0.98652   0.60536   0.00000  Uiso   1.00
H355   H     0.34490   0.80494   0.67400   0.00000  Uiso   1.00
H356   H     0.15506   0.80488   0.67401   0.00000  Uiso   1.00
H357   H     0.24997   0.12652   0.58659   0.00000  Uiso   1.00
H358   H     0.45016   0.74364   0.73132   0.00000  Uiso   1.00
H359   H     0.04985   0.74350   0.73134   0.00000  Uiso   1.00
O360   O     0.24998   0.23106   0.69418   0.00000  Uiso   1.00
O361   O     0.51261   0.72874   0.88406   0.00000  Uiso   1.00
O362   O     0.98741   0.72856   0.88409   0.00000  Uiso   1.00
N363   N     0.24995   0.14822   0.80466   0.00000  Uiso   1.00
N364   N     0.43712   0.79026   0.93996   0.00000  Uiso   1.00
N365   N     0.06287   0.79011   0.93999   0.00000  Uiso   1.00
N366   N     0.24996   0.12141   0.65647   0.00000  Uiso   1.00
N367   N     0.43712   0.76345   0.79178   0.00000  Uiso   1.00
N368   N     0.06287   0.76330   0.79181   0.00000  Uiso   1.00
