data_job_05896
_audit_creation_date              2018-12-19
_audit_creation_method            'Materials Studio'
_symmetry_space_group_name_H-M    'P1'
_symmetry_Int_Tables_number       1
_symmetry_cell_setting            triclinic
loop_
_symmetry_equiv_pos_as_xyz
  x,y,z
_cell_length_a                    12.7140
_cell_length_b                    12.7140
_cell_length_c                    32.7395
_cell_angle_alpha                 90.0000
_cell_angle_beta                  90.0000
_cell_angle_gamma                 120.0000
loop_
_atom_site_label
_atom_site_type_symbol
_atom_site_fract_x
_atom_site_fract_y
_atom_site_fract_z
_atom_site_U_iso_or_equiv
_atom_site_adp_type
_atom_site_occupancy
C1     C     0.42349   0.14989   0.98262   0.00000  Uiso   1.00
C2     C     0.44970   0.05514   0.00098   0.00000  Uiso   1.00
C3     C     0.54503   0.03706   0.99015   0.00000  Uiso   1.00
C4     C     0.55335   0.94573   0.01053   0.00000  Uiso   1.00
C5     C     0.60680   0.80931   0.03446   0.00000  Uiso   1.00
C6     C     0.29369   0.07995   0.96648   0.00000  Uiso   1.00
C7     C     0.25785   0.08276   0.92665   0.00000  Uiso   1.00
C8     C     0.13484   0.01233   0.91799   0.00000  Uiso   1.00
C9     C     0.94608   0.91451   0.88835   0.00000  Uiso   1.00
C10    C     0.42102   0.22545   0.01838   0.00000  Uiso   1.00
C11    C     0.49220   0.35059   0.02218   0.00000  Uiso   1.00
C12    C     0.47636   0.40266   0.05722   0.00000  Uiso   1.00
C13    C     0.48529   0.53073   0.10817   0.00000  Uiso   1.00
C14    C     0.26875   0.01984   0.03807   0.00000  Uiso   1.00
C15    C     0.36565   0.98450   0.03110   0.00000  Uiso   1.00
C16    C     0.37383   0.89318   0.05151   0.00000  Uiso   1.00
C17    C     0.46916   0.87497   0.04071   0.00000  Uiso   1.00
C18    C     0.20965   0.00932   0.99660   0.00000  Uiso   1.00
C19    C     0.08666   0.93888   0.98800   0.00000  Uiso   1.00
C20    C     0.05064   0.94157   0.94816   0.00000  Uiso   1.00
C21    C     0.33697   0.15481   0.04851   0.00000  Uiso   1.00
C22    C     0.32101   0.20670   0.08354   0.00000  Uiso   1.00
C23    C     0.39216   0.33189   0.08740   0.00000  Uiso   1.00
H24    H     0.48891   0.20488   0.95916   0.00000  Uiso   1.00
H25    H     0.61004   0.09174   0.96684   0.00000  Uiso   1.00
H26    H     0.32291   0.13744   0.90334   0.00000  Uiso   1.00
H27    H     0.55723   0.40522   0.99887   0.00000  Uiso   1.00
H28    H     0.70725   0.93512   0.98862   0.00000  Uiso   1.00
H29    H     0.10181   0.03151   0.85474   0.00000  Uiso   1.00
H30    H     0.59591   0.59618   0.05617   0.00000  Uiso   1.00
H31    H     0.20332   0.96485   0.06152   0.00000  Uiso   1.00
H32    H     0.30878   0.83853   0.07482   0.00000  Uiso   1.00
H33    H     0.02165   0.88423   0.01132   0.00000  Uiso   1.00
H34    H     0.25597   0.15201   0.10684   0.00000  Uiso   1.00
H35    H     0.46273   0.72960   0.07626   0.00000  Uiso   1.00
H36    H     0.85729   0.82600   0.94238   0.00000  Uiso   1.00
H37    H     0.35140   0.39067   0.14381   0.00000  Uiso   1.00
O38    O     0.65950   0.75357   0.03933   0.00000  Uiso   1.00
O39    O     0.86519   0.88006   0.86368   0.00000  Uiso   1.00
O40    O     0.51344   0.62089   0.12796   0.00000  Uiso   1.00
N41    N     0.63524   0.90410   0.00743   0.00000  Uiso   1.00
N42    N     0.06920   0.99421   0.88226   0.00000  Uiso   1.00
N43    N     0.53112   0.52213   0.07057   0.00000  Uiso   1.00
N44    N     0.50367   0.79351   0.05458   0.00000  Uiso   1.00
N45    N     0.93762   0.88362   0.92941   0.00000  Uiso   1.00
N46    N     0.39955   0.41155   0.11773   0.00000  Uiso   1.00
C47    C     0.85011   0.27360   0.64928   0.00000  Uiso   1.00
C48    C     0.94486   0.39456   0.66765   0.00000  Uiso   1.00
C49    C     0.96294   0.50796   0.65682   0.00000  Uiso   1.00
C50    C     0.05427   0.60762   0.67720   0.00000  Uiso   1.00
C51    C     0.19069   0.79749   0.70112   0.00000  Uiso   1.00
C52    C     0.92005   0.21374   0.63315   0.00000  Uiso   1.00
C53    C     0.91724   0.17509   0.59331   0.00000  Uiso   1.00
C54    C     0.98767   0.12251   0.58465   0.00000  Uiso   1.00
C55    C     0.08549   0.03157   0.55502   0.00000  Uiso   1.00
C56    C     0.77455   0.19557   0.68505   0.00000  Uiso   1.00
C57    C     0.64941   0.14161   0.68885   0.00000  Uiso   1.00
C58    C     0.59734   0.07371   0.72389   0.00000  Uiso   1.00
C59    C     0.46927   0.95456   0.77484   0.00000  Uiso   1.00
C60    C     0.98016   0.24891   0.70474   0.00000  Uiso   1.00
C61    C     0.01550   0.38115   0.69777   0.00000  Uiso   1.00
C62    C     0.10682   0.48066   0.71818   0.00000  Uiso   1.00
C63    C     0.12503   0.59419   0.70738   0.00000  Uiso   1.00
C64    C     0.99068   0.20033   0.66327   0.00000  Uiso   1.00
C65    C     0.06112   0.14778   0.65467   0.00000  Uiso   1.00
C66    C     0.05843   0.10908   0.61483   0.00000  Uiso   1.00
C67    C     0.84519   0.18216   0.71517   0.00000  Uiso   1.00
C68    C     0.79330   0.11431   0.75021   0.00000  Uiso   1.00
C69    C     0.66811   0.06027   0.75406   0.00000  Uiso   1.00
H70    H     0.79512   0.28403   0.62583   0.00000  Uiso   1.00
H71    H     0.90826   0.51830   0.63350   0.00000  Uiso   1.00
H72    H     0.86256   0.18547   0.57001   0.00000  Uiso   1.00
H73    H     0.59478   0.15201   0.66553   0.00000  Uiso   1.00
H74    H     0.06488   0.77213   0.65529   0.00000  Uiso   1.00
H75    H     0.96849   0.07030   0.52141   0.00000  Uiso   1.00
H76    H     0.40382   0.99973   0.72284   0.00000  Uiso   1.00
H77    H     0.03515   0.23847   0.72819   0.00000  Uiso   1.00
H78    H     0.16147   0.47025   0.74148   0.00000  Uiso   1.00
H79    H     0.11577   0.13742   0.67799   0.00000  Uiso   1.00
H80    H     0.84799   0.10396   0.77351   0.00000  Uiso   1.00
H81    H     0.27040   0.73313   0.74292   0.00000  Uiso   1.00
H82    H     0.17400   0.03129   0.60904   0.00000  Uiso   1.00
H83    H     0.60933   0.96073   0.81048   0.00000  Uiso   1.00
O84    O     0.24643   0.90593   0.70599   0.00000  Uiso   1.00
O85    O     0.11994   0.98513   0.53035   0.00000  Uiso   1.00
O86    O     0.37911   0.89256   0.79462   0.00000  Uiso   1.00
N87    N     0.09590   0.73114   0.67409   0.00000  Uiso   1.00
N88    N     0.00579   0.07499   0.54892   0.00000  Uiso   1.00
N89    N     0.47787   0.00899   0.73724   0.00000  Uiso   1.00
N90    N     0.20649   0.71016   0.72125   0.00000  Uiso   1.00
N91    N     0.11638   0.05400   0.59608   0.00000  Uiso   1.00
N92    N     0.58845   0.98800   0.78440   0.00000  Uiso   1.00
C93    C     0.72640   0.57651   0.31595   0.00000  Uiso   1.00
C94    C     0.60544   0.55030   0.33432   0.00000  Uiso   1.00
C95    C     0.49204   0.45497   0.32349   0.00000  Uiso   1.00
C96    C     0.39238   0.44665   0.34387   0.00000  Uiso   1.00
C97    C     0.20251   0.39320   0.36779   0.00000  Uiso   1.00
C98    C     0.78626   0.70631   0.29982   0.00000  Uiso   1.00
C99    C     0.82491   0.74215   0.25998   0.00000  Uiso   1.00
C100   C     0.87749   0.86516   0.25132   0.00000  Uiso   1.00
C101   C     0.96843   0.05392   0.22169   0.00000  Uiso   1.00
C102   C     0.80443   0.57898   0.35172   0.00000  Uiso   1.00
C103   C     0.85839   0.50780   0.35552   0.00000  Uiso   1.00
C104   C     0.92629   0.52364   0.39055   0.00000  Uiso   1.00
C105   C     0.04544   0.51471   0.44150   0.00000  Uiso   1.00
C106   C     0.75109   0.73125   0.37141   0.00000  Uiso   1.00
C107   C     0.61885   0.63435   0.36444   0.00000  Uiso   1.00
C108   C     0.51934   0.62617   0.38484   0.00000  Uiso   1.00
C109   C     0.40581   0.53084   0.37404   0.00000  Uiso   1.00
C110   C     0.79967   0.79035   0.32993   0.00000  Uiso   1.00
C111   C     0.85222   0.91334   0.32133   0.00000  Uiso   1.00
C112   C     0.89092   0.94936   0.28150   0.00000  Uiso   1.00
C113   C     0.81784   0.66303   0.38184   0.00000  Uiso   1.00
C114   C     0.88569   0.67899   0.41687   0.00000  Uiso   1.00
C115   C     0.93973   0.60784   0.42073   0.00000  Uiso   1.00
H116   H     0.71597   0.51109   0.29250   0.00000  Uiso   1.00
H117   H     0.48170   0.38996   0.30017   0.00000  Uiso   1.00
H118   H     0.81453   0.67709   0.23668   0.00000  Uiso   1.00
H119   H     0.84799   0.44277   0.33220   0.00000  Uiso   1.00
H120   H     0.22787   0.29275   0.32195   0.00000  Uiso   1.00
H121   H     0.92970   0.89819   0.18807   0.00000  Uiso   1.00
H122   H     0.00027   0.40409   0.38951   0.00000  Uiso   1.00
H123   H     0.76153   0.79668   0.39486   0.00000  Uiso   1.00
H124   H     0.52975   0.69122   0.40815   0.00000  Uiso   1.00
H125   H     0.86258   0.97835   0.34465   0.00000  Uiso   1.00
H126   H     0.89604   0.74403   0.44018   0.00000  Uiso   1.00
H127   H     0.26687   0.53727   0.40959   0.00000  Uiso   1.00
H128   H     0.96871   0.14271   0.27571   0.00000  Uiso   1.00
H129   H     0.03927   0.64860   0.47714   0.00000  Uiso   1.00
O130   O     0.09407   0.34050   0.37266   0.00000  Uiso   1.00
O131   O     0.01487   0.13481   0.19702   0.00000  Uiso   1.00
O132   O     0.10744   0.48656   0.46129   0.00000  Uiso   1.00
N133   N     0.26886   0.36476   0.34076   0.00000  Uiso   1.00
N134   N     0.92501   0.93080   0.21559   0.00000  Uiso   1.00
N135   N     0.99101   0.46888   0.40391   0.00000  Uiso   1.00
N136   N     0.28984   0.49633   0.38792   0.00000  Uiso   1.00
N137   N     0.94600   0.06238   0.26275   0.00000  Uiso   1.00
N138   N     0.01200   0.60045   0.45106   0.00000  Uiso   1.00
C139   C     0.14989   0.42349   0.01738   0.00000  Uiso   1.00
C140   C     0.05514   0.44970   0.99902   0.00000  Uiso   1.00
C141   C     0.03706   0.54503   0.00985   0.00000  Uiso   1.00
C142   C     0.94573   0.55335   0.98947   0.00000  Uiso   1.00
C143   C     0.80931   0.60680   0.96554   0.00000  Uiso   1.00
C144   C     0.07995   0.29369   0.03352   0.00000  Uiso   1.00
C145   C     0.08276   0.25785   0.07335   0.00000  Uiso   1.00
C146   C     0.01233   0.13484   0.08201   0.00000  Uiso   1.00
C147   C     0.91451   0.94608   0.11165   0.00000  Uiso   1.00
C148   C     0.22545   0.42102   0.98162   0.00000  Uiso   1.00
C149   C     0.35059   0.49220   0.97782   0.00000  Uiso   1.00
C150   C     0.40266   0.47636   0.94278   0.00000  Uiso   1.00
C151   C     0.53073   0.48529   0.89183   0.00000  Uiso   1.00
C152   C     0.01984   0.26875   0.96193   0.00000  Uiso   1.00
C153   C     0.98450   0.36565   0.96890   0.00000  Uiso   1.00
C154   C     0.89318   0.37383   0.94849   0.00000  Uiso   1.00
C155   C     0.87497   0.46916   0.95929   0.00000  Uiso   1.00
C156   C     0.00932   0.20965   0.00340   0.00000  Uiso   1.00
C157   C     0.93888   0.08666   0.01200   0.00000  Uiso   1.00
C158   C     0.94157   0.05064   0.05184   0.00000  Uiso   1.00
C159   C     0.15481   0.33697   0.95149   0.00000  Uiso   1.00
C160   C     0.20670   0.32101   0.91646   0.00000  Uiso   1.00
C161   C     0.33189   0.39216   0.91260   0.00000  Uiso   1.00
H162   H     0.20488   0.48891   0.04084   0.00000  Uiso   1.00
H163   H     0.09174   0.61004   0.03316   0.00000  Uiso   1.00
H164   H     0.13744   0.32291   0.09666   0.00000  Uiso   1.00
H165   H     0.40522   0.55723   0.00113   0.00000  Uiso   1.00
H166   H     0.93512   0.70725   0.01138   0.00000  Uiso   1.00
H167   H     0.03151   0.10181   0.14526   0.00000  Uiso   1.00
H168   H     0.59618   0.59591   0.94383   0.00000  Uiso   1.00
H169   H     0.96485   0.20332   0.93848   0.00000  Uiso   1.00
H170   H     0.83853   0.30878   0.92518   0.00000  Uiso   1.00
H171   H     0.88423   0.02165   0.98868   0.00000  Uiso   1.00
H172   H     0.15201   0.25597   0.89316   0.00000  Uiso   1.00
H173   H     0.72960   0.46273   0.92374   0.00000  Uiso   1.00
H174   H     0.82600   0.85729   0.05762   0.00000  Uiso   1.00
H175   H     0.39067   0.35140   0.85619   0.00000  Uiso   1.00
O176   O     0.75357   0.65950   0.96067   0.00000  Uiso   1.00
O177   O     0.88006   0.86519   0.13632   0.00000  Uiso   1.00
O178   O     0.62089   0.51344   0.87204   0.00000  Uiso   1.00
N179   N     0.90410   0.63524   0.99257   0.00000  Uiso   1.00
N180   N     0.99421   0.06920   0.11774   0.00000  Uiso   1.00
N181   N     0.52213   0.53112   0.92943   0.00000  Uiso   1.00
N182   N     0.79351   0.50367   0.94542   0.00000  Uiso   1.00
N183   N     0.88362   0.93762   0.07059   0.00000  Uiso   1.00
N184   N     0.41155   0.39955   0.88227   0.00000  Uiso   1.00
C185   C     0.27360   0.85011   0.35072   0.00000  Uiso   1.00
C186   C     0.39456   0.94486   0.33235   0.00000  Uiso   1.00
C187   C     0.50796   0.96294   0.34318   0.00000  Uiso   1.00
C188   C     0.60762   0.05427   0.32280   0.00000  Uiso   1.00
C189   C     0.79749   0.19069   0.29888   0.00000  Uiso   1.00
C190   C     0.21374   0.92005   0.36685   0.00000  Uiso   1.00
C191   C     0.17509   0.91724   0.40669   0.00000  Uiso   1.00
C192   C     0.12251   0.98767   0.41535   0.00000  Uiso   1.00
C193   C     0.03157   0.08549   0.44498   0.00000  Uiso   1.00
C194   C     0.19557   0.77455   0.31495   0.00000  Uiso   1.00
C195   C     0.14161   0.64941   0.31115   0.00000  Uiso   1.00
C196   C     0.07371   0.59734   0.27611   0.00000  Uiso   1.00
C197   C     0.95456   0.46927   0.22516   0.00000  Uiso   1.00
C198   C     0.24891   0.98016   0.29526   0.00000  Uiso   1.00
C199   C     0.38115   0.01550   0.30223   0.00000  Uiso   1.00
C200   C     0.48066   0.10682   0.28182   0.00000  Uiso   1.00
C201   C     0.59419   0.12503   0.29262   0.00000  Uiso   1.00
C202   C     0.20033   0.99068   0.33673   0.00000  Uiso   1.00
C203   C     0.14778   0.06112   0.34533   0.00000  Uiso   1.00
C204   C     0.10908   0.05843   0.38517   0.00000  Uiso   1.00
C205   C     0.18216   0.84519   0.28483   0.00000  Uiso   1.00
C206   C     0.11431   0.79330   0.24979   0.00000  Uiso   1.00
C207   C     0.06027   0.66811   0.24594   0.00000  Uiso   1.00
H208   H     0.28403   0.79512   0.37417   0.00000  Uiso   1.00
H209   H     0.51830   0.90826   0.36650   0.00000  Uiso   1.00
H210   H     0.18547   0.86256   0.42999   0.00000  Uiso   1.00
H211   H     0.15201   0.59478   0.33447   0.00000  Uiso   1.00
H212   H     0.77213   0.06488   0.34471   0.00000  Uiso   1.00
H213   H     0.07030   0.96849   0.47859   0.00000  Uiso   1.00
H214   H     0.99973   0.40382   0.27716   0.00000  Uiso   1.00
H215   H     0.23847   0.03515   0.27181   0.00000  Uiso   1.00
H216   H     0.47025   0.16147   0.25852   0.00000  Uiso   1.00
H217   H     0.13742   0.11577   0.32201   0.00000  Uiso   1.00
H218   H     0.10396   0.84799   0.22649   0.00000  Uiso   1.00
H219   H     0.73313   0.27040   0.25708   0.00000  Uiso   1.00
H220   H     0.03129   0.17400   0.39096   0.00000  Uiso   1.00
H221   H     0.96073   0.60933   0.18952   0.00000  Uiso   1.00
O222   O     0.90593   0.24643   0.29401   0.00000  Uiso   1.00
O223   O     0.98513   0.11994   0.46965   0.00000  Uiso   1.00
O224   O     0.89256   0.37911   0.20538   0.00000  Uiso   1.00
N225   N     0.73114   0.09590   0.32591   0.00000  Uiso   1.00
N226   N     0.07499   0.00579   0.45108   0.00000  Uiso   1.00
N227   N     0.00899   0.47787   0.26276   0.00000  Uiso   1.00
N228   N     0.71016   0.20649   0.27875   0.00000  Uiso   1.00
N229   N     0.05400   0.11638   0.40392   0.00000  Uiso   1.00
N230   N     0.98800   0.58845   0.21560   0.00000  Uiso   1.00
C231   C     0.57651   0.72640   0.68405   0.00000  Uiso   1.00
C232   C     0.55030   0.60544   0.66568   0.00000  Uiso   1.00
C233   C     0.45497   0.49204   0.67651   0.00000  Uiso   1.00
C234   C     0.44665   0.39238   0.65613   0.00000  Uiso   1.00
C235   C     0.39320   0.20251   0.63221   0.00000  Uiso   1.00
C236   C     0.70631   0.78626   0.70018   0.00000  Uiso   1.00
C237   C     0.74215   0.82491   0.74002   0.00000  Uiso   1.00
C238   C     0.86516   0.87749   0.74868   0.00000  Uiso   1.00
C239   C     0.05392   0.96843   0.77831   0.00000  Uiso   1.00
C240   C     0.57898   0.80443   0.64828   0.00000  Uiso   1.00
C241   C     0.50780   0.85839   0.64448   0.00000  Uiso   1.00
C242   C     0.52364   0.92629   0.60945   0.00000  Uiso   1.00
C243   C     0.51471   0.04544   0.55850   0.00000  Uiso   1.00
C244   C     0.73125   0.75109   0.62859   0.00000  Uiso   1.00
C245   C     0.63435   0.61885   0.63556   0.00000  Uiso   1.00
C246   C     0.62617   0.51934   0.61516   0.00000  Uiso   1.00
C247   C     0.53084   0.40581   0.62596   0.00000  Uiso   1.00
C248   C     0.79035   0.79967   0.67007   0.00000  Uiso   1.00
C249   C     0.91334   0.85222   0.67867   0.00000  Uiso   1.00
C250   C     0.94936   0.89092   0.71850   0.00000  Uiso   1.00
C251   C     0.66303   0.81784   0.61816   0.00000  Uiso   1.00
C252   C     0.67899   0.88569   0.58313   0.00000  Uiso   1.00
C253   C     0.60784   0.93973   0.57927   0.00000  Uiso   1.00
H254   H     0.51109   0.71597   0.70750   0.00000  Uiso   1.00
H255   H     0.38996   0.48170   0.69983   0.00000  Uiso   1.00
H256   H     0.67709   0.81453   0.76332   0.00000  Uiso   1.00
H257   H     0.44277   0.84799   0.66780   0.00000  Uiso   1.00
H258   H     0.29275   0.22787   0.67805   0.00000  Uiso   1.00
H259   H     0.89819   0.92970   0.81193   0.00000  Uiso   1.00
H260   H     0.40409   0.00027   0.61049   0.00000  Uiso   1.00
H261   H     0.79668   0.76153   0.60514   0.00000  Uiso   1.00
H262   H     0.69122   0.52975   0.59185   0.00000  Uiso   1.00
H263   H     0.97835   0.86258   0.65535   0.00000  Uiso   1.00
H264   H     0.74403   0.89604   0.55982   0.00000  Uiso   1.00
H265   H     0.53727   0.26687   0.59041   0.00000  Uiso   1.00
H266   H     0.14271   0.96871   0.72429   0.00000  Uiso   1.00
H267   H     0.64860   0.03927   0.52286   0.00000  Uiso   1.00
O268   O     0.34050   0.09407   0.62734   0.00000  Uiso   1.00
O269   O     0.13481   0.01487   0.80298   0.00000  Uiso   1.00
O270   O     0.48656   0.10744   0.53871   0.00000  Uiso   1.00
N271   N     0.36476   0.26886   0.65924   0.00000  Uiso   1.00
N272   N     0.93080   0.92501   0.78441   0.00000  Uiso   1.00
N273   N     0.46888   0.99101   0.59609   0.00000  Uiso   1.00
N274   N     0.49633   0.28984   0.61208   0.00000  Uiso   1.00
N275   N     0.06238   0.94600   0.73725   0.00000  Uiso   1.00
N276   N     0.60045   0.01200   0.54894   0.00000  Uiso   1.00
