data_job_04562
_audit_creation_date              2018-12-19
_audit_creation_method            'Materials Studio'
_symmetry_space_group_name_H-M    'P1'
_symmetry_Int_Tables_number       1
_symmetry_cell_setting            triclinic
loop_
_symmetry_equiv_pos_as_xyz
  x,y,z
_cell_length_a                    12.5228
_cell_length_b                    20.8328
_cell_length_c                    23.6479
_cell_angle_alpha                 90.0000
_cell_angle_beta                  90.0000
_cell_angle_gamma                 90.0000
loop_
_atom_site_label
_atom_site_type_symbol
_atom_site_fract_x
_atom_site_fract_y
_atom_site_fract_z
_atom_site_U_iso_or_equiv
_atom_site_adp_type
_atom_site_occupancy
C1     C     0.43387   0.79178   0.63690   0.00000  Uiso   1.00
C2     C     0.53983   0.81240   0.61082   0.00000  Uiso   1.00
C3     C     0.56345   0.87316   0.59027   0.00000  Uiso   1.00
C4     C     0.66491   0.88238   0.56804   0.00000  Uiso   1.00
C5     C     0.81799   0.92196   0.52775   0.00000  Uiso   1.00
C6     C     0.39586   0.73433   0.60238   0.00000  Uiso   1.00
C7     C     0.29842   0.72945   0.57475   0.00000  Uiso   1.00
C8     C     0.27869   0.67294   0.54543   0.00000  Uiso   1.00
C9     C     0.20822   0.59130   0.49208   0.00000  Uiso   1.00
C10    C     0.46064   0.76578   0.69549   0.00000  Uiso   1.00
C11    C     0.41766   0.78733   0.74614   0.00000  Uiso   1.00
C12    C     0.45245   0.75729   0.79521   0.00000  Uiso   1.00
C13    C     0.48257   0.72448   0.88642   0.00000  Uiso   1.00
C14    C     0.57207   0.70010   0.63397   0.00000  Uiso   1.00
C15    C     0.61488   0.76260   0.60922   0.00000  Uiso   1.00
C16    C     0.71634   0.77173   0.58702   0.00000  Uiso   1.00
C17    C     0.74011   0.83249   0.56644   0.00000  Uiso   1.00
C18    C     0.47091   0.68453   0.60079   0.00000  Uiso   1.00
C19    C     0.45132   0.62802   0.57150   0.00000  Uiso   1.00
C20    C     0.35388   0.62305   0.54383   0.00000  Uiso   1.00
C21    C     0.53570   0.71598   0.69389   0.00000  Uiso   1.00
C22    C     0.57056   0.68590   0.74289   0.00000  Uiso   1.00
C23    C     0.52764   0.70740   0.79361   0.00000  Uiso   1.00
H24    H     0.37543   0.83055   0.63814   0.00000  Uiso   1.00
H25    H     0.50533   0.91168   0.59150   0.00000  Uiso   1.00
H26    H     0.24035   0.76799   0.57599   0.00000  Uiso   1.00
H27    H     0.35957   0.82587   0.74735   0.00000  Uiso   1.00
H28    H     0.68244   0.97967   0.53907   0.00000  Uiso   1.00
H29    H     0.12369   0.67668   0.50639   0.00000  Uiso   1.00
H30    H     0.37509   0.79872   0.86774   0.00000  Uiso   1.00
H31    H     0.63051   0.66133   0.63273   0.00000  Uiso   1.00
H32    H     0.77441   0.73318   0.58579   0.00000  Uiso   1.00
H33    H     0.50942   0.58949   0.57028   0.00000  Uiso   1.00
H34    H     0.62865   0.64736   0.74164   0.00000  Uiso   1.00
H35    H     0.90083   0.83479   0.53444   0.00000  Uiso   1.00
H36    H     0.34207   0.53180   0.50175   0.00000  Uiso   1.00
H37    H     0.59348   0.65384   0.86310   0.00000  Uiso   1.00
O38    O     0.88168   0.95755   0.50596   0.00000  Uiso   1.00
O39    O     0.14861   0.56003   0.46309   0.00000  Uiso   1.00
O40    O     0.47845   0.72014   0.93717   0.00000  Uiso   1.00
N41    N     0.71410   0.93572   0.54443   0.00000  Uiso   1.00
N42    N     0.19170   0.65244   0.51387   0.00000  Uiso   1.00
N43    N     0.42672   0.76653   0.85170   0.00000  Uiso   1.00
N44    N     0.83161   0.85776   0.54194   0.00000  Uiso   1.00
N45    N     0.30922   0.57449   0.51137   0.00000  Uiso   1.00
N46    N     0.54424   0.68857   0.84921   0.00000  Uiso   1.00
C47    C     0.57194   0.79987   0.36654   0.00000  Uiso   1.00
C48    C     0.47081   0.81547   0.39973   0.00000  Uiso   1.00
C49    C     0.45127   0.87199   0.42901   0.00000  Uiso   1.00
C50    C     0.35386   0.87698   0.45670   0.00000  Uiso   1.00
C51    C     0.20827   0.90876   0.50850   0.00000  Uiso   1.00
C52    C     0.61473   0.73737   0.39129   0.00000  Uiso   1.00
C53    C     0.71620   0.72822   0.41347   0.00000  Uiso   1.00
C54    C     0.73995   0.66746   0.43406   0.00000  Uiso   1.00
C55    C     0.81784   0.57797   0.47272   0.00000  Uiso   1.00
C56    C     0.53554   0.78396   0.30662   0.00000  Uiso   1.00
C57    C     0.57045   0.81399   0.25760   0.00000  Uiso   1.00
C58    C     0.52755   0.79245   0.20690   0.00000  Uiso   1.00
C59    C     0.48248   0.77531   0.11409   0.00000  Uiso   1.00
C60    C     0.43369   0.70821   0.36365   0.00000  Uiso   1.00
C61    C     0.39572   0.76568   0.39816   0.00000  Uiso   1.00
C62    C     0.29831   0.77059   0.42581   0.00000  Uiso   1.00
C63    C     0.27863   0.82711   0.45513   0.00000  Uiso   1.00
C64    C     0.53964   0.68758   0.38973   0.00000  Uiso   1.00
C65    C     0.56325   0.62682   0.41028   0.00000  Uiso   1.00
C66    C     0.66473   0.61759   0.43249   0.00000  Uiso   1.00
C67    C     0.46045   0.73418   0.30505   0.00000  Uiso   1.00
C68    C     0.41749   0.71258   0.25441   0.00000  Uiso   1.00
C69    C     0.45233   0.74257   0.20533   0.00000  Uiso   1.00
H70    H     0.63040   0.83862   0.36776   0.00000  Uiso   1.00
H71    H     0.50940   0.91050   0.43021   0.00000  Uiso   1.00
H72    H     0.77430   0.76676   0.41468   0.00000  Uiso   1.00
H73    H     0.62856   0.85251   0.25883   0.00000  Uiso   1.00
H74    H     0.34215   0.96823   0.49878   0.00000  Uiso   1.00
H75    H     0.90071   0.66513   0.46600   0.00000  Uiso   1.00
H76    H     0.59341   0.84595   0.13737   0.00000  Uiso   1.00
H77    H     0.37523   0.66945   0.36243   0.00000  Uiso   1.00
H78    H     0.24022   0.73205   0.42459   0.00000  Uiso   1.00
H79    H     0.50512   0.58830   0.40906   0.00000  Uiso   1.00
H80    H     0.35939   0.67406   0.25321   0.00000  Uiso   1.00
H81    H     0.12368   0.82339   0.49422   0.00000  Uiso   1.00
H82    H     0.68224   0.52029   0.46144   0.00000  Uiso   1.00
H83    H     0.37493   0.70111   0.13281   0.00000  Uiso   1.00
O84    O     0.14872   0.94003   0.53751   0.00000  Uiso   1.00
O85    O     0.88154   0.54237   0.49449   0.00000  Uiso   1.00
O86    O     0.47836   0.77961   0.06334   0.00000  Uiso   1.00
N87    N     0.30925   0.92556   0.48917   0.00000  Uiso   1.00
N88    N     0.83147   0.64218   0.45853   0.00000  Uiso   1.00
N89    N     0.54419   0.81122   0.15129   0.00000  Uiso   1.00
N90    N     0.19169   0.84762   0.48671   0.00000  Uiso   1.00
N91    N     0.71391   0.56424   0.45608   0.00000  Uiso   1.00
N92    N     0.42663   0.73329   0.14883   0.00000  Uiso   1.00
C93    C     0.56613   0.20822   0.13690   0.00000  Uiso   1.00
C94    C     0.46017   0.18760   0.11082   0.00000  Uiso   1.00
C95    C     0.43655   0.12684   0.09027   0.00000  Uiso   1.00
C96    C     0.33509   0.11762   0.06804   0.00000  Uiso   1.00
C97    C     0.18201   0.07804   0.02775   0.00000  Uiso   1.00
C98    C     0.60414   0.26567   0.10238   0.00000  Uiso   1.00
C99    C     0.70158   0.27055   0.07475   0.00000  Uiso   1.00
C100   C     0.72131   0.32706   0.04543   0.00000  Uiso   1.00
C101   C     0.79178   0.40870   0.99208   0.00000  Uiso   1.00
C102   C     0.53936   0.23422   0.19549   0.00000  Uiso   1.00
C103   C     0.58234   0.21267   0.24614   0.00000  Uiso   1.00
C104   C     0.54755   0.24271   0.29521   0.00000  Uiso   1.00
C105   C     0.51743   0.27552   0.38642   0.00000  Uiso   1.00
C106   C     0.42793   0.29990   0.13397   0.00000  Uiso   1.00
C107   C     0.38512   0.23740   0.10922   0.00000  Uiso   1.00
C108   C     0.28366   0.22827   0.08702   0.00000  Uiso   1.00
C109   C     0.25989   0.16751   0.06644   0.00000  Uiso   1.00
C110   C     0.52909   0.31547   0.10079   0.00000  Uiso   1.00
C111   C     0.54868   0.37198   0.07150   0.00000  Uiso   1.00
C112   C     0.64612   0.37695   0.04383   0.00000  Uiso   1.00
C113   C     0.46430   0.28402   0.19389   0.00000  Uiso   1.00
C114   C     0.42944   0.31410   0.24289   0.00000  Uiso   1.00
C115   C     0.47236   0.29260   0.29361   0.00000  Uiso   1.00
H116   H     0.62457   0.16945   0.13814   0.00000  Uiso   1.00
H117   H     0.49467   0.08832   0.09150   0.00000  Uiso   1.00
H118   H     0.75965   0.23201   0.07599   0.00000  Uiso   1.00
H119   H     0.64043   0.17413   0.24735   0.00000  Uiso   1.00
H120   H     0.31756   0.02033   0.03907   0.00000  Uiso   1.00
H121   H     0.87631   0.32332   0.00639   0.00000  Uiso   1.00
H122   H     0.62491   0.20128   0.36774   0.00000  Uiso   1.00
H123   H     0.36949   0.33867   0.13273   0.00000  Uiso   1.00
H124   H     0.22559   0.26682   0.08579   0.00000  Uiso   1.00
H125   H     0.49058   0.41051   0.07028   0.00000  Uiso   1.00
H126   H     0.37135   0.35264   0.24164   0.00000  Uiso   1.00
H127   H     0.09917   0.16521   0.03444   0.00000  Uiso   1.00
H128   H     0.65793   0.46820   0.00175   0.00000  Uiso   1.00
H129   H     0.40652   0.34616   0.36310   0.00000  Uiso   1.00
O130   O     0.11832   0.04245   0.00596   0.00000  Uiso   1.00
O131   O     0.85139   0.43997   0.96309   0.00000  Uiso   1.00
O132   O     0.52155   0.27986   0.43717   0.00000  Uiso   1.00
N133   N     0.28590   0.06428   0.04443   0.00000  Uiso   1.00
N134   N     0.80830   0.34756   0.01387   0.00000  Uiso   1.00
N135   N     0.57328   0.23347   0.35170   0.00000  Uiso   1.00
N136   N     0.16839   0.14224   0.04194   0.00000  Uiso   1.00
N137   N     0.69078   0.42551   0.01137   0.00000  Uiso   1.00
N138   N     0.45576   0.31143   0.34921   0.00000  Uiso   1.00
C139   C     0.42806   0.20013   0.86654   0.00000  Uiso   1.00
C140   C     0.52919   0.18453   0.89973   0.00000  Uiso   1.00
C141   C     0.54873   0.12801   0.92901   0.00000  Uiso   1.00
C142   C     0.64614   0.12302   0.95670   0.00000  Uiso   1.00
C143   C     0.79173   0.09124   0.00850   0.00000  Uiso   1.00
C144   C     0.38527   0.26263   0.89129   0.00000  Uiso   1.00
C145   C     0.28380   0.27178   0.91347   0.00000  Uiso   1.00
C146   C     0.26005   0.33254   0.93406   0.00000  Uiso   1.00
C147   C     0.18216   0.42203   0.97272   0.00000  Uiso   1.00
C148   C     0.46446   0.21604   0.80662   0.00000  Uiso   1.00
C149   C     0.42955   0.18601   0.75760   0.00000  Uiso   1.00
C150   C     0.47245   0.20755   0.70690   0.00000  Uiso   1.00
C151   C     0.51752   0.22469   0.61409   0.00000  Uiso   1.00
C152   C     0.56631   0.29179   0.86365   0.00000  Uiso   1.00
C153   C     0.60428   0.23432   0.89816   0.00000  Uiso   1.00
C154   C     0.70169   0.22941   0.92581   0.00000  Uiso   1.00
C155   C     0.72137   0.17289   0.95513   0.00000  Uiso   1.00
C156   C     0.46036   0.31242   0.88973   0.00000  Uiso   1.00
C157   C     0.43675   0.37318   0.91028   0.00000  Uiso   1.00
C158   C     0.33527   0.38241   0.93249   0.00000  Uiso   1.00
C159   C     0.53955   0.26582   0.80505   0.00000  Uiso   1.00
C160   C     0.58251   0.28742   0.75441   0.00000  Uiso   1.00
C161   C     0.54767   0.25743   0.70533   0.00000  Uiso   1.00
H162   H     0.36960   0.16138   0.86776   0.00000  Uiso   1.00
H163   H     0.49060   0.08950   0.93021   0.00000  Uiso   1.00
H164   H     0.22570   0.23324   0.91468   0.00000  Uiso   1.00
H165   H     0.37144   0.14749   0.75883   0.00000  Uiso   1.00
H166   H     0.65785   0.03177   0.99878   0.00000  Uiso   1.00
H167   H     0.09929   0.33487   0.96600   0.00000  Uiso   1.00
H168   H     0.40659   0.15405   0.63737   0.00000  Uiso   1.00
H169   H     0.62477   0.33055   0.86243   0.00000  Uiso   1.00
H170   H     0.75978   0.26795   0.92459   0.00000  Uiso   1.00
H171   H     0.49488   0.41170   0.90906   0.00000  Uiso   1.00
H172   H     0.64061   0.32594   0.75321   0.00000  Uiso   1.00
H173   H     0.87632   0.17661   0.99422   0.00000  Uiso   1.00
H174   H     0.31776   0.47971   0.96144   0.00000  Uiso   1.00
H175   H     0.62507   0.29889   0.63281   0.00000  Uiso   1.00
O176   O     0.85128   0.05997   0.03751   0.00000  Uiso   1.00
O177   O     0.11846   0.45763   0.99449   0.00000  Uiso   1.00
O178   O     0.52164   0.22039   0.56334   0.00000  Uiso   1.00
N179   N     0.69075   0.07444   0.98917   0.00000  Uiso   1.00
N180   N     0.16853   0.35782   0.95853   0.00000  Uiso   1.00
N181   N     0.45581   0.18878   0.65129   0.00000  Uiso   1.00
N182   N     0.80831   0.15238   0.98671   0.00000  Uiso   1.00
N183   N     0.28609   0.43576   0.95608   0.00000  Uiso   1.00
N184   N     0.57337   0.26671   0.64883   0.00000  Uiso   1.00
C185   C     0.93387   0.20822   0.63690   0.00000  Uiso   1.00
C186   C     0.03983   0.18760   0.61082   0.00000  Uiso   1.00
C187   C     0.06345   0.12684   0.59027   0.00000  Uiso   1.00
C188   C     0.16491   0.11762   0.56804   0.00000  Uiso   1.00
C189   C     0.31799   0.07804   0.52775   0.00000  Uiso   1.00
C190   C     0.89586   0.26567   0.60238   0.00000  Uiso   1.00
C191   C     0.79842   0.27055   0.57475   0.00000  Uiso   1.00
C192   C     0.77869   0.32706   0.54543   0.00000  Uiso   1.00
C193   C     0.70822   0.40870   0.49208   0.00000  Uiso   1.00
C194   C     0.96064   0.23422   0.69549   0.00000  Uiso   1.00
C195   C     0.91766   0.21267   0.74614   0.00000  Uiso   1.00
C196   C     0.95245   0.24271   0.79521   0.00000  Uiso   1.00
C197   C     0.98257   0.27552   0.88642   0.00000  Uiso   1.00
C198   C     0.07207   0.29990   0.63397   0.00000  Uiso   1.00
C199   C     0.11488   0.23740   0.60922   0.00000  Uiso   1.00
C200   C     0.21634   0.22827   0.58702   0.00000  Uiso   1.00
C201   C     0.24011   0.16751   0.56644   0.00000  Uiso   1.00
C202   C     0.97091   0.31547   0.60079   0.00000  Uiso   1.00
C203   C     0.95132   0.37198   0.57150   0.00000  Uiso   1.00
C204   C     0.85388   0.37695   0.54383   0.00000  Uiso   1.00
C205   C     0.03570   0.28402   0.69389   0.00000  Uiso   1.00
C206   C     0.07056   0.31410   0.74289   0.00000  Uiso   1.00
C207   C     0.02764   0.29260   0.79361   0.00000  Uiso   1.00
H208   H     0.87543   0.16945   0.63814   0.00000  Uiso   1.00
H209   H     0.00533   0.08832   0.59150   0.00000  Uiso   1.00
H210   H     0.74035   0.23201   0.57599   0.00000  Uiso   1.00
H211   H     0.85957   0.17413   0.74735   0.00000  Uiso   1.00
H212   H     0.18244   0.02033   0.53907   0.00000  Uiso   1.00
H213   H     0.62369   0.32332   0.50639   0.00000  Uiso   1.00
H214   H     0.87509   0.20128   0.86774   0.00000  Uiso   1.00
H215   H     0.13051   0.33867   0.63273   0.00000  Uiso   1.00
H216   H     0.27441   0.26682   0.58579   0.00000  Uiso   1.00
H217   H     0.00942   0.41051   0.57028   0.00000  Uiso   1.00
H218   H     0.12865   0.35264   0.74164   0.00000  Uiso   1.00
H219   H     0.40083   0.16521   0.53444   0.00000  Uiso   1.00
H220   H     0.84207   0.46820   0.50175   0.00000  Uiso   1.00
H221   H     0.09348   0.34616   0.86310   0.00000  Uiso   1.00
O222   O     0.38168   0.04245   0.50596   0.00000  Uiso   1.00
O223   O     0.64861   0.43997   0.46309   0.00000  Uiso   1.00
O224   O     0.97845   0.27986   0.93717   0.00000  Uiso   1.00
N225   N     0.21410   0.06428   0.54443   0.00000  Uiso   1.00
N226   N     0.69170   0.34756   0.51387   0.00000  Uiso   1.00
N227   N     0.92672   0.23347   0.85170   0.00000  Uiso   1.00
N228   N     0.33161   0.14224   0.54194   0.00000  Uiso   1.00
N229   N     0.80922   0.42551   0.51137   0.00000  Uiso   1.00
N230   N     0.04424   0.31143   0.84921   0.00000  Uiso   1.00
C231   C     0.07194   0.20013   0.36654   0.00000  Uiso   1.00
C232   C     0.97081   0.18453   0.39973   0.00000  Uiso   1.00
C233   C     0.95127   0.12801   0.42901   0.00000  Uiso   1.00
C234   C     0.85386   0.12302   0.45670   0.00000  Uiso   1.00
C235   C     0.70827   0.09124   0.50850   0.00000  Uiso   1.00
C236   C     0.11473   0.26263   0.39129   0.00000  Uiso   1.00
C237   C     0.21620   0.27178   0.41347   0.00000  Uiso   1.00
C238   C     0.23995   0.33254   0.43406   0.00000  Uiso   1.00
C239   C     0.31784   0.42203   0.47272   0.00000  Uiso   1.00
C240   C     0.03554   0.21604   0.30662   0.00000  Uiso   1.00
C241   C     0.07045   0.18601   0.25760   0.00000  Uiso   1.00
C242   C     0.02755   0.20755   0.20690   0.00000  Uiso   1.00
C243   C     0.98248   0.22469   0.11409   0.00000  Uiso   1.00
C244   C     0.93369   0.29179   0.36365   0.00000  Uiso   1.00
C245   C     0.89572   0.23432   0.39816   0.00000  Uiso   1.00
C246   C     0.79831   0.22941   0.42581   0.00000  Uiso   1.00
C247   C     0.77863   0.17289   0.45513   0.00000  Uiso   1.00
C248   C     0.03964   0.31242   0.38973   0.00000  Uiso   1.00
C249   C     0.06325   0.37318   0.41028   0.00000  Uiso   1.00
C250   C     0.16473   0.38241   0.43249   0.00000  Uiso   1.00
C251   C     0.96045   0.26582   0.30505   0.00000  Uiso   1.00
C252   C     0.91749   0.28742   0.25441   0.00000  Uiso   1.00
C253   C     0.95233   0.25743   0.20533   0.00000  Uiso   1.00
H254   H     0.13040   0.16138   0.36776   0.00000  Uiso   1.00
H255   H     0.00940   0.08950   0.43021   0.00000  Uiso   1.00
H256   H     0.27430   0.23324   0.41468   0.00000  Uiso   1.00
H257   H     0.12856   0.14749   0.25883   0.00000  Uiso   1.00
H258   H     0.84215   0.03177   0.49878   0.00000  Uiso   1.00
H259   H     0.40071   0.33487   0.46600   0.00000  Uiso   1.00
H260   H     0.09341   0.15405   0.13737   0.00000  Uiso   1.00
H261   H     0.87523   0.33055   0.36243   0.00000  Uiso   1.00
H262   H     0.74022   0.26795   0.42459   0.00000  Uiso   1.00
H263   H     0.00512   0.41170   0.40906   0.00000  Uiso   1.00
H264   H     0.85939   0.32594   0.25321   0.00000  Uiso   1.00
H265   H     0.62368   0.17661   0.49422   0.00000  Uiso   1.00
H266   H     0.18224   0.47971   0.46144   0.00000  Uiso   1.00
H267   H     0.87493   0.29889   0.13281   0.00000  Uiso   1.00
O268   O     0.64872   0.05997   0.53751   0.00000  Uiso   1.00
O269   O     0.38154   0.45763   0.49449   0.00000  Uiso   1.00
O270   O     0.97836   0.22039   0.06334   0.00000  Uiso   1.00
N271   N     0.80925   0.07444   0.48917   0.00000  Uiso   1.00
N272   N     0.33147   0.35782   0.45853   0.00000  Uiso   1.00
N273   N     0.04419   0.18878   0.15129   0.00000  Uiso   1.00
N274   N     0.69169   0.15238   0.48671   0.00000  Uiso   1.00
N275   N     0.21391   0.43576   0.45608   0.00000  Uiso   1.00
N276   N     0.92663   0.26671   0.14883   0.00000  Uiso   1.00
C277   C     0.06613   0.79178   0.13690   0.00000  Uiso   1.00
C278   C     0.96017   0.81240   0.11082   0.00000  Uiso   1.00
C279   C     0.93655   0.87316   0.09027   0.00000  Uiso   1.00
C280   C     0.83509   0.88238   0.06804   0.00000  Uiso   1.00
C281   C     0.68201   0.92196   0.02775   0.00000  Uiso   1.00
C282   C     0.10414   0.73433   0.10238   0.00000  Uiso   1.00
C283   C     0.20158   0.72945   0.07475   0.00000  Uiso   1.00
C284   C     0.22131   0.67294   0.04543   0.00000  Uiso   1.00
C285   C     0.29178   0.59130   0.99208   0.00000  Uiso   1.00
C286   C     0.03936   0.76578   0.19549   0.00000  Uiso   1.00
C287   C     0.08234   0.78733   0.24614   0.00000  Uiso   1.00
C288   C     0.04755   0.75729   0.29521   0.00000  Uiso   1.00
C289   C     0.01743   0.72448   0.38642   0.00000  Uiso   1.00
C290   C     0.92793   0.70010   0.13397   0.00000  Uiso   1.00
C291   C     0.88512   0.76260   0.10922   0.00000  Uiso   1.00
C292   C     0.78366   0.77173   0.08702   0.00000  Uiso   1.00
C293   C     0.75989   0.83249   0.06644   0.00000  Uiso   1.00
C294   C     0.02909   0.68453   0.10079   0.00000  Uiso   1.00
C295   C     0.04868   0.62802   0.07150   0.00000  Uiso   1.00
C296   C     0.14612   0.62305   0.04383   0.00000  Uiso   1.00
C297   C     0.96430   0.71598   0.19389   0.00000  Uiso   1.00
C298   C     0.92944   0.68590   0.24289   0.00000  Uiso   1.00
C299   C     0.97236   0.70740   0.29361   0.00000  Uiso   1.00
H300   H     0.12457   0.83055   0.13814   0.00000  Uiso   1.00
H301   H     0.99467   0.91168   0.09150   0.00000  Uiso   1.00
H302   H     0.25965   0.76799   0.07599   0.00000  Uiso   1.00
H303   H     0.14043   0.82587   0.24735   0.00000  Uiso   1.00
H304   H     0.81756   0.97967   0.03907   0.00000  Uiso   1.00
H305   H     0.37631   0.67668   0.00639   0.00000  Uiso   1.00
H306   H     0.12491   0.79872   0.36774   0.00000  Uiso   1.00
H307   H     0.86949   0.66133   0.13273   0.00000  Uiso   1.00
H308   H     0.72559   0.73318   0.08579   0.00000  Uiso   1.00
H309   H     0.99058   0.58949   0.07028   0.00000  Uiso   1.00
H310   H     0.87135   0.64736   0.24164   0.00000  Uiso   1.00
H311   H     0.59917   0.83479   0.03444   0.00000  Uiso   1.00
H312   H     0.15793   0.53180   0.00175   0.00000  Uiso   1.00
H313   H     0.90652   0.65384   0.36310   0.00000  Uiso   1.00
O314   O     0.61832   0.95755   0.00596   0.00000  Uiso   1.00
O315   O     0.35139   0.56003   0.96309   0.00000  Uiso   1.00
O316   O     0.02155   0.72014   0.43717   0.00000  Uiso   1.00
N317   N     0.78590   0.93572   0.04443   0.00000  Uiso   1.00
N318   N     0.30830   0.65244   0.01387   0.00000  Uiso   1.00
N319   N     0.07328   0.76653   0.35170   0.00000  Uiso   1.00
N320   N     0.66839   0.85776   0.04194   0.00000  Uiso   1.00
N321   N     0.19078   0.57449   0.01137   0.00000  Uiso   1.00
N322   N     0.95576   0.68857   0.34921   0.00000  Uiso   1.00
C323   C     0.92806   0.79987   0.86654   0.00000  Uiso   1.00
C324   C     0.02919   0.81547   0.89973   0.00000  Uiso   1.00
C325   C     0.04873   0.87199   0.92901   0.00000  Uiso   1.00
C326   C     0.14614   0.87698   0.95670   0.00000  Uiso   1.00
C327   C     0.29173   0.90876   0.00850   0.00000  Uiso   1.00
C328   C     0.88527   0.73737   0.89129   0.00000  Uiso   1.00
C329   C     0.78380   0.72822   0.91347   0.00000  Uiso   1.00
C330   C     0.76005   0.66746   0.93406   0.00000  Uiso   1.00
C331   C     0.68216   0.57797   0.97272   0.00000  Uiso   1.00
C332   C     0.96446   0.78396   0.80662   0.00000  Uiso   1.00
C333   C     0.92955   0.81399   0.75760   0.00000  Uiso   1.00
C334   C     0.97245   0.79245   0.70690   0.00000  Uiso   1.00
C335   C     0.01752   0.77531   0.61409   0.00000  Uiso   1.00
C336   C     0.06631   0.70821   0.86365   0.00000  Uiso   1.00
C337   C     0.10428   0.76568   0.89816   0.00000  Uiso   1.00
C338   C     0.20169   0.77059   0.92581   0.00000  Uiso   1.00
C339   C     0.22137   0.82711   0.95513   0.00000  Uiso   1.00
C340   C     0.96036   0.68758   0.88973   0.00000  Uiso   1.00
C341   C     0.93675   0.62682   0.91028   0.00000  Uiso   1.00
C342   C     0.83527   0.61759   0.93249   0.00000  Uiso   1.00
C343   C     0.03955   0.73418   0.80505   0.00000  Uiso   1.00
C344   C     0.08251   0.71258   0.75441   0.00000  Uiso   1.00
C345   C     0.04767   0.74257   0.70533   0.00000  Uiso   1.00
H346   H     0.86960   0.83862   0.86776   0.00000  Uiso   1.00
H347   H     0.99060   0.91050   0.93021   0.00000  Uiso   1.00
H348   H     0.72570   0.76676   0.91468   0.00000  Uiso   1.00
H349   H     0.87144   0.85251   0.75883   0.00000  Uiso   1.00
H350   H     0.15785   0.96823   0.99878   0.00000  Uiso   1.00
H351   H     0.59929   0.66513   0.96600   0.00000  Uiso   1.00
H352   H     0.90659   0.84595   0.63737   0.00000  Uiso   1.00
H353   H     0.12477   0.66945   0.86243   0.00000  Uiso   1.00
H354   H     0.25978   0.73205   0.92459   0.00000  Uiso   1.00
H355   H     0.99488   0.58830   0.90906   0.00000  Uiso   1.00
H356   H     0.14061   0.67406   0.75321   0.00000  Uiso   1.00
H357   H     0.37632   0.82339   0.99422   0.00000  Uiso   1.00
H358   H     0.81776   0.52029   0.96144   0.00000  Uiso   1.00
H359   H     0.12507   0.70111   0.63281   0.00000  Uiso   1.00
O360   O     0.35128   0.94003   0.03751   0.00000  Uiso   1.00
O361   O     0.61846   0.54237   0.99449   0.00000  Uiso   1.00
O362   O     0.02164   0.77961   0.56334   0.00000  Uiso   1.00
N363   N     0.19075   0.92556   0.98917   0.00000  Uiso   1.00
N364   N     0.66853   0.64218   0.95853   0.00000  Uiso   1.00
N365   N     0.95581   0.81122   0.65129   0.00000  Uiso   1.00
N366   N     0.30831   0.84762   0.98671   0.00000  Uiso   1.00
N367   N     0.78609   0.56424   0.95608   0.00000  Uiso   1.00
N368   N     0.07337   0.73329   0.64883   0.00000  Uiso   1.00
