data_job_02549
_audit_creation_date              2018-12-19
_audit_creation_method            'Materials Studio'
_symmetry_space_group_name_H-M    'P1'
_symmetry_Int_Tables_number       1
_symmetry_cell_setting            triclinic
loop_
_symmetry_equiv_pos_as_xyz
  x,y,z
_cell_length_a                    22.2994
_cell_length_b                    22.2994
_cell_length_c                    10.3022
_cell_angle_alpha                 90.0000
_cell_angle_beta                  90.0000
_cell_angle_gamma                 120.0000
loop_
_atom_site_label
_atom_site_type_symbol
_atom_site_fract_x
_atom_site_fract_y
_atom_site_fract_z
_atom_site_U_iso_or_equiv
_atom_site_adp_type
_atom_site_occupancy
C1     C     0.12507   0.37251   0.00454   0.00000  Uiso   1.00
C2     C     0.14147   0.42475   0.11354   0.00000  Uiso   1.00
C3     C     0.13665   0.41044   0.24545   0.00000  Uiso   1.00
C4     C     0.15394   0.46533   0.32966   0.00000  Uiso   1.00
C5     C     0.17613   0.53628   0.50592   0.00000  Uiso   1.00
C6     C     0.07038   0.37555   0.92043   0.00000  Uiso   1.00
C7     C     0.00579   0.31987   0.88997   0.00000  Uiso   1.00
C8     C     0.96324   0.33335   0.81160   0.00000  Uiso   1.00
C9     C     0.87508   0.32790   0.68798   0.00000  Uiso   1.00
C10    C     0.19026   0.40147   0.92140   0.00000  Uiso   1.00
C11    C     0.22646   0.36759   0.89171   0.00000  Uiso   1.00
C12    C     0.28483   0.40288   0.81414   0.00000  Uiso   1.00
C13    C     0.38280   0.43769   0.69202   0.00000  Uiso   1.00
C14    C     0.16434   0.49543   0.91952   0.00000  Uiso   1.00
C15    C     0.16280   0.49151   0.06735   0.00000  Uiso   1.00
C16    C     0.18010   0.54644   0.15138   0.00000  Uiso   1.00
C17    C     0.17531   0.53222   0.28340   0.00000  Uiso   1.00
C18    C     0.09171   0.44231   0.87425   0.00000  Uiso   1.00
C19    C     0.04924   0.45587   0.79590   0.00000  Uiso   1.00
C20    C     0.98460   0.40023   0.76533   0.00000  Uiso   1.00
C21    C     0.21159   0.46824   0.87521   0.00000  Uiso   1.00
C22    C     0.26991   0.50359   0.79765   0.00000  Uiso   1.00
C23    C     0.30619   0.46977   0.76787   0.00000  Uiso   1.00
H24    H     0.10846   0.32053   0.04049   0.00000  Uiso   1.00
H25    H     0.12014   0.35876   0.28115   0.00000  Uiso   1.00
H26    H     0.98930   0.26821   0.92571   0.00000  Uiso   1.00
H27    H     0.20994   0.31592   0.92747   0.00000  Uiso   1.00
H28    H     0.14247   0.43059   0.52760   0.00000  Uiso   1.00
H29    H     0.86660   0.23965   0.77810   0.00000  Uiso   1.00
H30    H     0.33186   0.34025   0.78180   0.00000  Uiso   1.00
H31    H     0.18095   0.54742   0.88356   0.00000  Uiso   1.00
H32    H     0.19661   0.59811   0.11561   0.00000  Uiso   1.00
H33    H     0.06577   0.50755   0.76017   0.00000  Uiso   1.00
H34    H     0.28640   0.55526   0.76193   0.00000  Uiso   1.00
H35    H     0.20453   0.62485   0.39324   0.00000  Uiso   1.00
H36    H     0.92866   0.43390   0.64374   0.00000  Uiso   1.00
H37    H     0.39392   0.53452   0.64745   0.00000  Uiso   1.00
O38    O     0.18247   0.55696   0.61590   0.00000  Uiso   1.00
O39    O     0.82055   0.30645   0.63257   0.00000  Uiso   1.00
O40    O     0.43095   0.43845   0.63744   0.00000  Uiso   1.00
N41    N     0.15494   0.46935   0.46413   0.00000  Uiso   1.00
N42    N     0.89702   0.29084   0.76341   0.00000  Uiso   1.00
N43    N     0.33198   0.38489   0.76685   0.00000  Uiso   1.00
N44    N     0.18834   0.57388   0.39184   0.00000  Uiso   1.00
N45    N     0.93041   0.39537   0.69112   0.00000  Uiso   1.00
N46    N     0.36537   0.48942   0.69455   0.00000  Uiso   1.00
C47    C     0.62749   0.75256   0.00454   0.00000  Uiso   1.00
C48    C     0.57525   0.71673   0.11354   0.00000  Uiso   1.00
C49    C     0.58956   0.72622   0.24545   0.00000  Uiso   1.00
C50    C     0.53467   0.68861   0.32966   0.00000  Uiso   1.00
C51    C     0.46372   0.63986   0.50592   0.00000  Uiso   1.00
C52    C     0.62445   0.69483   0.92043   0.00000  Uiso   1.00
C53    C     0.68013   0.68592   0.88997   0.00000  Uiso   1.00
C54    C     0.66665   0.62989   0.81160   0.00000  Uiso   1.00
C55    C     0.67210   0.54718   0.68798   0.00000  Uiso   1.00
C56    C     0.59853   0.78879   0.92140   0.00000  Uiso   1.00
C57    C     0.63241   0.85887   0.89171   0.00000  Uiso   1.00
C58    C     0.59712   0.88194   0.81414   0.00000  Uiso   1.00
C59    C     0.56231   0.94511   0.69202   0.00000  Uiso   1.00
C60    C     0.50457   0.66891   0.91952   0.00000  Uiso   1.00
C61    C     0.50849   0.67129   0.06735   0.00000  Uiso   1.00
C62    C     0.45356   0.63366   0.15138   0.00000  Uiso   1.00
C63    C     0.46778   0.64309   0.28340   0.00000  Uiso   1.00
C64    C     0.55769   0.64939   0.87425   0.00000  Uiso   1.00
C65    C     0.54413   0.59337   0.79590   0.00000  Uiso   1.00
C66    C     0.59977   0.58437   0.76533   0.00000  Uiso   1.00
C67    C     0.53176   0.74335   0.87521   0.00000  Uiso   1.00
C68    C     0.49641   0.76632   0.79765   0.00000  Uiso   1.00
C69    C     0.53023   0.83642   0.76787   0.00000  Uiso   1.00
H70    H     0.67947   0.78793   0.04049   0.00000  Uiso   1.00
H71    H     0.64124   0.76138   0.28115   0.00000  Uiso   1.00
H72    H     0.73179   0.72110   0.92571   0.00000  Uiso   1.00
H73    H     0.68408   0.89402   0.92747   0.00000  Uiso   1.00
H74    H     0.56941   0.71188   0.52760   0.00000  Uiso   1.00
H75    H     0.76035   0.62696   0.77810   0.00000  Uiso   1.00
H76    H     0.65975   0.99160   0.78180   0.00000  Uiso   1.00
H77    H     0.45258   0.63353   0.88356   0.00000  Uiso   1.00
H78    H     0.40189   0.59850   0.11561   0.00000  Uiso   1.00
H79    H     0.49245   0.55822   0.76017   0.00000  Uiso   1.00
H80    H     0.44474   0.73114   0.76193   0.00000  Uiso   1.00
H81    H     0.37515   0.57968   0.39324   0.00000  Uiso   1.00
H82    H     0.56610   0.49476   0.64374   0.00000  Uiso   1.00
H83    H     0.46548   0.85940   0.64745   0.00000  Uiso   1.00
O84    O     0.44304   0.62551   0.61590   0.00000  Uiso   1.00
O85    O     0.69355   0.51410   0.63257   0.00000  Uiso   1.00
O86    O     0.56155   0.99250   0.63744   0.00000  Uiso   1.00
N87    N     0.53065   0.68559   0.46413   0.00000  Uiso   1.00
N88    N     0.70916   0.60618   0.76341   0.00000  Uiso   1.00
N89    N     0.61511   0.94709   0.76685   0.00000  Uiso   1.00
N90    N     0.42612   0.61445   0.39184   0.00000  Uiso   1.00
N91    N     0.60463   0.53504   0.69112   0.00000  Uiso   1.00
N92    N     0.51058   0.87595   0.69455   0.00000  Uiso   1.00
C93    C     0.24744   0.87493   0.00454   0.00000  Uiso   1.00
C94    C     0.28327   0.85853   0.11354   0.00000  Uiso   1.00
C95    C     0.27378   0.86335   0.24545   0.00000  Uiso   1.00
C96    C     0.31139   0.84606   0.32966   0.00000  Uiso   1.00
C97    C     0.36014   0.82387   0.50592   0.00000  Uiso   1.00
C98    C     0.30517   0.92962   0.92043   0.00000  Uiso   1.00
C99    C     0.31408   0.99421   0.88997   0.00000  Uiso   1.00
C100   C     0.37011   0.03676   0.81160   0.00000  Uiso   1.00
C101   C     0.45282   0.12492   0.68798   0.00000  Uiso   1.00
C102   C     0.21121   0.80974   0.92140   0.00000  Uiso   1.00
C103   C     0.14113   0.77354   0.89171   0.00000  Uiso   1.00
C104   C     0.11806   0.71517   0.81414   0.00000  Uiso   1.00
C105   C     0.05489   0.61720   0.69202   0.00000  Uiso   1.00
C106   C     0.33109   0.83566   0.91952   0.00000  Uiso   1.00
C107   C     0.32871   0.83720   0.06735   0.00000  Uiso   1.00
C108   C     0.36634   0.81990   0.15138   0.00000  Uiso   1.00
C109   C     0.35691   0.82469   0.28340   0.00000  Uiso   1.00
C110   C     0.35061   0.90829   0.87425   0.00000  Uiso   1.00
C111   C     0.40663   0.95076   0.79590   0.00000  Uiso   1.00
C112   C     0.41563   0.01540   0.76533   0.00000  Uiso   1.00
C113   C     0.25665   0.78841   0.87521   0.00000  Uiso   1.00
C114   C     0.23368   0.73009   0.79765   0.00000  Uiso   1.00
C115   C     0.16358   0.69381   0.76787   0.00000  Uiso   1.00
H116   H     0.21207   0.89154   0.04049   0.00000  Uiso   1.00
H117   H     0.23862   0.87986   0.28115   0.00000  Uiso   1.00
H118   H     0.27890   0.01070   0.92571   0.00000  Uiso   1.00
H119   H     0.10598   0.79006   0.92747   0.00000  Uiso   1.00
H120   H     0.28812   0.85753   0.52760   0.00000  Uiso   1.00
H121   H     0.37304   0.13340   0.77810   0.00000  Uiso   1.00
H122   H     0.00840   0.66814   0.78180   0.00000  Uiso   1.00
H123   H     0.36647   0.81905   0.88356   0.00000  Uiso   1.00
H124   H     0.40150   0.80339   0.11561   0.00000  Uiso   1.00
H125   H     0.44178   0.93423   0.76017   0.00000  Uiso   1.00
H126   H     0.26886   0.71360   0.76193   0.00000  Uiso   1.00
H127   H     0.42032   0.79547   0.39324   0.00000  Uiso   1.00
H128   H     0.50524   0.07134   0.64374   0.00000  Uiso   1.00
H129   H     0.14060   0.60608   0.64745   0.00000  Uiso   1.00
O130   O     0.37449   0.81753   0.61590   0.00000  Uiso   1.00
O131   O     0.48590   0.17945   0.63257   0.00000  Uiso   1.00
O132   O     0.00750   0.56905   0.63744   0.00000  Uiso   1.00
N133   N     0.31441   0.84506   0.46413   0.00000  Uiso   1.00
N134   N     0.39382   0.10298   0.76341   0.00000  Uiso   1.00
N135   N     0.05291   0.66802   0.76685   0.00000  Uiso   1.00
N136   N     0.38555   0.81166   0.39184   0.00000  Uiso   1.00
N137   N     0.46496   0.06959   0.69112   0.00000  Uiso   1.00
N138   N     0.12405   0.63463   0.69455   0.00000  Uiso   1.00
C139   C     0.87493   0.62749   0.99546   0.00000  Uiso   1.00
C140   C     0.85853   0.57525   0.88646   0.00000  Uiso   1.00
C141   C     0.86335   0.58956   0.75455   0.00000  Uiso   1.00
C142   C     0.84606   0.53467   0.67034   0.00000  Uiso   1.00
C143   C     0.82387   0.46372   0.49408   0.00000  Uiso   1.00
C144   C     0.92962   0.62445   0.07957   0.00000  Uiso   1.00
C145   C     0.99421   0.68013   0.11003   0.00000  Uiso   1.00
C146   C     0.03676   0.66665   0.18840   0.00000  Uiso   1.00
C147   C     0.12492   0.67210   0.31202   0.00000  Uiso   1.00
C148   C     0.80974   0.59853   0.07860   0.00000  Uiso   1.00
C149   C     0.77354   0.63241   0.10829   0.00000  Uiso   1.00
C150   C     0.71517   0.59712   0.18586   0.00000  Uiso   1.00
C151   C     0.61720   0.56231   0.30798   0.00000  Uiso   1.00
C152   C     0.83566   0.50457   0.08048   0.00000  Uiso   1.00
C153   C     0.83720   0.50849   0.93265   0.00000  Uiso   1.00
C154   C     0.81990   0.45356   0.84862   0.00000  Uiso   1.00
C155   C     0.82469   0.46778   0.71660   0.00000  Uiso   1.00
C156   C     0.90829   0.55769   0.12575   0.00000  Uiso   1.00
C157   C     0.95076   0.54413   0.20410   0.00000  Uiso   1.00
C158   C     0.01540   0.59977   0.23467   0.00000  Uiso   1.00
C159   C     0.78841   0.53176   0.12479   0.00000  Uiso   1.00
C160   C     0.73009   0.49641   0.20235   0.00000  Uiso   1.00
C161   C     0.69381   0.53023   0.23213   0.00000  Uiso   1.00
H162   H     0.89154   0.67947   0.95951   0.00000  Uiso   1.00
H163   H     0.87986   0.64124   0.71885   0.00000  Uiso   1.00
H164   H     0.01070   0.73179   0.07429   0.00000  Uiso   1.00
H165   H     0.79006   0.68408   0.07253   0.00000  Uiso   1.00
H166   H     0.85753   0.56941   0.47240   0.00000  Uiso   1.00
H167   H     0.13340   0.76035   0.22190   0.00000  Uiso   1.00
H168   H     0.66814   0.65975   0.21820   0.00000  Uiso   1.00
H169   H     0.81905   0.45258   0.11644   0.00000  Uiso   1.00
H170   H     0.80339   0.40189   0.88439   0.00000  Uiso   1.00
H171   H     0.93423   0.49245   0.23983   0.00000  Uiso   1.00
H172   H     0.71360   0.44474   0.23807   0.00000  Uiso   1.00
H173   H     0.79547   0.37515   0.60676   0.00000  Uiso   1.00
H174   H     0.07134   0.56610   0.35626   0.00000  Uiso   1.00
H175   H     0.60608   0.46548   0.35255   0.00000  Uiso   1.00
O176   O     0.81753   0.44304   0.38410   0.00000  Uiso   1.00
O177   O     0.17945   0.69355   0.36743   0.00000  Uiso   1.00
O178   O     0.56905   0.56155   0.36256   0.00000  Uiso   1.00
N179   N     0.84506   0.53065   0.53587   0.00000  Uiso   1.00
N180   N     0.10298   0.70916   0.23659   0.00000  Uiso   1.00
N181   N     0.66802   0.61511   0.23315   0.00000  Uiso   1.00
N182   N     0.81166   0.42612   0.60816   0.00000  Uiso   1.00
N183   N     0.06959   0.60463   0.30888   0.00000  Uiso   1.00
N184   N     0.63463   0.51058   0.30545   0.00000  Uiso   1.00
C185   C     0.37251   0.24744   0.99546   0.00000  Uiso   1.00
C186   C     0.42475   0.28327   0.88646   0.00000  Uiso   1.00
C187   C     0.41044   0.27378   0.75455   0.00000  Uiso   1.00
C188   C     0.46533   0.31139   0.67034   0.00000  Uiso   1.00
C189   C     0.53628   0.36014   0.49408   0.00000  Uiso   1.00
C190   C     0.37555   0.30517   0.07957   0.00000  Uiso   1.00
C191   C     0.31987   0.31408   0.11003   0.00000  Uiso   1.00
C192   C     0.33335   0.37011   0.18840   0.00000  Uiso   1.00
C193   C     0.32790   0.45282   0.31202   0.00000  Uiso   1.00
C194   C     0.40147   0.21121   0.07860   0.00000  Uiso   1.00
C195   C     0.36759   0.14113   0.10829   0.00000  Uiso   1.00
C196   C     0.40288   0.11806   0.18586   0.00000  Uiso   1.00
C197   C     0.43769   0.05489   0.30798   0.00000  Uiso   1.00
C198   C     0.49543   0.33109   0.08048   0.00000  Uiso   1.00
C199   C     0.49151   0.32871   0.93265   0.00000  Uiso   1.00
C200   C     0.54644   0.36634   0.84862   0.00000  Uiso   1.00
C201   C     0.53222   0.35691   0.71660   0.00000  Uiso   1.00
C202   C     0.44231   0.35061   0.12575   0.00000  Uiso   1.00
C203   C     0.45587   0.40663   0.20410   0.00000  Uiso   1.00
C204   C     0.40023   0.41563   0.23467   0.00000  Uiso   1.00
C205   C     0.46824   0.25665   0.12479   0.00000  Uiso   1.00
C206   C     0.50359   0.23368   0.20235   0.00000  Uiso   1.00
C207   C     0.46977   0.16358   0.23213   0.00000  Uiso   1.00
H208   H     0.32053   0.21207   0.95951   0.00000  Uiso   1.00
H209   H     0.35876   0.23862   0.71885   0.00000  Uiso   1.00
H210   H     0.26821   0.27890   0.07429   0.00000  Uiso   1.00
H211   H     0.31592   0.10598   0.07253   0.00000  Uiso   1.00
H212   H     0.43059   0.28812   0.47240   0.00000  Uiso   1.00
H213   H     0.23965   0.37304   0.22190   0.00000  Uiso   1.00
H214   H     0.34025   0.00840   0.21820   0.00000  Uiso   1.00
H215   H     0.54742   0.36647   0.11644   0.00000  Uiso   1.00
H216   H     0.59811   0.40150   0.88439   0.00000  Uiso   1.00
H217   H     0.50755   0.44178   0.23983   0.00000  Uiso   1.00
H218   H     0.55526   0.26886   0.23807   0.00000  Uiso   1.00
H219   H     0.62485   0.42032   0.60676   0.00000  Uiso   1.00
H220   H     0.43390   0.50524   0.35626   0.00000  Uiso   1.00
H221   H     0.53452   0.14060   0.35255   0.00000  Uiso   1.00
O222   O     0.55696   0.37449   0.38410   0.00000  Uiso   1.00
O223   O     0.30645   0.48590   0.36743   0.00000  Uiso   1.00
O224   O     0.43845   0.00750   0.36256   0.00000  Uiso   1.00
N225   N     0.46935   0.31441   0.53587   0.00000  Uiso   1.00
N226   N     0.29084   0.39382   0.23659   0.00000  Uiso   1.00
N227   N     0.38489   0.05291   0.23315   0.00000  Uiso   1.00
N228   N     0.57388   0.38555   0.60816   0.00000  Uiso   1.00
N229   N     0.39537   0.46496   0.30888   0.00000  Uiso   1.00
N230   N     0.48942   0.12405   0.30545   0.00000  Uiso   1.00
C231   C     0.75256   0.12507   0.99546   0.00000  Uiso   1.00
C232   C     0.71673   0.14147   0.88646   0.00000  Uiso   1.00
C233   C     0.72622   0.13665   0.75455   0.00000  Uiso   1.00
C234   C     0.68861   0.15394   0.67034   0.00000  Uiso   1.00
C235   C     0.63986   0.17613   0.49408   0.00000  Uiso   1.00
C236   C     0.69483   0.07038   0.07957   0.00000  Uiso   1.00
C237   C     0.68592   0.00579   0.11003   0.00000  Uiso   1.00
C238   C     0.62989   0.96324   0.18840   0.00000  Uiso   1.00
C239   C     0.54718   0.87508   0.31202   0.00000  Uiso   1.00
C240   C     0.78879   0.19026   0.07860   0.00000  Uiso   1.00
C241   C     0.85887   0.22646   0.10829   0.00000  Uiso   1.00
C242   C     0.88194   0.28483   0.18586   0.00000  Uiso   1.00
C243   C     0.94511   0.38280   0.30798   0.00000  Uiso   1.00
C244   C     0.66891   0.16434   0.08048   0.00000  Uiso   1.00
C245   C     0.67129   0.16280   0.93265   0.00000  Uiso   1.00
C246   C     0.63366   0.18010   0.84862   0.00000  Uiso   1.00
C247   C     0.64309   0.17531   0.71660   0.00000  Uiso   1.00
C248   C     0.64939   0.09171   0.12575   0.00000  Uiso   1.00
C249   C     0.59337   0.04924   0.20410   0.00000  Uiso   1.00
C250   C     0.58437   0.98460   0.23467   0.00000  Uiso   1.00
C251   C     0.74335   0.21159   0.12479   0.00000  Uiso   1.00
C252   C     0.76632   0.26991   0.20235   0.00000  Uiso   1.00
C253   C     0.83642   0.30619   0.23213   0.00000  Uiso   1.00
H254   H     0.78793   0.10846   0.95951   0.00000  Uiso   1.00
H255   H     0.76138   0.12014   0.71885   0.00000  Uiso   1.00
H256   H     0.72110   0.98930   0.07429   0.00000  Uiso   1.00
H257   H     0.89402   0.20994   0.07253   0.00000  Uiso   1.00
H258   H     0.71188   0.14247   0.47240   0.00000  Uiso   1.00
H259   H     0.62696   0.86660   0.22190   0.00000  Uiso   1.00
H260   H     0.99160   0.33186   0.21820   0.00000  Uiso   1.00
H261   H     0.63353   0.18095   0.11644   0.00000  Uiso   1.00
H262   H     0.59850   0.19661   0.88439   0.00000  Uiso   1.00
H263   H     0.55822   0.06577   0.23983   0.00000  Uiso   1.00
H264   H     0.73114   0.28640   0.23807   0.00000  Uiso   1.00
H265   H     0.57968   0.20453   0.60676   0.00000  Uiso   1.00
H266   H     0.49476   0.92866   0.35626   0.00000  Uiso   1.00
H267   H     0.85940   0.39392   0.35255   0.00000  Uiso   1.00
O268   O     0.62551   0.18247   0.38410   0.00000  Uiso   1.00
O269   O     0.51410   0.82055   0.36743   0.00000  Uiso   1.00
O270   O     0.99250   0.43095   0.36256   0.00000  Uiso   1.00
N271   N     0.68559   0.15494   0.53587   0.00000  Uiso   1.00
N272   N     0.60618   0.89702   0.23659   0.00000  Uiso   1.00
N273   N     0.94709   0.33198   0.23315   0.00000  Uiso   1.00
N274   N     0.61445   0.18834   0.60816   0.00000  Uiso   1.00
N275   N     0.53504   0.93041   0.30888   0.00000  Uiso   1.00
N276   N     0.87595   0.36537   0.30545   0.00000  Uiso   1.00
