data_job_04712
_audit_creation_date              2018-12-19
_audit_creation_method            'Materials Studio'
_symmetry_space_group_name_H-M    'P1'
_symmetry_Int_Tables_number       1
_symmetry_cell_setting            triclinic
loop_
_symmetry_equiv_pos_as_xyz
  x,y,z
_cell_length_a                    12.5064
_cell_length_b                    17.8918
_cell_length_c                    22.6287
_cell_angle_alpha                 90.0000
_cell_angle_beta                  82.1350
_cell_angle_gamma                 90.0000
loop_
_atom_site_label
_atom_site_type_symbol
_atom_site_fract_x
_atom_site_fract_y
_atom_site_fract_z
_atom_site_U_iso_or_equiv
_atom_site_adp_type
_atom_site_occupancy
C1     C     0.37882   0.17892   0.45575   0.00000  Uiso   1.00
C2     C     0.37045   0.13938   0.51591   0.00000  Uiso   1.00
C3     C     0.34678   0.06432   0.52609   0.00000  Uiso   1.00
C4     C     0.34284   0.03888   0.58431   0.00000  Uiso   1.00
C5     C     0.32690   0.97021   0.67068   0.00000  Uiso   1.00
C6     C     0.29914   0.24381   0.46429   0.00000  Uiso   1.00
C7     C     0.21553   0.25654   0.43106   0.00000  Uiso   1.00
C8     C     0.15157   0.31901   0.44583   0.00000  Uiso   1.00
C9     C     0.02497   0.41249   0.45203   0.00000  Uiso   1.00
C10    C     0.49089   0.21408   0.44552   0.00000  Uiso   1.00
C11    C     0.56849   0.20184   0.39649   0.00000  Uiso   1.00
C12    C     0.66596   0.23931   0.39544   0.00000  Uiso   1.00
C13    C     0.83708   0.28663   0.37249   0.00000  Uiso   1.00
C14    C     0.41391   0.26723   0.54106   0.00000  Uiso   1.00
C15    C     0.38951   0.18736   0.56225   0.00000  Uiso   1.00
C16    C     0.38561   0.16203   0.62047   0.00000  Uiso   1.00
C17    C     0.36194   0.08693   0.63073   0.00000  Uiso   1.00
C18    C     0.31820   0.29178   0.51063   0.00000  Uiso   1.00
C19    C     0.25435   0.35425   0.52544   0.00000  Uiso   1.00
C20    C     0.17066   0.36707   0.49225   0.00000  Uiso   1.00
C21    C     0.50995   0.26205   0.49185   0.00000  Uiso   1.00
C22    C     0.60732   0.29955   0.49088   0.00000  Uiso   1.00
C23    C     0.68505   0.28736   0.44186   0.00000  Uiso   1.00
H24    H     0.36397   0.14158   0.41968   0.00000  Uiso   1.00
H25    H     0.33203   0.02721   0.49022   0.00000  Uiso   1.00
H26    H     0.20080   0.21941   0.39520   0.00000  Uiso   1.00
H27    H     0.55371   0.16472   0.36064   0.00000  Uiso   1.00
H28    H     0.30498   0.92158   0.58886   0.00000  Uiso   1.00
H29    H     0.02831   0.32686   0.38850   0.00000  Uiso   1.00
H30    H     0.77249   0.21153   0.31562   0.00000  Uiso   1.00
H31    H     0.42874   0.30458   0.57714   0.00000  Uiso   1.00
H32    H     0.40036   0.19916   0.65632   0.00000  Uiso   1.00
H33    H     0.26913   0.39136   0.56130   0.00000  Uiso   1.00
H34    H     0.62204   0.33667   0.52674   0.00000  Uiso   1.00
H35    H     0.36043   0.06114   0.72368   0.00000  Uiso   1.00
H36    H     0.08376   0.46642   0.52331   0.00000  Uiso   1.00
H37    H     0.82794   0.35109   0.45044   0.00000  Uiso   1.00
O38    O     0.31283   0.91908   0.70552   0.00000  Uiso   1.00
O39    O     0.94986   0.45079   0.44265   0.00000  Uiso   1.00
O40    O     0.92620   0.29947   0.34703   0.00000  Uiso   1.00
N41    N     0.32195   0.96889   0.60972   0.00000  Uiso   1.00
N42    N     0.06326   0.34779   0.42240   0.00000  Uiso   1.00
N43    N     0.75900   0.23998   0.35426   0.00000  Uiso   1.00
N44    N     0.35179   0.04399   0.68226   0.00000  Uiso   1.00
N45    N     0.09311   0.42289   0.49495   0.00000  Uiso   1.00
N46    N     0.78884   0.31508   0.42680   0.00000  Uiso   1.00
C47    C     0.15698   0.90513   0.33119   0.00000  Uiso   1.00
C48    C     0.12792   0.89337   0.39821   0.00000  Uiso   1.00
C49    C     0.13312   0.94722   0.44186   0.00000  Uiso   1.00
C50    C     0.10312   0.92537   0.50066   0.00000  Uiso   1.00
C51    C     0.06322   0.91821   0.60251   0.00000  Uiso   1.00
C52    C     0.24300   0.84695   0.31029   0.00000  Uiso   1.00
C53    C     0.34495   0.86178   0.28001   0.00000  Uiso   1.00
C54    C     0.41182   0.80085   0.26480   0.00000  Uiso   1.00
C55    C     0.55055   0.72163   0.23012   0.00000  Uiso   1.00
C56    C     0.05719   0.88284   0.30344   0.00000  Uiso   1.00
C57    C     0.00291   0.92784   0.26739   0.00000  Uiso   1.00
C58    C     0.91336   0.89712   0.24640   0.00000  Uiso   1.00
C59    C     0.76359   0.87362   0.20109   0.00000  Uiso   1.00
C60    C     0.09448   0.77054   0.35800   0.00000  Uiso   1.00
C61    C     0.09398   0.82026   0.41277   0.00000  Uiso   1.00
C62    C     0.06396   0.79832   0.47152   0.00000  Uiso   1.00
C63    C     0.06911   0.85214   0.51525   0.00000  Uiso   1.00
C64    C     0.20906   0.77385   0.32485   0.00000  Uiso   1.00
C65    C     0.27579   0.71288   0.30968   0.00000  Uiso   1.00
C66    C     0.37781   0.72761   0.27939   0.00000  Uiso   1.00
C67    C     0.02324   0.80974   0.31800   0.00000  Uiso   1.00
C68    C     0.93376   0.77894   0.29706   0.00000  Uiso   1.00
C69    C     0.87935   0.82388   0.26099   0.00000  Uiso   1.00
H70    H     0.18342   0.96204   0.31985   0.00000  Uiso   1.00
H71    H     0.15940   0.00379   0.43057   0.00000  Uiso   1.00
H72    H     0.37119   0.91836   0.26875   0.00000  Uiso   1.00
H73    H     0.02921   0.98441   0.25613   0.00000  Uiso   1.00
H74    H     0.11784   0.01783   0.55975   0.00000  Uiso   1.00
H75    H     0.56440   0.83769   0.21852   0.00000  Uiso   1.00
H76    H     0.84326   0.97697   0.19191   0.00000  Uiso   1.00
H77    H     0.06805   0.71363   0.36934   0.00000  Uiso   1.00
H78    H     0.03770   0.74175   0.48278   0.00000  Uiso   1.00
H79    H     0.24949   0.65632   0.32095   0.00000  Uiso   1.00
H80    H     0.90751   0.72236   0.30834   0.00000  Uiso   1.00
H81    H     0.01907   0.80514   0.60212   0.00000  Uiso   1.00
H82    H     0.46563   0.62501   0.26088   0.00000  Uiso   1.00
H83    H     0.74449   0.76428   0.23428   0.00000  Uiso   1.00
O84    O     0.05061   0.93446   0.65467   0.00000  Uiso   1.00
O85    O     0.63646   0.69813   0.20697   0.00000  Uiso   1.00
O86    O     0.69035   0.88086   0.17208   0.00000  Uiso   1.00
N87    N     0.09874   0.96392   0.55415   0.00000  Uiso   1.00
N88    N     0.51625   0.79550   0.23513   0.00000  Uiso   1.00
N89    N     0.84206   0.92571   0.21024   0.00000  Uiso   1.00
N90    N     0.04559   0.84947   0.57695   0.00000  Uiso   1.00
N91    N     0.46310   0.68106   0.25793   0.00000  Uiso   1.00
N92    N     0.78891   0.81126   0.23304   0.00000  Uiso   1.00
C93    C     0.62118   0.67892   0.04425   0.00000  Uiso   1.00
C94    C     0.62955   0.63938   0.98409   0.00000  Uiso   1.00
C95    C     0.65322   0.56432   0.97391   0.00000  Uiso   1.00
C96    C     0.65716   0.53888   0.91569   0.00000  Uiso   1.00
C97    C     0.67310   0.47021   0.82932   0.00000  Uiso   1.00
C98    C     0.70086   0.74381   0.03571   0.00000  Uiso   1.00
C99    C     0.78447   0.75654   0.06894   0.00000  Uiso   1.00
C100   C     0.84843   0.81901   0.05417   0.00000  Uiso   1.00
C101   C     0.97503   0.91249   0.04797   0.00000  Uiso   1.00
C102   C     0.50911   0.71408   0.05448   0.00000  Uiso   1.00
C103   C     0.43151   0.70184   0.10351   0.00000  Uiso   1.00
C104   C     0.33404   0.73931   0.10456   0.00000  Uiso   1.00
C105   C     0.16292   0.78663   0.12751   0.00000  Uiso   1.00
C106   C     0.58609   0.76723   0.95894   0.00000  Uiso   1.00
C107   C     0.61049   0.68736   0.93775   0.00000  Uiso   1.00
C108   C     0.61439   0.66203   0.87953   0.00000  Uiso   1.00
C109   C     0.63806   0.58693   0.86927   0.00000  Uiso   1.00
C110   C     0.68180   0.79178   0.98937   0.00000  Uiso   1.00
C111   C     0.74565   0.85425   0.97456   0.00000  Uiso   1.00
C112   C     0.82934   0.86707   0.00775   0.00000  Uiso   1.00
C113   C     0.49005   0.76205   0.00815   0.00000  Uiso   1.00
C114   C     0.39268   0.79955   0.00912   0.00000  Uiso   1.00
C115   C     0.31495   0.78736   0.05814   0.00000  Uiso   1.00
H116   H     0.63603   0.64158   0.08032   0.00000  Uiso   1.00
H117   H     0.66797   0.52721   0.00978   0.00000  Uiso   1.00
H118   H     0.79920   0.71941   0.10480   0.00000  Uiso   1.00
H119   H     0.44629   0.66472   0.13936   0.00000  Uiso   1.00
H120   H     0.69502   0.42158   0.91114   0.00000  Uiso   1.00
H121   H     0.97169   0.82686   0.11150   0.00000  Uiso   1.00
H122   H     0.22751   0.71153   0.18438   0.00000  Uiso   1.00
H123   H     0.57126   0.80458   0.92286   0.00000  Uiso   1.00
H124   H     0.59964   0.69916   0.84368   0.00000  Uiso   1.00
H125   H     0.73087   0.89136   0.93870   0.00000  Uiso   1.00
H126   H     0.37796   0.83667   0.97326   0.00000  Uiso   1.00
H127   H     0.63957   0.56114   0.77632   0.00000  Uiso   1.00
H128   H     0.91624   0.96642   0.97669   0.00000  Uiso   1.00
H129   H     0.17206   0.85109   0.04956   0.00000  Uiso   1.00
O130   O     0.68717   0.41908   0.79448   0.00000  Uiso   1.00
O131   O     0.05014   0.95079   0.05735   0.00000  Uiso   1.00
O132   O     0.07380   0.79947   0.15297   0.00000  Uiso   1.00
N133   N     0.67805   0.46889   0.89028   0.00000  Uiso   1.00
N134   N     0.93674   0.84779   0.07760   0.00000  Uiso   1.00
N135   N     0.24100   0.73998   0.14574   0.00000  Uiso   1.00
N136   N     0.64821   0.54399   0.81774   0.00000  Uiso   1.00
N137   N     0.90689   0.92289   0.00505   0.00000  Uiso   1.00
N138   N     0.21116   0.81508   0.07320   0.00000  Uiso   1.00
C139   C     0.84302   0.40513   0.16881   0.00000  Uiso   1.00
C140   C     0.87208   0.39337   0.10179   0.00000  Uiso   1.00
C141   C     0.86688   0.44722   0.05814   0.00000  Uiso   1.00
C142   C     0.89688   0.42537   0.99934   0.00000  Uiso   1.00
C143   C     0.93678   0.41821   0.89749   0.00000  Uiso   1.00
C144   C     0.75700   0.34695   0.18971   0.00000  Uiso   1.00
C145   C     0.65505   0.36178   0.21999   0.00000  Uiso   1.00
C146   C     0.58818   0.30085   0.23520   0.00000  Uiso   1.00
C147   C     0.44945   0.22163   0.26988   0.00000  Uiso   1.00
C148   C     0.94281   0.38284   0.19656   0.00000  Uiso   1.00
C149   C     0.99709   0.42784   0.23261   0.00000  Uiso   1.00
C150   C     0.08664   0.39712   0.25360   0.00000  Uiso   1.00
C151   C     0.23641   0.37362   0.29891   0.00000  Uiso   1.00
C152   C     0.90552   0.27054   0.14200   0.00000  Uiso   1.00
C153   C     0.90602   0.32026   0.08723   0.00000  Uiso   1.00
C154   C     0.93604   0.29832   0.02848   0.00000  Uiso   1.00
C155   C     0.93089   0.35214   0.98475   0.00000  Uiso   1.00
C156   C     0.79094   0.27385   0.17515   0.00000  Uiso   1.00
C157   C     0.72421   0.21288   0.19032   0.00000  Uiso   1.00
C158   C     0.62219   0.22761   0.22061   0.00000  Uiso   1.00
C159   C     0.97676   0.30974   0.18200   0.00000  Uiso   1.00
C160   C     0.06624   0.27894   0.20294   0.00000  Uiso   1.00
C161   C     0.12065   0.32388   0.23901   0.00000  Uiso   1.00
H162   H     0.81658   0.46204   0.18015   0.00000  Uiso   1.00
H163   H     0.84060   0.50379   0.06943   0.00000  Uiso   1.00
H164   H     0.62881   0.41836   0.23125   0.00000  Uiso   1.00
H165   H     0.97079   0.48441   0.24387   0.00000  Uiso   1.00
H166   H     0.88216   0.51783   0.94025   0.00000  Uiso   1.00
H167   H     0.43560   0.33769   0.28148   0.00000  Uiso   1.00
H168   H     0.15674   0.47697   0.30809   0.00000  Uiso   1.00
H169   H     0.93195   0.21363   0.13066   0.00000  Uiso   1.00
H170   H     0.96230   0.24175   0.01722   0.00000  Uiso   1.00
H171   H     0.75051   0.15632   0.17905   0.00000  Uiso   1.00
H172   H     0.09249   0.22236   0.19166   0.00000  Uiso   1.00
H173   H     0.98093   0.30514   0.89788   0.00000  Uiso   1.00
H174   H     0.53437   0.12501   0.23912   0.00000  Uiso   1.00
H175   H     0.25551   0.26428   0.26572   0.00000  Uiso   1.00
O176   O     0.94939   0.43446   0.84533   0.00000  Uiso   1.00
O177   O     0.36354   0.19813   0.29303   0.00000  Uiso   1.00
O178   O     0.30965   0.38086   0.32792   0.00000  Uiso   1.00
N179   N     0.90126   0.46392   0.94585   0.00000  Uiso   1.00
N180   N     0.48375   0.29550   0.26487   0.00000  Uiso   1.00
N181   N     0.15794   0.42571   0.28976   0.00000  Uiso   1.00
N182   N     0.95441   0.34947   0.92305   0.00000  Uiso   1.00
N183   N     0.53690   0.18106   0.24207   0.00000  Uiso   1.00
N184   N     0.21109   0.31126   0.26696   0.00000  Uiso   1.00
C185   C     0.62118   0.82108   0.54425   0.00000  Uiso   1.00
C186   C     0.62955   0.86062   0.48409   0.00000  Uiso   1.00
C187   C     0.65322   0.93568   0.47391   0.00000  Uiso   1.00
C188   C     0.65716   0.96112   0.41569   0.00000  Uiso   1.00
C189   C     0.67310   0.02979   0.32932   0.00000  Uiso   1.00
C190   C     0.70086   0.75619   0.53571   0.00000  Uiso   1.00
C191   C     0.78447   0.74346   0.56894   0.00000  Uiso   1.00
C192   C     0.84843   0.68099   0.55417   0.00000  Uiso   1.00
C193   C     0.97503   0.58751   0.54797   0.00000  Uiso   1.00
C194   C     0.50911   0.78592   0.55448   0.00000  Uiso   1.00
C195   C     0.43151   0.79816   0.60351   0.00000  Uiso   1.00
C196   C     0.33404   0.76069   0.60456   0.00000  Uiso   1.00
C197   C     0.16292   0.71337   0.62751   0.00000  Uiso   1.00
C198   C     0.58609   0.73277   0.45894   0.00000  Uiso   1.00
C199   C     0.61049   0.81264   0.43775   0.00000  Uiso   1.00
C200   C     0.61439   0.83797   0.37953   0.00000  Uiso   1.00
C201   C     0.63806   0.91307   0.36927   0.00000  Uiso   1.00
C202   C     0.68180   0.70822   0.48937   0.00000  Uiso   1.00
C203   C     0.74565   0.64575   0.47456   0.00000  Uiso   1.00
C204   C     0.82934   0.63293   0.50775   0.00000  Uiso   1.00
C205   C     0.49005   0.73795   0.50815   0.00000  Uiso   1.00
C206   C     0.39268   0.70045   0.50912   0.00000  Uiso   1.00
C207   C     0.31495   0.71264   0.55814   0.00000  Uiso   1.00
H208   H     0.63603   0.85842   0.58032   0.00000  Uiso   1.00
H209   H     0.66797   0.97279   0.50978   0.00000  Uiso   1.00
H210   H     0.79920   0.78059   0.60480   0.00000  Uiso   1.00
H211   H     0.44629   0.83528   0.63936   0.00000  Uiso   1.00
H212   H     0.69502   0.07842   0.41114   0.00000  Uiso   1.00
H213   H     0.97169   0.67314   0.61150   0.00000  Uiso   1.00
H214   H     0.22751   0.78847   0.68438   0.00000  Uiso   1.00
H215   H     0.57126   0.69542   0.42286   0.00000  Uiso   1.00
H216   H     0.59964   0.80084   0.34368   0.00000  Uiso   1.00
H217   H     0.73087   0.60864   0.43870   0.00000  Uiso   1.00
H218   H     0.37796   0.66333   0.47326   0.00000  Uiso   1.00
H219   H     0.63957   0.93886   0.27632   0.00000  Uiso   1.00
H220   H     0.91624   0.53358   0.47669   0.00000  Uiso   1.00
H221   H     0.17206   0.64891   0.54956   0.00000  Uiso   1.00
O222   O     0.68717   0.08092   0.29448   0.00000  Uiso   1.00
O223   O     0.05014   0.54921   0.55735   0.00000  Uiso   1.00
O224   O     0.07380   0.70053   0.65297   0.00000  Uiso   1.00
N225   N     0.67805   0.03111   0.39028   0.00000  Uiso   1.00
N226   N     0.93674   0.65221   0.57760   0.00000  Uiso   1.00
N227   N     0.24100   0.76002   0.64574   0.00000  Uiso   1.00
N228   N     0.64821   0.95601   0.31774   0.00000  Uiso   1.00
N229   N     0.90689   0.57711   0.50505   0.00000  Uiso   1.00
N230   N     0.21116   0.68492   0.57320   0.00000  Uiso   1.00
C231   C     0.84302   0.09487   0.66881   0.00000  Uiso   1.00
C232   C     0.87208   0.10663   0.60179   0.00000  Uiso   1.00
C233   C     0.86688   0.05278   0.55814   0.00000  Uiso   1.00
C234   C     0.89688   0.07463   0.49934   0.00000  Uiso   1.00
C235   C     0.93678   0.08179   0.39749   0.00000  Uiso   1.00
C236   C     0.75700   0.15305   0.68971   0.00000  Uiso   1.00
C237   C     0.65505   0.13822   0.71999   0.00000  Uiso   1.00
C238   C     0.58818   0.19915   0.73520   0.00000  Uiso   1.00
C239   C     0.44945   0.27837   0.76988   0.00000  Uiso   1.00
C240   C     0.94281   0.11716   0.69656   0.00000  Uiso   1.00
C241   C     0.99709   0.07216   0.73261   0.00000  Uiso   1.00
C242   C     0.08664   0.10288   0.75360   0.00000  Uiso   1.00
C243   C     0.23641   0.12638   0.79891   0.00000  Uiso   1.00
C244   C     0.90552   0.22946   0.64200   0.00000  Uiso   1.00
C245   C     0.90602   0.17974   0.58723   0.00000  Uiso   1.00
C246   C     0.93604   0.20168   0.52848   0.00000  Uiso   1.00
C247   C     0.93089   0.14786   0.48475   0.00000  Uiso   1.00
C248   C     0.79094   0.22615   0.67515   0.00000  Uiso   1.00
C249   C     0.72421   0.28712   0.69032   0.00000  Uiso   1.00
C250   C     0.62219   0.27239   0.72061   0.00000  Uiso   1.00
C251   C     0.97676   0.19026   0.68200   0.00000  Uiso   1.00
C252   C     0.06624   0.22106   0.70294   0.00000  Uiso   1.00
C253   C     0.12065   0.17612   0.73901   0.00000  Uiso   1.00
H254   H     0.81658   0.03796   0.68015   0.00000  Uiso   1.00
H255   H     0.84060   0.99621   0.56943   0.00000  Uiso   1.00
H256   H     0.62881   0.08164   0.73125   0.00000  Uiso   1.00
H257   H     0.97079   0.01559   0.74387   0.00000  Uiso   1.00
H258   H     0.88216   0.98217   0.44025   0.00000  Uiso   1.00
H259   H     0.43560   0.16231   0.78148   0.00000  Uiso   1.00
H260   H     0.15674   0.02303   0.80809   0.00000  Uiso   1.00
H261   H     0.93195   0.28637   0.63066   0.00000  Uiso   1.00
H262   H     0.96230   0.25825   0.51722   0.00000  Uiso   1.00
H263   H     0.75051   0.34368   0.67905   0.00000  Uiso   1.00
H264   H     0.09249   0.27764   0.69166   0.00000  Uiso   1.00
H265   H     0.98093   0.19486   0.39788   0.00000  Uiso   1.00
H266   H     0.53437   0.37499   0.73912   0.00000  Uiso   1.00
H267   H     0.25551   0.23572   0.76572   0.00000  Uiso   1.00
O268   O     0.94939   0.06554   0.34533   0.00000  Uiso   1.00
O269   O     0.36354   0.30187   0.79303   0.00000  Uiso   1.00
O270   O     0.30965   0.11914   0.82792   0.00000  Uiso   1.00
N271   N     0.90126   0.03608   0.44585   0.00000  Uiso   1.00
N272   N     0.48375   0.20450   0.76487   0.00000  Uiso   1.00
N273   N     0.15794   0.07429   0.78976   0.00000  Uiso   1.00
N274   N     0.95441   0.15053   0.42305   0.00000  Uiso   1.00
N275   N     0.53690   0.31894   0.74207   0.00000  Uiso   1.00
N276   N     0.21109   0.18874   0.76696   0.00000  Uiso   1.00
C277   C     0.37882   0.32108   0.95575   0.00000  Uiso   1.00
C278   C     0.37045   0.36062   0.01591   0.00000  Uiso   1.00
C279   C     0.34678   0.43568   0.02609   0.00000  Uiso   1.00
C280   C     0.34284   0.46112   0.08431   0.00000  Uiso   1.00
C281   C     0.32690   0.52979   0.17068   0.00000  Uiso   1.00
C282   C     0.29914   0.25619   0.96429   0.00000  Uiso   1.00
C283   C     0.21553   0.24346   0.93106   0.00000  Uiso   1.00
C284   C     0.15157   0.18099   0.94583   0.00000  Uiso   1.00
C285   C     0.02497   0.08751   0.95203   0.00000  Uiso   1.00
C286   C     0.49089   0.28592   0.94552   0.00000  Uiso   1.00
C287   C     0.56849   0.29816   0.89649   0.00000  Uiso   1.00
C288   C     0.66596   0.26069   0.89544   0.00000  Uiso   1.00
C289   C     0.83708   0.21337   0.87249   0.00000  Uiso   1.00
C290   C     0.41391   0.23277   0.04106   0.00000  Uiso   1.00
C291   C     0.38951   0.31264   0.06225   0.00000  Uiso   1.00
C292   C     0.38561   0.33797   0.12047   0.00000  Uiso   1.00
C293   C     0.36194   0.41307   0.13073   0.00000  Uiso   1.00
C294   C     0.31820   0.20822   0.01063   0.00000  Uiso   1.00
C295   C     0.25435   0.14575   0.02544   0.00000  Uiso   1.00
C296   C     0.17066   0.13293   0.99225   0.00000  Uiso   1.00
C297   C     0.50995   0.23795   0.99185   0.00000  Uiso   1.00
C298   C     0.60732   0.20045   0.99088   0.00000  Uiso   1.00
C299   C     0.68505   0.21264   0.94186   0.00000  Uiso   1.00
H300   H     0.36397   0.35842   0.91968   0.00000  Uiso   1.00
H301   H     0.33203   0.47279   0.99022   0.00000  Uiso   1.00
H302   H     0.20080   0.28059   0.89520   0.00000  Uiso   1.00
H303   H     0.55371   0.33528   0.86064   0.00000  Uiso   1.00
H304   H     0.30498   0.57842   0.08886   0.00000  Uiso   1.00
H305   H     0.02831   0.17314   0.88850   0.00000  Uiso   1.00
H306   H     0.77249   0.28847   0.81562   0.00000  Uiso   1.00
H307   H     0.42874   0.19542   0.07714   0.00000  Uiso   1.00
H308   H     0.40036   0.30084   0.15632   0.00000  Uiso   1.00
H309   H     0.26913   0.10864   0.06130   0.00000  Uiso   1.00
H310   H     0.62204   0.16333   0.02674   0.00000  Uiso   1.00
H311   H     0.36043   0.43886   0.22368   0.00000  Uiso   1.00
H312   H     0.08376   0.03358   0.02331   0.00000  Uiso   1.00
H313   H     0.82794   0.14891   0.95044   0.00000  Uiso   1.00
O314   O     0.31283   0.58092   0.20552   0.00000  Uiso   1.00
O315   O     0.94986   0.04921   0.94265   0.00000  Uiso   1.00
O316   O     0.92620   0.20053   0.84703   0.00000  Uiso   1.00
N317   N     0.32195   0.53111   0.10972   0.00000  Uiso   1.00
N318   N     0.06326   0.15221   0.92240   0.00000  Uiso   1.00
N319   N     0.75900   0.26002   0.85426   0.00000  Uiso   1.00
N320   N     0.35179   0.45601   0.18226   0.00000  Uiso   1.00
N321   N     0.09311   0.07711   0.99495   0.00000  Uiso   1.00
N322   N     0.78884   0.18492   0.92680   0.00000  Uiso   1.00
C323   C     0.15698   0.59487   0.83119   0.00000  Uiso   1.00
C324   C     0.12792   0.60663   0.89821   0.00000  Uiso   1.00
C325   C     0.13312   0.55278   0.94186   0.00000  Uiso   1.00
C326   C     0.10312   0.57463   0.00066   0.00000  Uiso   1.00
C327   C     0.06322   0.58179   0.10251   0.00000  Uiso   1.00
C328   C     0.24300   0.65305   0.81029   0.00000  Uiso   1.00
C329   C     0.34495   0.63822   0.78001   0.00000  Uiso   1.00
C330   C     0.41182   0.69915   0.76480   0.00000  Uiso   1.00
C331   C     0.55055   0.77837   0.73012   0.00000  Uiso   1.00
C332   C     0.05719   0.61716   0.80344   0.00000  Uiso   1.00
C333   C     0.00291   0.57216   0.76739   0.00000  Uiso   1.00
C334   C     0.91336   0.60288   0.74640   0.00000  Uiso   1.00
C335   C     0.76359   0.62638   0.70109   0.00000  Uiso   1.00
C336   C     0.09448   0.72946   0.85800   0.00000  Uiso   1.00
C337   C     0.09398   0.67974   0.91277   0.00000  Uiso   1.00
C338   C     0.06396   0.70168   0.97152   0.00000  Uiso   1.00
C339   C     0.06911   0.64786   0.01525   0.00000  Uiso   1.00
C340   C     0.20906   0.72615   0.82485   0.00000  Uiso   1.00
C341   C     0.27579   0.78712   0.80968   0.00000  Uiso   1.00
C342   C     0.37781   0.77239   0.77939   0.00000  Uiso   1.00
C343   C     0.02324   0.69026   0.81800   0.00000  Uiso   1.00
C344   C     0.93376   0.72106   0.79706   0.00000  Uiso   1.00
C345   C     0.87935   0.67612   0.76099   0.00000  Uiso   1.00
H346   H     0.18342   0.53796   0.81985   0.00000  Uiso   1.00
H347   H     0.15940   0.49621   0.93057   0.00000  Uiso   1.00
H348   H     0.37119   0.58164   0.76875   0.00000  Uiso   1.00
H349   H     0.02921   0.51559   0.75613   0.00000  Uiso   1.00
H350   H     0.11784   0.48217   0.05975   0.00000  Uiso   1.00
H351   H     0.56440   0.66231   0.71852   0.00000  Uiso   1.00
H352   H     0.84326   0.52303   0.69191   0.00000  Uiso   1.00
H353   H     0.06805   0.78637   0.86934   0.00000  Uiso   1.00
H354   H     0.03770   0.75825   0.98278   0.00000  Uiso   1.00
H355   H     0.24949   0.84368   0.82095   0.00000  Uiso   1.00
H356   H     0.90751   0.77764   0.80834   0.00000  Uiso   1.00
H357   H     0.01907   0.69486   0.10212   0.00000  Uiso   1.00
H358   H     0.46563   0.87499   0.76088   0.00000  Uiso   1.00
H359   H     0.74449   0.73572   0.73428   0.00000  Uiso   1.00
O360   O     0.05061   0.56554   0.15467   0.00000  Uiso   1.00
O361   O     0.63646   0.80187   0.70697   0.00000  Uiso   1.00
O362   O     0.69035   0.61914   0.67208   0.00000  Uiso   1.00
N363   N     0.09874   0.53608   0.05415   0.00000  Uiso   1.00
N364   N     0.51625   0.70450   0.73513   0.00000  Uiso   1.00
N365   N     0.84206   0.57429   0.71024   0.00000  Uiso   1.00
N366   N     0.04559   0.65053   0.07695   0.00000  Uiso   1.00
N367   N     0.46310   0.81894   0.75793   0.00000  Uiso   1.00
N368   N     0.78891   0.68874   0.73304   0.00000  Uiso   1.00
