data_job_04870
_audit_creation_date              2018-12-19
_audit_creation_method            'Materials Studio'
_symmetry_space_group_name_H-M    'P1'
_symmetry_Int_Tables_number       1
_symmetry_cell_setting            triclinic
loop_
_symmetry_equiv_pos_as_xyz
  x,y,z
_cell_length_a                    14.9256
_cell_length_b                    29.8762
_cell_length_c                    9.7480
_cell_angle_alpha                 90.0000
_cell_angle_beta                  140.1860
_cell_angle_gamma                 90.0000
loop_
_atom_site_label
_atom_site_type_symbol
_atom_site_fract_x
_atom_site_fract_y
_atom_site_fract_z
_atom_site_U_iso_or_equiv
_atom_site_adp_type
_atom_site_occupancy
C1     C     0.07031   0.58578   0.76743   0.00000  Uiso   1.00
C2     C     0.06332   0.58355   0.60307   0.00000  Uiso   1.00
C3     C     0.96386   0.56050   0.41016   0.00000  Uiso   1.00
C4     C     0.97554   0.56259   0.28207   0.00000  Uiso   1.00
C5     C     0.94840   0.55542   0.01737   0.00000  Uiso   1.00
C6     C     0.21564   0.56904   0.97763   0.00000  Uiso   1.00
C7     C     0.24423   0.53379   0.09964   0.00000  Uiso   1.00
C8     C     0.38413   0.52367   0.28686   0.00000  Uiso   1.00
C9     C     0.59346   0.49400   0.60374   0.00000  Uiso   1.00
C10    C     0.06740   0.63538   0.80080   0.00000  Uiso   1.00
C11    C     0.97138   0.65590   0.77420   0.00000  Uiso   1.00
C12    C     0.98650   0.70163   0.81260   0.00000  Uiso   1.00
C13    C     0.96567   0.77495   0.85493   0.00000  Uiso   1.00
C14    C     0.26791   0.63049   0.88300   0.00000  Uiso   1.00
C15    C     0.17066   0.60784   0.66586   0.00000  Uiso   1.00
C16    C     0.18248   0.60997   0.53802   0.00000  Uiso   1.00
C17    C     0.08305   0.58692   0.34495   0.00000  Uiso   1.00
C18    C     0.32296   0.59333   0.04040   0.00000  Uiso   1.00
C19    C     0.46285   0.58326   0.22750   0.00000  Uiso   1.00
C20    C     0.49165   0.54800   0.34975   0.00000  Uiso   1.00
C21    C     0.17473   0.65967   0.86357   0.00000  Uiso   1.00
C22    C     0.19000   0.70537   0.90205   0.00000  Uiso   1.00
C23    C     0.09402   0.72596   0.87549   0.00000  Uiso   1.00
H24    H     0.98676   0.56687   0.71858   0.00000  Uiso   1.00
H25    H     0.88083   0.54170   0.36165   0.00000  Uiso   1.00
H26    H     0.16115   0.51501   0.05103   0.00000  Uiso   1.00
H27    H     0.88834   0.63710   0.72562   0.00000  Uiso   1.00
H28    H     0.81074   0.52450   0.99365   0.00000  Uiso   1.00
H29    H     0.40182   0.46821   0.44728   0.00000  Uiso   1.00
H30    H     0.82655   0.72567   0.76111   0.00000  Uiso   1.00
H31    H     0.35147   0.64940   0.93188   0.00000  Uiso   1.00
H32    H     0.26555   0.62877   0.58664   0.00000  Uiso   1.00
H33    H     0.54588   0.60207   0.27603   0.00000  Uiso   1.00
H34    H     0.27307   0.72416   0.95062   0.00000  Uiso   1.00
H35    H     0.12300   0.59516   0.17626   0.00000  Uiso   1.00
H36    H     0.71408   0.53888   0.62991   0.00000  Uiso   1.00
H37    H     0.13881   0.79633   0.94372   0.00000  Uiso   1.00
O38    O     0.90380   0.54476   0.85404   0.00000  Uiso   1.00
O39    O     0.67927   0.47091   0.76116   0.00000  Uiso   1.00
O40    O     0.92452   0.80868   0.86091   0.00000  Uiso   1.00
N41    N     0.89601   0.54397   0.08399   0.00000  Uiso   1.00
N42    N     0.44863   0.49134   0.44303   0.00000  Uiso   1.00
N43    N     0.91082   0.73203   0.80157   0.00000  Uiso   1.00
N44    N     0.06403   0.58199   0.18225   0.00000  Uiso   1.00
N45    N     0.61666   0.52936   0.54129   0.00000  Uiso   1.00
N46    N     0.07885   0.77006   0.89983   0.00000  Uiso   1.00
C47    C     0.72371   0.08696   0.68278   0.00000  Uiso   1.00
C48    C     0.71628   0.08411   0.51802   0.00000  Uiso   1.00
C49    C     0.61570   0.06116   0.32490   0.00000  Uiso   1.00
C50    C     0.62714   0.06260   0.19645   0.00000  Uiso   1.00
C51    C     0.59918   0.05457   0.93114   0.00000  Uiso   1.00
C52    C     0.86841   0.06977   0.89262   0.00000  Uiso   1.00
C53    C     0.89573   0.03478   0.01446   0.00000  Uiso   1.00
C54    C     0.03524   0.02416   0.20136   0.00000  Uiso   1.00
C55    C     0.24347   0.99389   0.51770   0.00000  Uiso   1.00
C56    C     0.72295   0.13672   0.71672   0.00000  Uiso   1.00
C57    C     0.62799   0.15801   0.69073   0.00000  Uiso   1.00
C58    C     0.64506   0.20376   0.72958   0.00000  Uiso   1.00
C59    C     0.62744   0.27744   0.77280   0.00000  Uiso   1.00
C60    C     0.92290   0.13033   0.79806   0.00000  Uiso   1.00
C61    C     0.82447   0.10766   0.58064   0.00000  Uiso   1.00
C62    C     0.83607   0.10914   0.45244   0.00000  Uiso   1.00
C63    C     0.73552   0.08620   0.25916   0.00000  Uiso   1.00
C64    C     0.97660   0.09333   0.95523   0.00000  Uiso   1.00
C65    C     0.11610   0.08276   0.14200   0.00000  Uiso   1.00
C66    C     0.14363   0.04775   0.26409   0.00000  Uiso   1.00
C67    C     0.83114   0.16028   0.77933   0.00000  Uiso   1.00
C68    C     0.84836   0.20599   0.81825   0.00000  Uiso   1.00
C69    C     0.75345   0.22736   0.79231   0.00000  Uiso   1.00
H70    H     0.63949   0.06862   0.63405   0.00000  Uiso   1.00
H71    H     0.53199   0.04293   0.27652   0.00000  Uiso   1.00
H72    H     0.81199   0.01656   0.96598   0.00000  Uiso   1.00
H73    H     0.54429   0.13977   0.64227   0.00000  Uiso   1.00
H74    H     0.46056   0.02483   0.90777   0.00000  Uiso   1.00
H75    H     0.05094   0.96922   0.36158   0.00000  Uiso   1.00
H76    H     0.48644   0.22905   0.67899   0.00000  Uiso   1.00
H77    H     0.00713   0.14867   0.84681   0.00000  Uiso   1.00
H78    H     0.91980   0.12737   0.50094   0.00000  Uiso   1.00
H79    H     0.19980   0.10100   0.19040   0.00000  Uiso   1.00
H80    H     0.93210   0.22421   0.86670   0.00000  Uiso   1.00
H81    H     0.77532   0.09336   0.08992   0.00000  Uiso   1.00
H82    H     0.36570   0.03775   0.54374   0.00000  Uiso   1.00
H83    H     0.80121   0.29758   0.86114   0.00000  Uiso   1.00
O84    O     0.55389   0.04363   0.76752   0.00000  Uiso   1.00
O85    O     0.32844   0.97068   0.67487   0.00000  Uiso   1.00
O86    O     0.58783   0.31157   0.77932   0.00000  Uiso   1.00
N87    N     0.54661   0.04389   0.99809   0.00000  Uiso   1.00
N88    N     0.09857   0.99189   0.35729   0.00000  Uiso   1.00
N89    N     0.57084   0.23481   0.71919   0.00000  Uiso   1.00
N90    N     0.71598   0.08076   0.09610   0.00000  Uiso   1.00
N91    N     0.26794   0.02877   0.45531   0.00000  Uiso   1.00
N92    N     0.74021   0.27169   0.81720   0.00000  Uiso   1.00
C93    C     0.07031   0.41422   0.26743   0.00000  Uiso   1.00
C94    C     0.06332   0.41645   0.10307   0.00000  Uiso   1.00
C95    C     0.96386   0.43950   0.91016   0.00000  Uiso   1.00
C96    C     0.97554   0.43741   0.78207   0.00000  Uiso   1.00
C97    C     0.94840   0.44458   0.51737   0.00000  Uiso   1.00
C98    C     0.21564   0.43096   0.47763   0.00000  Uiso   1.00
C99    C     0.24423   0.46621   0.59964   0.00000  Uiso   1.00
C100   C     0.38413   0.47633   0.78686   0.00000  Uiso   1.00
C101   C     0.59346   0.50600   0.10374   0.00000  Uiso   1.00
C102   C     0.06740   0.36462   0.30080   0.00000  Uiso   1.00
C103   C     0.97138   0.34410   0.27420   0.00000  Uiso   1.00
C104   C     0.98650   0.29837   0.31260   0.00000  Uiso   1.00
C105   C     0.96567   0.22505   0.35493   0.00000  Uiso   1.00
C106   C     0.26791   0.36951   0.38300   0.00000  Uiso   1.00
C107   C     0.17066   0.39216   0.16586   0.00000  Uiso   1.00
C108   C     0.18248   0.39003   0.03802   0.00000  Uiso   1.00
C109   C     0.08305   0.41308   0.84495   0.00000  Uiso   1.00
C110   C     0.32296   0.40667   0.54040   0.00000  Uiso   1.00
C111   C     0.46285   0.41674   0.72750   0.00000  Uiso   1.00
C112   C     0.49165   0.45200   0.84975   0.00000  Uiso   1.00
C113   C     0.17473   0.34033   0.36357   0.00000  Uiso   1.00
C114   C     0.19000   0.29463   0.40205   0.00000  Uiso   1.00
C115   C     0.09402   0.27404   0.37549   0.00000  Uiso   1.00
H116   H     0.98676   0.43313   0.21858   0.00000  Uiso   1.00
H117   H     0.88083   0.45830   0.86165   0.00000  Uiso   1.00
H118   H     0.16115   0.48499   0.55103   0.00000  Uiso   1.00
H119   H     0.88834   0.36290   0.22562   0.00000  Uiso   1.00
H120   H     0.81074   0.47550   0.49365   0.00000  Uiso   1.00
H121   H     0.40182   0.53179   0.94728   0.00000  Uiso   1.00
H122   H     0.82655   0.27433   0.26111   0.00000  Uiso   1.00
H123   H     0.35147   0.35060   0.43188   0.00000  Uiso   1.00
H124   H     0.26555   0.37123   0.08664   0.00000  Uiso   1.00
H125   H     0.54588   0.39793   0.77603   0.00000  Uiso   1.00
H126   H     0.27307   0.27584   0.45062   0.00000  Uiso   1.00
H127   H     0.12300   0.40484   0.67626   0.00000  Uiso   1.00
H128   H     0.71408   0.46112   0.12991   0.00000  Uiso   1.00
H129   H     0.13881   0.20367   0.44372   0.00000  Uiso   1.00
O130   O     0.90380   0.45524   0.35404   0.00000  Uiso   1.00
O131   O     0.67927   0.52909   0.26116   0.00000  Uiso   1.00
O132   O     0.92452   0.19132   0.36091   0.00000  Uiso   1.00
N133   N     0.89601   0.45603   0.58399   0.00000  Uiso   1.00
N134   N     0.44863   0.50866   0.94303   0.00000  Uiso   1.00
N135   N     0.91082   0.26797   0.30157   0.00000  Uiso   1.00
N136   N     0.06403   0.41801   0.68225   0.00000  Uiso   1.00
N137   N     0.61666   0.47064   0.04129   0.00000  Uiso   1.00
N138   N     0.07885   0.22994   0.39983   0.00000  Uiso   1.00
C139   C     0.72371   0.91304   0.18278   0.00000  Uiso   1.00
C140   C     0.71628   0.91589   0.01802   0.00000  Uiso   1.00
C141   C     0.61570   0.93884   0.82490   0.00000  Uiso   1.00
C142   C     0.62714   0.93740   0.69645   0.00000  Uiso   1.00
C143   C     0.59918   0.94543   0.43114   0.00000  Uiso   1.00
C144   C     0.86841   0.93023   0.39262   0.00000  Uiso   1.00
C145   C     0.89573   0.96522   0.51446   0.00000  Uiso   1.00
C146   C     0.03524   0.97584   0.70136   0.00000  Uiso   1.00
C147   C     0.24347   0.00611   0.01770   0.00000  Uiso   1.00
C148   C     0.72295   0.86328   0.21672   0.00000  Uiso   1.00
C149   C     0.62799   0.84199   0.19073   0.00000  Uiso   1.00
C150   C     0.64506   0.79624   0.22958   0.00000  Uiso   1.00
C151   C     0.62744   0.72256   0.27280   0.00000  Uiso   1.00
C152   C     0.92290   0.86967   0.29806   0.00000  Uiso   1.00
C153   C     0.82447   0.89234   0.08064   0.00000  Uiso   1.00
C154   C     0.83607   0.89086   0.95244   0.00000  Uiso   1.00
C155   C     0.73552   0.91380   0.75916   0.00000  Uiso   1.00
C156   C     0.97660   0.90667   0.45523   0.00000  Uiso   1.00
C157   C     0.11610   0.91724   0.64200   0.00000  Uiso   1.00
C158   C     0.14363   0.95225   0.76409   0.00000  Uiso   1.00
C159   C     0.83114   0.83972   0.27933   0.00000  Uiso   1.00
C160   C     0.84836   0.79401   0.31825   0.00000  Uiso   1.00
C161   C     0.75345   0.77264   0.29231   0.00000  Uiso   1.00
H162   H     0.63949   0.93138   0.13405   0.00000  Uiso   1.00
H163   H     0.53199   0.95707   0.77652   0.00000  Uiso   1.00
H164   H     0.81199   0.98344   0.46598   0.00000  Uiso   1.00
H165   H     0.54429   0.86023   0.14227   0.00000  Uiso   1.00
H166   H     0.46056   0.97517   0.40777   0.00000  Uiso   1.00
H167   H     0.05094   0.03078   0.86158   0.00000  Uiso   1.00
H168   H     0.48644   0.77095   0.17899   0.00000  Uiso   1.00
H169   H     0.00713   0.85133   0.34681   0.00000  Uiso   1.00
H170   H     0.91980   0.87263   0.00094   0.00000  Uiso   1.00
H171   H     0.19980   0.89900   0.69040   0.00000  Uiso   1.00
H172   H     0.93210   0.77579   0.36670   0.00000  Uiso   1.00
H173   H     0.77532   0.90664   0.58992   0.00000  Uiso   1.00
H174   H     0.36570   0.96225   0.04374   0.00000  Uiso   1.00
H175   H     0.80121   0.70242   0.36114   0.00000  Uiso   1.00
O176   O     0.55389   0.95637   0.26752   0.00000  Uiso   1.00
O177   O     0.32844   0.02932   0.17487   0.00000  Uiso   1.00
O178   O     0.58783   0.68843   0.27932   0.00000  Uiso   1.00
N179   N     0.54661   0.95611   0.49809   0.00000  Uiso   1.00
N180   N     0.09857   0.00811   0.85729   0.00000  Uiso   1.00
N181   N     0.57084   0.76519   0.21919   0.00000  Uiso   1.00
N182   N     0.71598   0.91924   0.59610   0.00000  Uiso   1.00
N183   N     0.26794   0.97123   0.95531   0.00000  Uiso   1.00
N184   N     0.74021   0.72831   0.31720   0.00000  Uiso   1.00
