data_job_06384
_audit_creation_date              2018-12-19
_audit_creation_method            'Materials Studio'
_symmetry_space_group_name_H-M    'P1'
_symmetry_Int_Tables_number       1
_symmetry_cell_setting            triclinic
loop_
_symmetry_equiv_pos_as_xyz
  x,y,z
_cell_length_a                    12.5337
_cell_length_b                    20.4297
_cell_length_c                    20.4376
_cell_angle_alpha                 115.9610
_cell_angle_beta                  101.6329
_cell_angle_gamma                 101.8825
loop_
_atom_site_label
_atom_site_type_symbol
_atom_site_fract_x
_atom_site_fract_y
_atom_site_fract_z
_atom_site_U_iso_or_equiv
_atom_site_adp_type
_atom_site_occupancy
C1     C     0.01191   0.34877   0.47252   0.00000  Uiso   1.00
C2     C     0.12943   0.40845   0.52856   0.00000  Uiso   1.00
C3     C     0.22593   0.39241   0.55550   0.00000  Uiso   1.00
C4     C     0.32530   0.45507   0.60648   0.00000  Uiso   1.00
C5     C     0.50736   0.53618   0.69000   0.00000  Uiso   1.00
C6     C     0.92458   0.37014   0.51319   0.00000  Uiso   1.00
C7     C     0.84883   0.32188   0.52718   0.00000  Uiso   1.00
C8     C     0.77574   0.35228   0.56521   0.00000  Uiso   1.00
C9     C     0.63970   0.37389   0.62481   0.00000  Uiso   1.00
C10    C     0.98506   0.36353   0.40503   0.00000  Uiso   1.00
C11    C     0.96013   0.30971   0.32809   0.00000  Uiso   1.00
C12    C     0.93792   0.33455   0.27505   0.00000  Uiso   1.00
C13    C     0.89579   0.34591   0.16673   0.00000  Uiso   1.00
C14    C     0.01678   0.48857   0.51515   0.00000  Uiso   1.00
C15    C     0.13207   0.48438   0.55172   0.00000  Uiso   1.00
C16    C     0.23132   0.54708   0.60267   0.00000  Uiso   1.00
C17    C     0.32795   0.53113   0.62967   0.00000  Uiso   1.00
C18    C     0.92722   0.44606   0.53634   0.00000  Uiso   1.00
C19    C     0.85422   0.47654   0.57435   0.00000  Uiso   1.00
C20    C     0.77839   0.42835   0.58840   0.00000  Uiso   1.00
C21    C     0.98770   0.43946   0.42819   0.00000  Uiso   1.00
C22    C     0.96552   0.46438   0.37526   0.00000  Uiso   1.00
C23    C     0.94057   0.41062   0.29825   0.00000  Uiso   1.00
H24    H     0.00985   0.28966   0.45450   0.00000  Uiso   1.00
H25    H     0.22385   0.33364   0.53757   0.00000  Uiso   1.00
H26    H     0.84680   0.26312   0.50925   0.00000  Uiso   1.00
H27    H     0.95809   0.25096   0.31019   0.00000  Uiso   1.00
H28    H     0.46226   0.41589   0.63991   0.00000  Uiso   1.00
H29    H     0.66721   0.26718   0.58017   0.00000  Uiso   1.00
H30    H     0.90187   0.24154   0.16042   0.00000  Uiso   1.00
H31    H     0.01884   0.54768   0.53318   0.00000  Uiso   1.00
H32    H     0.23334   0.60583   0.62058   0.00000  Uiso   1.00
H33    H     0.85629   0.53530   0.59226   0.00000  Uiso   1.00
H34    H     0.96758   0.52315   0.39320   0.00000  Uiso   1.00
H35    H     0.46996   0.63681   0.70728   0.00000  Uiso   1.00
H36    H     0.67490   0.48810   0.64754   0.00000  Uiso   1.00
H37    H     0.90957   0.46246   0.22779   0.00000  Uiso   1.00
O38    O     0.60704   0.55995   0.72968   0.00000  Uiso   1.00
O39    O     0.56395   0.36484   0.65130   0.00000  Uiso   1.00
O40    O     0.87183   0.33120   0.10059   0.00000  Uiso   1.00
N41    N     0.43464   0.45991   0.64376   0.00000  Uiso   1.00
N42    N     0.69133   0.32087   0.58792   0.00000  Uiso   1.00
N43    N     0.91069   0.29689   0.19548   0.00000  Uiso   1.00
N44    N     0.43879   0.57878   0.68001   0.00000  Uiso   1.00
N45    N     0.69547   0.43975   0.62417   0.00000  Uiso   1.00
N46    N     0.91483   0.41577   0.23173   0.00000  Uiso   1.00
C47    C     0.54235   0.52725   0.87540   0.00000  Uiso   1.00
C48    C     0.60369   0.47107   0.87882   0.00000  Uiso   1.00
C49    C     0.67331   0.44401   0.83569   0.00000  Uiso   1.00
C50    C     0.72155   0.39292   0.84718   0.00000  Uiso   1.00
C51    C     0.81991   0.30917   0.84443   0.00000  Uiso   1.00
C52    C     0.41448   0.48663   0.85626   0.00000  Uiso   1.00
C53    C     0.32502   0.47267   0.79418   0.00000  Uiso   1.00
C54    C     0.21398   0.43468   0.78670   0.00000  Uiso   1.00
C55    C     0.01858   0.37514   0.74897   0.00000  Uiso   1.00
C56    C     0.58273   0.59483   0.95765   0.00000  Uiso   1.00
C57    C     0.63471   0.67186   0.98082   0.00000  Uiso   1.00
C58    C     0.66531   0.72498   0.05868   0.00000  Uiso   1.00
C59    C     0.73114   0.83345   0.17837   0.00000  Uiso   1.00
C60    C     0.50422   0.48462   0.97249   0.00000  Uiso   1.00
C61    C     0.58298   0.44791   0.93155   0.00000  Uiso   1.00
C62    C     0.63113   0.39684   0.94311   0.00000  Uiso   1.00
C63    C     0.70082   0.36972   0.90001   0.00000  Uiso   1.00
C64    C     0.39377   0.46347   0.90899   0.00000  Uiso   1.00
C65    C     0.28284   0.42550   0.90160   0.00000  Uiso   1.00
C66    C     0.19324   0.41148   0.83952   0.00000  Uiso   1.00
C67    C     0.56203   0.57168   0.01038   0.00000  Uiso   1.00
C68    C     0.59254   0.62469   0.08823   0.00000  Uiso   1.00
C69    C     0.64456   0.70178   0.11151   0.00000  Uiso   1.00
H70    H     0.55846   0.54527   0.83435   0.00000  Uiso   1.00
H71    H     0.68930   0.46194   0.79489   0.00000  Uiso   1.00
H72    H     0.34107   0.49060   0.75339   0.00000  Uiso   1.00
H73    H     0.65072   0.68976   0.93999   0.00000  Uiso   1.00
H74    H     0.82521   0.35931   0.77437   0.00000  Uiso   1.00
H75    H     0.09093   0.41977   0.68689   0.00000  Uiso   1.00
H76    H     0.74388   0.83974   0.08038   0.00000  Uiso   1.00
H77    H     0.48810   0.46659   0.01354   0.00000  Uiso   1.00
H78    H     0.61509   0.37894   0.98392   0.00000  Uiso   1.00
H79    H     0.26685   0.40759   0.94242   0.00000  Uiso   1.00
H80    H     0.57650   0.60675   0.12902   0.00000  Uiso   1.00
H81    H     0.76497   0.29194   0.92779   0.00000  Uiso   1.00
H82    H     0.03069   0.35240   0.84031   0.00000  Uiso   1.00
H83    H     0.68365   0.77236   0.23380   0.00000  Uiso   1.00
O84    O     0.87986   0.26937   0.82834   0.00000  Uiso   1.00
O85    O     0.91652   0.34869   0.71358   0.00000  Uiso   1.00
O86    O     0.77319   0.89968   0.22982   0.00000  Uiso   1.00
N87    N     0.79362   0.35550   0.81456   0.00000  Uiso   1.00
N88    N     0.10712   0.41201   0.73276   0.00000  Uiso   1.00
N89    N     0.71754   0.80465   0.10063   0.00000  Uiso   1.00
N90    N     0.76121   0.31925   0.89711   0.00000  Uiso   1.00
N91    N     0.07470   0.37576   0.81532   0.00000  Uiso   1.00
N92    N     0.68513   0.76840   0.18319   0.00000  Uiso   1.00
C93    C     0.66045   0.12398   0.65200   0.00000  Uiso   1.00
C94    C     0.71853   0.12049   0.59233   0.00000  Uiso   1.00
C95    C     0.83117   0.16358   0.60827   0.00000  Uiso   1.00
C96    C     0.86810   0.15202   0.54564   0.00000  Uiso   1.00
C97    C     0.96940   0.15466   0.46452   0.00000  Uiso   1.00
C98    C     0.55192   0.14324   0.63076   0.00000  Uiso   1.00
C99    C     0.52446   0.20545   0.67902   0.00000  Uiso   1.00
C100   C     0.42113   0.21304   0.64874   0.00000  Uiso   1.00
C101   C     0.26371   0.25095   0.62730   0.00000  Uiso   1.00
C102   C     0.61858   0.04164   0.63727   0.00000  Uiso   1.00
C103   C     0.64715   0.01843   0.69099   0.00000  Uiso   1.00
C104   C     0.59992   0.94047   0.66620   0.00000  Uiso   1.00
C105   C     0.54601   0.82064   0.65486   0.00000  Uiso   1.00
C106   C     0.52574   0.02681   0.51244   0.00000  Uiso   1.00
C107   C     0.64536   0.06771   0.51653   0.00000  Uiso   1.00
C108   C     0.68213   0.05608   0.45386   0.00000  Uiso   1.00
C109   C     0.79480   0.09915   0.46970   0.00000  Uiso   1.00
C110   C     0.47875   0.09046   0.55496   0.00000  Uiso   1.00
C111   C     0.37542   0.09795   0.52461   0.00000  Uiso   1.00
C112   C     0.34782   0.16016   0.57280   0.00000  Uiso   1.00
C113   C     0.54541   0.98886   0.56146   0.00000  Uiso   1.00
C114   C     0.49811   0.91092   0.53658   0.00000  Uiso   1.00
C115   C     0.52661   0.88760   0.59026   0.00000  Uiso   1.00
H116   H     0.71741   0.16507   0.71102   0.00000  Uiso   1.00
H117   H     0.88776   0.20443   0.66694   0.00000  Uiso   1.00
H118   H     0.58110   0.24628   0.73768   0.00000  Uiso   1.00
H119   H     0.70377   0.05928   0.74965   0.00000  Uiso   1.00
H120   H     0.04435   0.22480   0.58465   0.00000  Uiso   1.00
H121   H     0.39772   0.31304   0.73381   0.00000  Uiso   1.00
H122   H     0.65639   0.91872   0.75905   0.00000  Uiso   1.00
H123   H     0.46877   0.98572   0.45342   0.00000  Uiso   1.00
H124   H     0.62549   0.01523   0.39520   0.00000  Uiso   1.00
H125   H     0.31882   0.05710   0.46594   0.00000  Uiso   1.00
H126   H     0.44150   0.87010   0.47791   0.00000  Uiso   1.00
H127   H     0.83147   0.07125   0.36409   0.00000  Uiso   1.00
H128   H     0.18484   0.15950   0.51326   0.00000  Uiso   1.00
H129   H     0.44352   0.76518   0.53850   0.00000  Uiso   1.00
O130   O     0.04548   0.17070   0.44072   0.00000  Uiso   1.00
O131   O     0.19711   0.28646   0.63642   0.00000  Uiso   1.00
O132   O     0.53650   0.76912   0.66954   0.00000  Uiso   1.00
N133   N     0.97275   0.18460   0.54073   0.00000  Uiso   1.00
N134   N     0.36819   0.26711   0.68018   0.00000  Uiso   1.00
N135   N     0.61001   0.89846   0.70379   0.00000  Uiso   1.00
N136   N     0.85820   0.10198   0.42205   0.00000  Uiso   1.00
N137   N     0.25365   0.18449   0.56150   0.00000  Uiso   1.00
N138   N     0.49547   0.81583   0.58511   0.00000  Uiso   1.00
C139   C     0.16352   0.65126   0.12402   0.00000  Uiso   1.00
C140   C     0.22136   0.59156   0.12041   0.00000  Uiso   1.00
C141   C     0.33388   0.60757   0.16336   0.00000  Uiso   1.00
C142   C     0.37060   0.54490   0.15171   0.00000  Uiso   1.00
C143   C     0.47154   0.46375   0.15415   0.00000  Uiso   1.00
C144   C     0.05481   0.62987   0.14332   0.00000  Uiso   1.00
C145   C     0.02730   0.67810   0.20553   0.00000  Uiso   1.00
C146   C     0.92380   0.64767   0.21316   0.00000  Uiso   1.00
C147   C     0.76614   0.62602   0.25114   0.00000  Uiso   1.00
C148   C     0.12194   0.63656   0.04181   0.00000  Uiso   1.00
C149   C     0.15083   0.69042   0.01867   0.00000  Uiso   1.00
C150   C     0.10383   0.66563   0.94084   0.00000  Uiso   1.00
C151   C     0.05038   0.65437   0.82122   0.00000  Uiso   1.00
C152   C     0.02863   0.51148   0.02695   0.00000  Uiso   1.00
C153   C     0.14809   0.51564   0.06769   0.00000  Uiso   1.00
C154   C     0.18464   0.45293   0.05597   0.00000  Uiso   1.00
C155   C     0.29720   0.46885   0.09889   0.00000  Uiso   1.00
C156   C     0.98155   0.55395   0.09060   0.00000  Uiso   1.00
C157   C     0.87806   0.52345   0.09814   0.00000  Uiso   1.00
C158   C     0.85040   0.57162   0.16034   0.00000  Uiso   1.00
C159   C     0.04867   0.56064   0.98909   0.00000  Uiso   1.00
C160   C     0.00160   0.53577   0.91128   0.00000  Uiso   1.00
C161   C     0.03042   0.58958   0.88802   0.00000  Uiso   1.00
H162   H     0.22055   0.71036   0.16507   0.00000  Uiso   1.00
H163   H     0.39055   0.66633   0.20416   0.00000  Uiso   1.00
H164   H     0.08401   0.73685   0.24632   0.00000  Uiso   1.00
H165   H     0.20753   0.74916   0.05949   0.00000  Uiso   1.00
H166   H     0.54671   0.58403   0.22427   0.00000  Uiso   1.00
H167   H     0.90033   0.73272   0.31315   0.00000  Uiso   1.00
H168   H     0.16079   0.75870   0.91918   0.00000  Uiso   1.00
H169   H     0.97158   0.45237   0.98590   0.00000  Uiso   1.00
H170   H     0.12792   0.39418   0.01516   0.00000  Uiso   1.00
H171   H     0.82138   0.46470   0.05732   0.00000  Uiso   1.00
H172   H     0.94490   0.47702   0.87049   0.00000  Uiso   1.00
H173   H     0.33354   0.36315   0.07088   0.00000  Uiso   1.00
H174   H     0.68716   0.51184   0.15975   0.00000  Uiso   1.00
H175   H     0.94763   0.53781   0.76579   0.00000  Uiso   1.00
O176   O     0.54745   0.43996   0.17008   0.00000  Uiso   1.00
O177   O     0.69942   0.63505   0.28667   0.00000  Uiso   1.00
O178   O     0.04115   0.66912   0.76980   0.00000  Uiso   1.00
N179   N     0.47509   0.54004   0.18414   0.00000  Uiso   1.00
N180   N     0.87077   0.67905   0.26724   0.00000  Uiso   1.00
N181   N     0.11426   0.70334   0.89893   0.00000  Uiso   1.00
N182   N     0.36039   0.42118   0.10160   0.00000  Uiso   1.00
N183   N     0.75607   0.56019   0.18470   0.00000  Uiso   1.00
N184   N     0.99956   0.58448   0.81638   0.00000  Uiso   1.00
C185   C     0.51479   0.47248   0.34791   0.00000  Uiso   1.00
C186   C     0.63229   0.52864   0.40746   0.00000  Uiso   1.00
C187   C     0.72898   0.55572   0.39139   0.00000  Uiso   1.00
C188   C     0.82829   0.60679   0.45393   0.00000  Uiso   1.00
C189   C     0.01036   0.69050   0.53486   0.00000  Uiso   1.00
C190   C     0.42754   0.51310   0.36937   0.00000  Uiso   1.00
C191   C     0.35206   0.52711   0.32127   0.00000  Uiso   1.00
C192   C     0.27900   0.56508   0.35174   0.00000  Uiso   1.00
C193   C     0.14312   0.62462   0.37351   0.00000  Uiso   1.00
C194   C     0.48758   0.40486   0.36260   0.00000  Uiso   1.00
C195   C     0.46255   0.32784   0.30879   0.00000  Uiso   1.00
C196   C     0.44002   0.27468   0.33355   0.00000  Uiso   1.00
C197   C     0.39737   0.16616   0.34480   0.00000  Uiso   1.00
C198   C     0.51924   0.51502   0.48755   0.00000  Uiso   1.00
C199   C     0.63471   0.55174   0.48331   0.00000  Uiso   1.00
C200   C     0.73391   0.60278   0.54589   0.00000  Uiso   1.00
C201   C     0.83072   0.62993   0.52991   0.00000  Uiso   1.00
C202   C     0.42996   0.53621   0.44522   0.00000  Uiso   1.00
C203   C     0.35698   0.57416   0.47576   0.00000  Uiso   1.00
C204   C     0.28142   0.58823   0.42772   0.00000  Uiso   1.00
C205   C     0.49000   0.42796   0.43844   0.00000  Uiso   1.00
C206   C     0.46749   0.37490   0.46329   0.00000  Uiso   1.00
C207   C     0.44244   0.29783   0.40953   0.00000  Uiso   1.00
H208   H     0.51290   0.45450   0.28886   0.00000  Uiso   1.00
H209   H     0.72707   0.53783   0.33269   0.00000  Uiso   1.00
H210   H     0.35020   0.50921   0.26257   0.00000  Uiso   1.00
H211   H     0.46069   0.30999   0.25010   0.00000  Uiso   1.00
H212   H     0.96556   0.64044   0.41473   0.00000  Uiso   1.00
H213   H     0.17089   0.58007   0.26687   0.00000  Uiso   1.00
H214   H     0.40387   0.15996   0.24057   0.00000  Uiso   1.00
H215   H     0.52112   0.53300   0.54661   0.00000  Uiso   1.00
H216   H     0.73575   0.62065   0.60458   0.00000  Uiso   1.00
H217   H     0.35888   0.59203   0.53446   0.00000  Uiso   1.00
H218   H     0.46937   0.39280   0.52199   0.00000  Uiso   1.00
H219   H     0.97261   0.70766   0.63540   0.00000  Uiso   1.00
H220   H     0.17793   0.64729   0.48755   0.00000  Uiso   1.00
H221   H     0.41092   0.22717   0.46125   0.00000  Uiso   1.00
O222   O     0.11012   0.73030   0.55855   0.00000  Uiso   1.00
O223   O     0.06752   0.65109   0.36457   0.00000  Uiso   1.00
O224   O     0.37320   0.09992   0.33006   0.00000  Uiso   1.00
N225   N     0.93778   0.64422   0.45871   0.00000  Uiso   1.00
N226   N     0.19481   0.58779   0.32048   0.00000  Uiso   1.00
N227   N     0.41260   0.19501   0.29588   0.00000  Uiso   1.00
N228   N     0.94157   0.68039   0.57745   0.00000  Uiso   1.00
N229   N     0.19860   0.62396   0.43922   0.00000  Uiso   1.00
N230   N     0.41640   0.23118   0.41462   0.00000  Uiso   1.00
C231   C     0.03640   0.87626   0.52799   0.00000  Uiso   1.00
C232   C     0.09800   0.87980   0.47184   0.00000  Uiso   1.00
C233   C     0.16755   0.83671   0.44471   0.00000  Uiso   1.00
C234   C     0.21606   0.84832   0.39366   0.00000  Uiso   1.00
C235   C     0.31476   0.84575   0.30994   0.00000  Uiso   1.00
C236   C     0.90863   0.85703   0.48752   0.00000  Uiso   1.00
C237   C     0.81896   0.79480   0.47359   0.00000  Uiso   1.00
C238   C     0.70805   0.78724   0.43575   0.00000  Uiso   1.00
C239   C     0.51274   0.74935   0.37643   0.00000  Uiso   1.00
C240   C     0.07685   0.95858   0.59554   0.00000  Uiso   1.00
C241   C     0.12860   0.98174   0.67244   0.00000  Uiso   1.00
C242   C     0.15930   0.05969   0.72555   0.00000  Uiso   1.00
C243   C     0.22518   0.17948   0.83394   0.00000  Uiso   1.00
C244   C     0.99888   0.97350   0.48557   0.00000  Uiso   1.00
C245   C     0.07761   0.93262   0.44880   0.00000  Uiso   1.00
C246   C     0.12603   0.94430   0.39777   0.00000  Uiso   1.00
C247   C     0.19565   0.90123   0.37058   0.00000  Uiso   1.00
C248   C     0.88824   0.90984   0.46448   0.00000  Uiso   1.00
C249   C     0.77744   0.90238   0.42666   0.00000  Uiso   1.00
C250   C     0.68763   0.84015   0.41267   0.00000  Uiso   1.00
C251   C     0.05647   0.01140   0.57250   0.00000  Uiso   1.00
C252   C     0.08709   0.08932   0.62550   0.00000  Uiso   1.00
C253   C     0.13888   0.11260   0.70246   0.00000  Uiso   1.00
H254   H     0.05226   0.83514   0.54593   0.00000  Uiso   1.00
H255   H     0.18329   0.79584   0.46255   0.00000  Uiso   1.00
H256   H     0.83476   0.75394   0.49144   0.00000  Uiso   1.00
H257   H     0.14436   0.94085   0.69025   0.00000  Uiso   1.00
H258   H     0.31955   0.77554   0.35993   0.00000  Uiso   1.00
H259   H     0.58464   0.68720   0.42085   0.00000  Uiso   1.00
H260   H     0.23748   0.08135   0.84009   0.00000  Uiso   1.00
H261   H     0.98300   0.01462   0.46763   0.00000  Uiso   1.00
H262   H     0.11024   0.98517   0.37995   0.00000  Uiso   1.00
H263   H     0.76170   0.94327   0.40884   0.00000  Uiso   1.00
H264   H     0.07130   0.13018   0.60765   0.00000  Uiso   1.00
H265   H     0.26025   0.92920   0.29288   0.00000  Uiso   1.00
H266   H     0.52534   0.84087   0.35381   0.00000  Uiso   1.00
H267   H     0.17818   0.23501   0.77305   0.00000  Uiso   1.00
O268   O     0.37482   0.82974   0.27012   0.00000  Uiso   1.00
O269   O     0.41065   0.71385   0.35007   0.00000  Uiso   1.00
O270   O     0.26717   0.23096   0.90010   0.00000  Uiso   1.00
N271   N     0.28815   0.81576   0.35619   0.00000  Uiso   1.00
N272   N     0.60105   0.73316   0.41314   0.00000  Uiso   1.00
N273   N     0.21138   0.10165   0.80510   0.00000  Uiso   1.00
N274   N     0.25624   0.89844   0.32012   0.00000  Uiso   1.00
N275   N     0.56915   0.81585   0.37707   0.00000  Uiso   1.00
N276   N     0.17947   0.18434   0.76902   0.00000  Uiso   1.00
