data_job_06573
_audit_creation_date              2018-12-19
_audit_creation_method            'Materials Studio'
_symmetry_space_group_name_H-M    'P1'
_symmetry_Int_Tables_number       1
_symmetry_cell_setting            triclinic
loop_
_symmetry_equiv_pos_as_xyz
  x,y,z
_cell_length_a                    18.5814
_cell_length_b                    20.9568
_cell_length_c                    21.2889
_cell_angle_alpha                 73.8430
_cell_angle_beta                  70.5751
_cell_angle_gamma                 71.7819
loop_
_atom_site_label
_atom_site_type_symbol
_atom_site_fract_x
_atom_site_fract_y
_atom_site_fract_z
_atom_site_U_iso_or_equiv
_atom_site_adp_type
_atom_site_occupancy
C1     C     0.18713   0.61145   0.73432   0.00000  Uiso   1.00
C2     C     0.22625   0.55501   0.78404   0.00000  Uiso   1.00
C3     C     0.27707   0.56155   0.81582   0.00000  Uiso   1.00
C4     C     0.30665   0.50390   0.85955   0.00000  Uiso   1.00
C5     C     0.37055   0.42567   0.93498   0.00000  Uiso   1.00
C6     C     0.21033   0.58336   0.66965   0.00000  Uiso   1.00
C7     C     0.24776   0.61376   0.60524   0.00000  Uiso   1.00
C8     C     0.26393   0.57999   0.55267   0.00000  Uiso   1.00
C9     C     0.30306   0.54581   0.45050   0.00000  Uiso   1.00
C10    C     0.09889   0.61785   0.76376   0.00000  Uiso   1.00
C11    C     0.04261   0.67724   0.77847   0.00000  Uiso   1.00
C12    C     0.96495   0.67250   0.80513   0.00000  Uiso   1.00
C13    C     0.83104   0.69186   0.84908   0.00000  Uiso   1.00
C14    C     0.14928   0.49744   0.75548   0.00000  Uiso   1.00
C15    C     0.20569   0.49308   0.79553   0.00000  Uiso   1.00
C16    C     0.23520   0.43541   0.83923   0.00000  Uiso   1.00
C17    C     0.28606   0.44186   0.87107   0.00000  Uiso   1.00
C18    C     0.18977   0.52144   0.68114   0.00000  Uiso   1.00
C19    C     0.20589   0.48762   0.62865   0.00000  Uiso   1.00
C20    C     0.24334   0.51795   0.56418   0.00000  Uiso   1.00
C21    C     0.07833   0.55592   0.77526   0.00000  Uiso   1.00
C22    C     0.00074   0.55109   0.80189   0.00000  Uiso   1.00
C23    C     0.94435   0.61046   0.81664   0.00000  Uiso   1.00
H24    H     0.20314   0.65966   0.72536   0.00000  Uiso   1.00
H25    H     0.29297   0.60948   0.80690   0.00000  Uiso   1.00
H26    H     0.26365   0.66169   0.59636   0.00000  Uiso   1.00
H27    H     0.05854   0.72515   0.76957   0.00000  Uiso   1.00
H28    H     0.38353   0.52653   0.90236   0.00000  Uiso   1.00
H29    H     0.32169   0.63662   0.45841   0.00000  Uiso   1.00
H30    H     0.88916   0.77045   0.82365   0.00000  Uiso   1.00
H31    H     0.13328   0.44922   0.76442   0.00000  Uiso   1.00
H32    H     0.21928   0.38749   0.84811   0.00000  Uiso   1.00
H33    H     0.18996   0.43969   0.63757   0.00000  Uiso   1.00
H34    H     0.98485   0.50316   0.81077   0.00000  Uiso   1.00
H35    H     0.32372   0.34635   0.93580   0.00000  Uiso   1.00
H36    H     0.26188   0.45644   0.49185   0.00000  Uiso   1.00
H37    H     0.82935   0.59027   0.85709   0.00000  Uiso   1.00
O38    O     0.41148   0.39962   0.97341   0.00000  Uiso   1.00
O39    O     0.33033   0.54406   0.39096   0.00000  Uiso   1.00
O40    O     0.76287   0.71964   0.87015   0.00000  Uiso   1.00
N41    N     0.35764   0.49260   0.89875   0.00000  Uiso   1.00
N42    N     0.29983   0.59552   0.48369   0.00000  Uiso   1.00
N43    N     0.89545   0.72064   0.82514   0.00000  Uiso   1.00
N44    N     0.32545   0.39565   0.91675   0.00000  Uiso   1.00
N45    N     0.26765   0.49857   0.50168   0.00000  Uiso   1.00
N46    N     0.86327   0.62369   0.84314   0.00000  Uiso   1.00
C47    C     0.75587   0.21891   0.61653   0.00000  Uiso   1.00
C48    C     0.81949   0.25457   0.56842   0.00000  Uiso   1.00
C49    C     0.84816   0.30050   0.58368   0.00000  Uiso   1.00
C50    C     0.90635   0.32754   0.53274   0.00000  Uiso   1.00
C51    C     0.00077   0.38571   0.46775   0.00000  Uiso   1.00
C52    C     0.69179   0.23677   0.58028   0.00000  Uiso   1.00
C53    C     0.61309   0.26773   0.60551   0.00000  Uiso   1.00
C54    C     0.56379   0.27978   0.56455   0.00000  Uiso   1.00
C55    C     0.45995   0.31028   0.51799   0.00000  Uiso   1.00
C56    C     0.79223   0.14233   0.62028   0.00000  Uiso   1.00
C57    C     0.79797   0.09387   0.67915   0.00000  Uiso   1.00
C58    C     0.83321   0.02640   0.67186   0.00000  Uiso   1.00
C59    C     0.88531   0.91026   0.68741   0.00000  Uiso   1.00
C60    C     0.80824   0.18524   0.49891   0.00000  Uiso   1.00
C61    C     0.84793   0.23628   0.50454   0.00000  Uiso   1.00
C62    C     0.90610   0.26325   0.45356   0.00000  Uiso   1.00
C63    C     0.93485   0.30921   0.46874   0.00000  Uiso   1.00
C64    C     0.72023   0.21848   0.51640   0.00000  Uiso   1.00
C65    C     0.67103   0.23048   0.47539   0.00000  Uiso   1.00
C66    C     0.59229   0.26146   0.50055   0.00000  Uiso   1.00
C67    C     0.82068   0.12404   0.55640   0.00000  Uiso   1.00
C68    C     0.85591   0.05662   0.54902   0.00000  Uiso   1.00
C69    C     0.86171   0.00808   0.60787   0.00000  Uiso   1.00
H70    H     0.73373   0.23315   0.66626   0.00000  Uiso   1.00
H71    H     0.82612   0.31465   0.63313   0.00000  Uiso   1.00
H72    H     0.59110   0.28187   0.65495   0.00000  Uiso   1.00
H73    H     0.77595   0.10805   0.72858   0.00000  Uiso   1.00
H74    H     0.94109   0.39695   0.56821   0.00000  Uiso   1.00
H75    H     0.44552   0.32783   0.61424   0.00000  Uiso   1.00
H76    H     0.83531   0.96128   0.76949   0.00000  Uiso   1.00
H77    H     0.83039   0.17100   0.44918   0.00000  Uiso   1.00
H78    H     0.92809   0.24909   0.40413   0.00000  Uiso   1.00
H79    H     0.69307   0.21632   0.42595   0.00000  Uiso   1.00
H80    H     0.87791   0.04249   0.49958   0.00000  Uiso   1.00
H81    H     0.02385   0.34375   0.38234   0.00000  Uiso   1.00
H82    H     0.52828   0.27463   0.42838   0.00000  Uiso   1.00
H83    H     0.91807   0.90807   0.58362   0.00000  Uiso   1.00
O84    O     0.04498   0.42286   0.44955   0.00000  Uiso   1.00
O85    O     0.39481   0.33216   0.50995   0.00000  Uiso   1.00
O86    O     0.90621   0.85125   0.71363   0.00000  Uiso   1.00
N87    N     0.94717   0.37370   0.53065   0.00000  Uiso   1.00
N88    N     0.48384   0.30909   0.57369   0.00000  Uiso   1.00
N89    N     0.84824   0.96639   0.71883   0.00000  Uiso   1.00
N90    N     0.99170   0.34507   0.43064   0.00000  Uiso   1.00
N91    N     0.52838   0.28046   0.47367   0.00000  Uiso   1.00
N92    N     0.89278   0.93776   0.61882   0.00000  Uiso   1.00
C93    C     0.62137   0.75370   0.21577   0.00000  Uiso   1.00
C94    C     0.55628   0.81041   0.24709   0.00000  Uiso   1.00
C95    C     0.55983   0.84305   0.29407   0.00000  Uiso   1.00
C96    C     0.49410   0.89360   0.31657   0.00000  Uiso   1.00
C97    C     0.40318   0.97901   0.36883   0.00000  Uiso   1.00
C98    C     0.58473   0.69341   0.23127   0.00000  Uiso   1.00
C99    C     0.61221   0.62768   0.26495   0.00000  Uiso   1.00
C100   C     0.57043   0.57974   0.27413   0.00000  Uiso   1.00
C101   C     0.52372   0.48348   0.30178   0.00000  Uiso   1.00
C102   C     0.63878   0.77902   0.13909   0.00000  Uiso   1.00
C103   C     0.71170   0.78526   0.09525   0.00000  Uiso   1.00
C104   C     0.71544   0.80938   0.02681   0.00000  Uiso   1.00
C105   C     0.75264   0.84605   0.91134   0.00000  Uiso   1.00
C106   C     0.49833   0.78542   0.17218   0.00000  Uiso   1.00
C107   C     0.48945   0.82763   0.22341   0.00000  Uiso   1.00
C108   C     0.42370   0.87815   0.24584   0.00000  Uiso   1.00
C109   C     0.42715   0.91086   0.29285   0.00000  Uiso   1.00
C110   C     0.51790   0.71063   0.20760   0.00000  Uiso   1.00
C111   C     0.47608   0.66277   0.21672   0.00000  Uiso   1.00
C112   C     0.50348   0.59699   0.25041   0.00000  Uiso   1.00
C113   C     0.57195   0.79625   0.11541   0.00000  Uiso   1.00
C114   C     0.57557   0.82035   0.04702   0.00000  Uiso   1.00
C115   C     0.64849   0.82664   0.00309   0.00000  Uiso   1.00
H116   H     0.67340   0.74028   0.23420   0.00000  Uiso   1.00
H117   H     0.61155   0.82970   0.31239   0.00000  Uiso   1.00
H118   H     0.66393   0.61436   0.28326   0.00000  Uiso   1.00
H119   H     0.76341   0.77192   0.11359   0.00000  Uiso   1.00
H120   H     0.51350   0.93642   0.38864   0.00000  Uiso   1.00
H121   H     0.62396   0.48236   0.32721   0.00000  Uiso   1.00
H122   H     0.83373   0.81460   0.96943   0.00000  Uiso   1.00
H123   H     0.44630   0.79883   0.15375   0.00000  Uiso   1.00
H124   H     0.37199   0.89147   0.22751   0.00000  Uiso   1.00
H125   H     0.42436   0.67612   0.19839   0.00000  Uiso   1.00
H126   H     0.52384   0.83368   0.02872   0.00000  Uiso   1.00
H127   H     0.31906   0.98655   0.31976   0.00000  Uiso   1.00
H128   H     0.42952   0.53248   0.25833   0.00000  Uiso   1.00
H129   H     0.63929   0.86473   0.90054   0.00000  Uiso   1.00
O130   O     0.37149   0.02135   0.40420   0.00000  Uiso   1.00
O131   O     0.51641   0.42563   0.32359   0.00000  Uiso   1.00
O132   O     0.79163   0.86153   0.85419   0.00000  Uiso   1.00
N133   N     0.47795   0.93551   0.36230   0.00000  Uiso   1.00
N134   N     0.58121   0.51099   0.30487   0.00000  Uiso   1.00
N135   N     0.77733   0.82160   0.97037   0.00000  Uiso   1.00
N136   N     0.37332   0.96249   0.32523   0.00000  Uiso   1.00
N137   N     0.47658   0.53797   0.26781   0.00000  Uiso   1.00
N138   N     0.67270   0.84857   0.93331   0.00000  Uiso   1.00
C139   C     0.72340   0.24328   0.11768   0.00000  Uiso   1.00
C140   C     0.77122   0.29400   0.07081   0.00000  Uiso   1.00
C141   C     0.82563   0.31528   0.08661   0.00000  Uiso   1.00
C142   C     0.86323   0.36198   0.03679   0.00000  Uiso   1.00
C143   C     0.93998   0.43698   0.97362   0.00000  Uiso   1.00
C144   C     0.74113   0.18633   0.07914   0.00000  Uiso   1.00
C145   C     0.77023   0.11709   0.10196   0.00000  Uiso   1.00
C146   C     0.78249   0.07315   0.05916   0.00000  Uiso   1.00
C147   C     0.81246   0.98099   0.00895   0.00000  Uiso   1.00
C148   C     0.63732   0.28041   0.12321   0.00000  Uiso   1.00
C149   C     0.57914   0.29024   0.18308   0.00000  Uiso   1.00
C150   C     0.50400   0.32549   0.17738   0.00000  Uiso   1.00
C151   C     0.37280   0.37939   0.19561   0.00000  Uiso   1.00
C152   C     0.69341   0.28838   0.00111   0.00000  Uiso   1.00
C153   C     0.75492   0.31850   0.00749   0.00000  Uiso   1.00
C154   C     0.79245   0.36518   0.95764   0.00000  Uiso   1.00
C155   C     0.84691   0.38652   0.97336   0.00000  Uiso   1.00
C156   C     0.72483   0.21083   0.01583   0.00000  Uiso   1.00
C157   C     0.73704   0.16698   0.97299   0.00000  Uiso   1.00
C158   C     0.76616   0.09768   0.99573   0.00000  Uiso   1.00
C159   C     0.62103   0.30490   0.05990   0.00000  Uiso   1.00
C160   C     0.54596   0.34014   0.05411   0.00000  Uiso   1.00
C161   C     0.48768   0.35003   0.11396   0.00000  Uiso   1.00
H162   H     0.73609   0.22421   0.16698   0.00000  Uiso   1.00
H163   H     0.83823   0.29631   0.13561   0.00000  Uiso   1.00
H164   H     0.78283   0.09814   0.15096   0.00000  Uiso   1.00
H165   H     0.59177   0.27127   0.23207   0.00000  Uiso   1.00
H166   H     0.94431   0.38703   0.07290   0.00000  Uiso   1.00
H167   H     0.82746   0.96919   0.10528   0.00000  Uiso   1.00
H168   H     0.42458   0.33426   0.27631   0.00000  Uiso   1.00
H169   H     0.68072   0.30745   0.95182   0.00000  Uiso   1.00
H170   H     0.77983   0.38412   0.90864   0.00000  Uiso   1.00
H171   H     0.72443   0.18595   0.92400   0.00000  Uiso   1.00
H172   H     0.53337   0.35909   0.00510   0.00000  Uiso   1.00
H173   H     0.89691   0.45830   0.88869   0.00000  Uiso   1.00
H174   H     0.78006   0.04045   0.92107   0.00000  Uiso   1.00
H175   H     0.37718   0.40553   0.09210   0.00000  Uiso   1.00
O176   O     0.98682   0.47158   0.95627   0.00000  Uiso   1.00
O177   O     0.83351   0.92339   0.99875   0.00000  Uiso   1.00
O178   O     0.30494   0.40236   0.22314   0.00000  Uiso   1.00
N179   N     0.91954   0.39329   0.03548   0.00000  Uiso   1.00
N180   N     0.81031   0.00263   0.06574   0.00000  Uiso   1.00
N181   N     0.43364   0.34393   0.22565   0.00000  Uiso   1.00
N182   N     0.89403   0.43164   0.93636   0.00000  Uiso   1.00
N183   N     0.78480   0.04098   0.96662   0.00000  Uiso   1.00
N184   N     0.40814   0.38228   0.12652   0.00000  Uiso   1.00
C185   C     0.24796   0.11610   0.71498   0.00000  Uiso   1.00
C186   C     0.31010   0.05950   0.74377   0.00000  Uiso   1.00
C187   C     0.34423   0.06381   0.79088   0.00000  Uiso   1.00
C188   C     0.39993   0.00643   0.81083   0.00000  Uiso   1.00
C189   C     0.49323   0.92758   0.85955   0.00000  Uiso   1.00
C190   C     0.17832   0.08530   0.73000   0.00000  Uiso   1.00
C191   C     0.10165   0.11132   0.76554   0.00000  Uiso   1.00
C192   C     0.04641   0.07566   0.77389   0.00000  Uiso   1.00
C193   C     0.93511   0.03690   0.80119   0.00000  Uiso   1.00
C194   C     0.28165   0.12840   0.63804   0.00000  Uiso   1.00
C195   C     0.29184   0.19065   0.59625   0.00000  Uiso   1.00
C196   C     0.32359   0.19128   0.52717   0.00000  Uiso   1.00
C197   C     0.37273   0.21944   0.41169   0.00000  Uiso   1.00
C198   C     0.28618   0.00652   0.66662   0.00000  Uiso   1.00
C199   C     0.33086   0.99998   0.71750   0.00000  Uiso   1.00
C200   C     0.38652   0.94257   0.73738   0.00000  Uiso   1.00
C201   C     0.42073   0.94680   0.78451   0.00000  Uiso   1.00
C202   C     0.19908   0.02579   0.70374   0.00000  Uiso   1.00
C203   C     0.14394   0.99008   0.71203   0.00000  Uiso   1.00
C204   C     0.06721   0.01603   0.74758   0.00000  Uiso   1.00
C205   C     0.30241   0.06888   0.61177   0.00000  Uiso   1.00
C206   C     0.33414   0.06941   0.54274   0.00000  Uiso   1.00
C207   C     0.34439   0.13166   0.50086   0.00000  Uiso   1.00
H208   H     0.23179   0.16244   0.73543   0.00000  Uiso   1.00
H209   H     0.32814   0.10988   0.81120   0.00000  Uiso   1.00
H210   H     0.08560   0.15738   0.78585   0.00000  Uiso   1.00
H211   H     0.27577   0.23670   0.61659   0.00000  Uiso   1.00
H212   H     0.44410   0.02535   0.88364   0.00000  Uiso   1.00
H213   H     0.93268   0.12553   0.83017   0.00000  Uiso   1.00
H214   H     0.33369   0.29279   0.47325   0.00000  Uiso   1.00
H215   H     0.30235   0.96018   0.64617   0.00000  Uiso   1.00
H216   H     0.40258   0.89652   0.71704   0.00000  Uiso   1.00
H217   H     0.16003   0.94403   0.69170   0.00000  Uiso   1.00
H218   H     0.35020   0.02334   0.52243   0.00000  Uiso   1.00
H219   H     0.50451   0.85218   0.80722   0.00000  Uiso   1.00
H220   H     0.99309   0.95236   0.75375   0.00000  Uiso   1.00
H221   H     0.39410   0.11962   0.39683   0.00000  Uiso   1.00
O222   O     0.53895   0.90053   0.89368   0.00000  Uiso   1.00
O223   O     0.86798   0.03197   0.82352   0.00000  Uiso   1.00
O224   O     0.39410   0.25141   0.35525   0.00000  Uiso   1.00
N225   N     0.44458   0.99334   0.85592   0.00000  Uiso   1.00
N226   N     0.96643   0.08699   0.80594   0.00000  Uiso   1.00
N227   N     0.34132   0.24337   0.47225   0.00000  Uiso   1.00
N228   N     0.47708   0.90016   0.81480   0.00000  Uiso   1.00
N229   N     0.99894   0.99381   0.76482   0.00000  Uiso   1.00
N230   N     0.37383   0.15019   0.43112   0.00000  Uiso   1.00
C231   C     0.10201   0.71478   0.21762   0.00000  Uiso   1.00
C232   C     0.04932   0.75374   0.27391   0.00000  Uiso   1.00
C233   C     0.07471   0.78275   0.31133   0.00000  Uiso   1.00
C234   C     0.01729   0.81626   0.36057   0.00000  Uiso   1.00
C235   C     0.94764   0.87612   0.44623   0.00000  Uiso   1.00
C236   C     0.07242   0.75135   0.15494   0.00000  Uiso   1.00
C237   C     0.11723   0.77833   0.09234   0.00000  Uiso   1.00
C238   C     0.07925   0.80982   0.04143   0.00000  Uiso   1.00
C239   C     0.04547   0.86593   0.94237   0.00000  Uiso   1.00
C240   C     0.08346   0.64470   0.23831   0.00000  Uiso   1.00
C241   C     0.13756   0.58202   0.24579   0.00000  Uiso   1.00
C242   C     0.10888   0.52372   0.26506   0.00000  Uiso   1.00
C243   C     0.09224   0.41424   0.29545   0.00000  Uiso   1.00
C244   C     0.95488   0.72271   0.23850   0.00000  Uiso   1.00
C245   C     0.96941   0.75805   0.28525   0.00000  Uiso   1.00
C246   C     0.91194   0.79152   0.33445   0.00000  Uiso   1.00
C247   C     0.93724   0.82057   0.37194   0.00000  Uiso   1.00
C248   C     0.99251   0.75566   0.16628   0.00000  Uiso   1.00
C249   C     0.95445   0.78711   0.11545   0.00000  Uiso   1.00
C250   C     0.99920   0.81414   0.05279   0.00000  Uiso   1.00
C251   C     0.00355   0.64901   0.24966   0.00000  Uiso   1.00
C252   C     0.97478   0.59079   0.26891   0.00000  Uiso   1.00
C253   C     0.02883   0.52803   0.27643   0.00000  Uiso   1.00
H254   H     0.16423   0.71143   0.20878   0.00000  Uiso   1.00
H255   H     0.13656   0.77941   0.30253   0.00000  Uiso   1.00
H256   H     0.17907   0.77499   0.08357   0.00000  Uiso   1.00
H257   H     0.19940   0.57871   0.23701   0.00000  Uiso   1.00
H258   H     0.07065   0.85670   0.41146   0.00000  Uiso   1.00
H259   H     0.16029   0.84735   0.94977   0.00000  Uiso   1.00
H260   H     0.20316   0.43345   0.27332   0.00000  Uiso   1.00
H261   H     0.89266   0.72607   0.24734   0.00000  Uiso   1.00
H262   H     0.85010   0.79485   0.34321   0.00000  Uiso   1.00
H263   H     0.89261   0.79043   0.12425   0.00000  Uiso   1.00
H264   H     0.91294   0.59415   0.27769   0.00000  Uiso   1.00
H265   H     0.83814   0.86923   0.44448   0.00000  Uiso   1.00
H266   H     0.92779   0.85988   0.98278   0.00000  Uiso   1.00
H267   H     0.97065   0.44598   0.30633   0.00000  Uiso   1.00
O268   O     0.93129   0.90796   0.49033   0.00000  Uiso   1.00
O269   O     0.04891   0.89569   0.88460   0.00000  Uiso   1.00
O270   O     0.10514   0.35267   0.30909   0.00000  Uiso   1.00
N271   N     0.02177   0.85019   0.40609   0.00000  Uiso   1.00
N272   N     0.10558   0.84147   0.97443   0.00000  Uiso   1.00
N273   N     0.14566   0.45450   0.27690   0.00000  Uiso   1.00
N274   N     0.89666   0.85694   0.42385   0.00000  Uiso   1.00
N275   N     0.98047   0.84821   0.99220   0.00000  Uiso   1.00
N276   N     0.02055   0.46125   0.29467   0.00000  Uiso   1.00
C277   C     0.79383   0.37876   0.25530   0.00000  Uiso   1.00
C278   C     0.74959   0.43025   0.20613   0.00000  Uiso   1.00
C279   C     0.69705   0.41770   0.18022   0.00000  Uiso   1.00
C280   C     0.66266   0.47152   0.13594   0.00000  Uiso   1.00
C281   C     0.59125   0.54175   0.06231   0.00000  Uiso   1.00
C282   C     0.77317   0.41174   0.31651   0.00000  Uiso   1.00
C283   C     0.74047   0.38360   0.38341   0.00000  Uiso   1.00
C284   C     0.72594   0.42184   0.43205   0.00000  Uiso   1.00
C285   C     0.69120   0.46330   0.52978   0.00000  Uiso   1.00
C286   C     0.88091   0.37510   0.22096   0.00000  Uiso   1.00
C287   C     0.93881   0.31616   0.20752   0.00000  Uiso   1.00
C288   C     0.01500   0.32355   0.17572   0.00000  Uiso   1.00
C289   C     0.14755   0.30812   0.12510   0.00000  Uiso   1.00
C290   C     0.82618   0.49668   0.22273   0.00000  Uiso   1.00
C291   C     0.76716   0.49431   0.18844   0.00000  Uiso   1.00
C292   C     0.73284   0.54817   0.14419   0.00000  Uiso   1.00
C293   C     0.68027   0.53569   0.11822   0.00000  Uiso   1.00
C294   C     0.79074   0.47579   0.29882   0.00000  Uiso   1.00
C295   C     0.77626   0.51407   0.34737   0.00000  Uiso   1.00
C296   C     0.74354   0.48601   0.41432   0.00000  Uiso   1.00
C297   C     0.89848   0.43915   0.20326   0.00000  Uiso   1.00
C298   C     0.97460   0.44664   0.17148   0.00000  Uiso   1.00
C299   C     0.03261   0.38772   0.15800   0.00000  Uiso   1.00
H300   H     0.78015   0.32889   0.26908   0.00000  Uiso   1.00
H301   H     0.68346   0.36812   0.19393   0.00000  Uiso   1.00
H302   H     0.72689   0.33403   0.39708   0.00000  Uiso   1.00
H303   H     0.92519   0.26660   0.22122   0.00000  Uiso   1.00
H304   H     0.58399   0.43987   0.10283   0.00000  Uiso   1.00
H305   H     0.67557   0.36798   0.53119   0.00000  Uiso   1.00
H306   H     0.09375   0.22579   0.16035   0.00000  Uiso   1.00
H307   H     0.83986   0.54655   0.20896   0.00000  Uiso   1.00
H308   H     0.74645   0.59773   0.13051   0.00000  Uiso   1.00
H309   H     0.78987   0.56364   0.33366   0.00000  Uiso   1.00
H310   H     0.98818   0.49621   0.15780   0.00000  Uiso   1.00
H311   H     0.63511   0.62623   0.05136   0.00000  Uiso   1.00
H312   H     0.72669   0.55434   0.47972   0.00000  Uiso   1.00
H313   H     0.14487   0.41215   0.10888   0.00000  Uiso   1.00
O314   O     0.54700   0.56279   0.02659   0.00000  Uiso   1.00
O315   O     0.66717   0.46847   0.58858   0.00000  Uiso   1.00
O316   O     0.21580   0.28192   0.10205   0.00000  Uiso   1.00
N317   N     0.60885   0.47670   0.10147   0.00000  Uiso   1.00
N318   N     0.69447   0.40949   0.50196   0.00000  Uiso   1.00
N319   N     0.08543   0.27655   0.15528   0.00000  Uiso   1.00
N320   N     0.63636   0.57698   0.07378   0.00000  Uiso   1.00
N321   N     0.72197   0.50977   0.47426   0.00000  Uiso   1.00
N322   N     0.11293   0.37683   0.12758   0.00000  Uiso   1.00
C323   C     0.24508   0.78293   0.38870   0.00000  Uiso   1.00
C324   C     0.18330   0.75291   0.44706   0.00000  Uiso   1.00
C325   C     0.14778   0.70456   0.44502   0.00000  Uiso   1.00
C326   C     0.09269   0.68361   0.50374   0.00000  Uiso   1.00
C327   C     0.99965   0.63294   0.58546   0.00000  Uiso   1.00
C328   C     0.31597   0.76893   0.41584   0.00000  Uiso   1.00
C329   C     0.39200   0.73406   0.38756   0.00000  Uiso   1.00
C330   C     0.44860   0.72660   0.42000   0.00000  Uiso   1.00
C331   C     0.56154   0.70085   0.45322   0.00000  Uiso   1.00
C332   C     0.21223   0.86037   0.37713   0.00000  Uiso   1.00
C333   C     0.20106   0.90239   0.31629   0.00000  Uiso   1.00
C334   C     0.17034   0.97192   0.31613   0.00000  Uiso   1.00
C335   C     0.12221   0.08814   0.28925   0.00000  Uiso   1.00
C336   C     0.21042   0.83171   0.49660   0.00000  Uiso   1.00
C337   C     0.16447   0.77941   0.50567   0.00000  Uiso   1.00
C338   C     0.10942   0.75853   0.56441   0.00000  Uiso   1.00
C339   C     0.07382   0.71015   0.56246   0.00000  Uiso   1.00
C340   C     0.29714   0.79542   0.47445   0.00000  Uiso   1.00
C341   C     0.35364   0.78802   0.50694   0.00000  Uiso   1.00
C342   C     0.42974   0.75314   0.47871   0.00000  Uiso   1.00
C343   C     0.19340   0.88687   0.43574   0.00000  Uiso   1.00
C344   C     0.16270   0.95635   0.43567   0.00000  Uiso   1.00
C345   C     0.15147   0.99847   0.37484   0.00000  Uiso   1.00
H346   H     0.25975   0.76230   0.34307   0.00000  Uiso   1.00
H347   H     0.16237   0.68406   0.39966   0.00000  Uiso   1.00
H348   H     0.40655   0.71356   0.34220   0.00000  Uiso   1.00
H349   H     0.21564   0.88187   0.27094   0.00000  Uiso   1.00
H350   H     0.04613   0.60899   0.48826   0.00000  Uiso   1.00
H351   H     0.56101   0.67121   0.36708   0.00000  Uiso   1.00
H352   H     0.15842   0.02611   0.21682   0.00000  Uiso   1.00
H353   H     0.19576   0.85234   0.54223   0.00000  Uiso   1.00
H354   H     0.09486   0.77904   0.60975   0.00000  Uiso   1.00
H355   H     0.33905   0.80854   0.55229   0.00000  Uiso   1.00
H356   H     0.14813   0.97684   0.48103   0.00000  Uiso   1.00
H357   H     0.99134   0.68607   0.65878   0.00000  Uiso   1.00
H358   H     0.50622   0.74829   0.53760   0.00000  Uiso   1.00
H359   H     0.10364   0.10319   0.38735   0.00000  Uiso   1.00
O360   O     0.95354   0.59767   0.61435   0.00000  Uiso   1.00
O361   O     0.62904   0.67931   0.45536   0.00000  Uiso   1.00
O362   O     0.10086   0.14493   0.25823   0.00000  Uiso   1.00
N363   N     0.04707   0.63720   0.51912   0.00000  Uiso   1.00
N364   N     0.52845   0.69536   0.40583   0.00000  Uiso   1.00
N365   N     0.15209   0.02717   0.26535   0.00000  Uiso   1.00
N366   N     0.01758   0.67868   0.61087   0.00000  Uiso   1.00
N367   N     0.49897   0.73684   0.49759   0.00000  Uiso   1.00
N368   N     0.12260   0.06864   0.35711   0.00000  Uiso   1.00
C369   C     0.37327   0.24651   0.76001   0.00000  Uiso   1.00
C370   C     0.44408   0.19332   0.72897   0.00000  Uiso   1.00
C371   C     0.44741   0.15882   0.68070   0.00000  Uiso   1.00
C372   C     0.51757   0.11213   0.65871   0.00000  Uiso   1.00
C373   C     0.61774   0.03134   0.60661   0.00000  Uiso   1.00
C374   C     0.40216   0.31089   0.74649   0.00000  Uiso   1.00
C375   C     0.37022   0.37525   0.71296   0.00000  Uiso   1.00
C376   C     0.40508   0.42754   0.70574   0.00000  Uiso   1.00
C377   C     0.44012   0.52930   0.68089   0.00000  Uiso   1.00
C378   C     0.35490   0.22055   0.83663   0.00000  Uiso   1.00
C379   C     0.28322   0.20896   0.87891   0.00000  Uiso   1.00
C380   C     0.27830   0.18519   0.94758   0.00000  Uiso   1.00
C381   C     0.23996   0.14668   0.06269   0.00000  Uiso   1.00
C382   C     0.49196   0.22494   0.80680   0.00000  Uiso   1.00
C383   C     0.50855   0.18161   0.75438   0.00000  Uiso   1.00
C384   C     0.57873   0.13495   0.73246   0.00000  Uiso   1.00
C385   C     0.58216   0.10039   0.68417   0.00000  Uiso   1.00
C386   C     0.46662   0.29918   0.77190   0.00000  Uiso   1.00
C387   C     0.50154   0.35139   0.76473   0.00000  Uiso   1.00
C388   C     0.46967   0.41580   0.73119   0.00000  Uiso   1.00
C389   C     0.41937   0.20883   0.86205   0.00000  Uiso   1.00
C390   C     0.41455   0.18509   0.93067   0.00000  Uiso   1.00
C391   C     0.34288   0.17346   0.97303   0.00000  Uiso   1.00
H392   H     0.32308   0.25564   0.74023   0.00000  Uiso   1.00
H393   H     0.39751   0.16790   0.66104   0.00000  Uiso   1.00
H394   H     0.32033   0.38430   0.69331   0.00000  Uiso   1.00
H395   H     0.23335   0.21803   0.85922   0.00000  Uiso   1.00
H396   H     0.50847   0.06549   0.58443   0.00000  Uiso   1.00
H397   H     0.34571   0.52178   0.65250   0.00000  Uiso   1.00
H398   H     0.16230   0.17116   0.00236   0.00000  Uiso   1.00
H399   H     0.54215   0.21582   0.82658   0.00000  Uiso   1.00
H400   H     0.62861   0.12590   0.75214   0.00000  Uiso   1.00
H401   H     0.55142   0.34230   0.78440   0.00000  Uiso   1.00
H402   H     0.46445   0.17603   0.95032   0.00000  Uiso   1.00
H403   H     0.69604   0.03140   0.65837   0.00000  Uiso   1.00
H404   H     0.53328   0.48769   0.72643   0.00000  Uiso   1.00
H405   H     0.34987   0.13707   0.07629   0.00000  Uiso   1.00
O406   O     0.65519   0.99002   0.57085   0.00000  Uiso   1.00
O407   O     0.44164   0.58866   0.66016   0.00000  Uiso   1.00
O408   O     0.20101   0.12866   0.11916   0.00000  Uiso   1.00
N409   N     0.54075   0.06979   0.61206   0.00000  Uiso   1.00
N410   N     0.38858   0.49640   0.67568   0.00000  Uiso   1.00
N411   N     0.21710   0.16862   0.00278   0.00000  Uiso   1.00
N412   N     0.64168   0.05145   0.65184   0.00000  Uiso   1.00
N413   N     0.48951   0.47806   0.71547   0.00000  Uiso   1.00
N414   N     0.31803   0.15028   0.04256   0.00000  Uiso   1.00
C415   C     0.32495   0.77263   0.86933   0.00000  Uiso   1.00
C416   C     0.29695   0.71604   0.92668   0.00000  Uiso   1.00
C417   C     0.25291   0.67458   0.92421   0.00000  Uiso   1.00
C418   C     0.23316   0.62580   0.98200   0.00000  Uiso   1.00
C419   C     0.18607   0.53901   0.06222   0.00000  Uiso   1.00
C420   C     0.29343   0.83769   0.89872   0.00000  Uiso   1.00
C421   C     0.24644   0.89852   0.87274   0.00000  Uiso   1.00
C422   C     0.22374   0.95215   0.90699   0.00000  Uiso   1.00
C423   C     0.17123   0.05425   0.94378   0.00000  Uiso   1.00
C424   C     0.41412   0.75532   0.85592   0.00000  Uiso   1.00
C425   C     0.46860   0.74690   0.79394   0.00000  Uiso   1.00
C426   C     0.54752   0.73119   0.79215   0.00000  Uiso   1.00
C427   C     0.68239   0.70539   0.76248   0.00000  Uiso   1.00
C428   C     0.36821   0.75972   0.97633   0.00000  Uiso   1.00
C429   C     0.32044   0.70903   0.98480   0.00000  Uiso   1.00
C430   C     0.30076   0.66029   0.04260   0.00000  Uiso   1.00
C431   C     0.25670   0.61877   0.04023   0.00000  Uiso   1.00
C432   C     0.31692   0.83068   0.95684   0.00000  Uiso   1.00
C433   C     0.29429   0.88423   0.99113   0.00000  Uiso   1.00
C434   C     0.24727   0.94512   0.96522   0.00000  Uiso   1.00
C435   C     0.43761   0.74830   0.91404   0.00000  Uiso   1.00
C436   C     0.51646   0.73261   0.91234   0.00000  Uiso   1.00
C437   C     0.57105   0.72417   0.85038   0.00000  Uiso   1.00
H438   H     0.30666   0.77809   0.82408   0.00000  Uiso   1.00
H439   H     0.23473   0.68003   0.87923   0.00000  Uiso   1.00
H440   H     0.22827   0.90393   0.82776   0.00000  Uiso   1.00
H441   H     0.45040   0.75233   0.74898   0.00000  Uiso   1.00
H442   H     0.16532   0.56822   0.96601   0.00000  Uiso   1.00
H443   H     0.15172   0.04035   0.85748   0.00000  Uiso   1.00
H444   H     0.62012   0.72068   0.69135   0.00000  Uiso   1.00
H445   H     0.38650   0.75426   0.02159   0.00000  Uiso   1.00
H446   H     0.31895   0.65488   0.08758   0.00000  Uiso   1.00
H447   H     0.31249   0.87879   0.03611   0.00000  Uiso   1.00
H448   H     0.53462   0.72719   0.95733   0.00000  Uiso   1.00
H449   H     0.23367   0.54781   0.13512   0.00000  Uiso   1.00
H450   H     0.22007   0.01994   0.02658   0.00000  Uiso   1.00
H451   H     0.68848   0.70026   0.86045   0.00000  Uiso   1.00
O452   O     0.15360   0.49309   0.09042   0.00000  Uiso   1.00
O453   O     0.13577   0.11250   0.94802   0.00000  Uiso   1.00
O454   O     0.75030   0.69309   0.73006   0.00000  Uiso   1.00
N455   N     0.19069   0.57705   0.99675   0.00000  Uiso   1.00
N456   N     0.17796   0.01846   0.89528   0.00000  Uiso   1.00
N457   N     0.61588   0.71960   0.73996   0.00000  Uiso   1.00
N458   N     0.22747   0.56607   0.08774   0.00000  Uiso   1.00
N459   N     0.21475   0.00747   0.98628   0.00000  Uiso   1.00
N460   N     0.65266   0.70862   0.83095   0.00000  Uiso   1.00
C461   C     0.74413   0.91610   0.25798   0.00000  Uiso   1.00
C462   C     0.68304   0.97365   0.22879   0.00000  Uiso   1.00
C463   C     0.64901   0.97035   0.18115   0.00000  Uiso   1.00
C464   C     0.59434   0.02849   0.16090   0.00000  Uiso   1.00
C465   C     0.50253   0.10884   0.11152   0.00000  Uiso   1.00
C466   C     0.81458   0.94561   0.24372   0.00000  Uiso   1.00
C467   C     0.89116   0.91873   0.20863   0.00000  Uiso   1.00
C468   C     0.94723   0.95326   0.20095   0.00000  Uiso   1.00
C469   C     0.05965   0.99005   0.17478   0.00000  Uiso   1.00
C470   C     0.70970   0.90383   0.33484   0.00000  Uiso   1.00
C471   C     0.69811   0.84182   0.37639   0.00000  Uiso   1.00
C472   C     0.66589   0.84118   0.44543   0.00000  Uiso   1.00
C473   C     0.61547   0.81310   0.56075   0.00000  Uiso   1.00
C474   C     0.70753   0.02522   0.30673   0.00000  Uiso   1.00
C475   C     0.66316   0.03292   0.25527   0.00000  Uiso   1.00
C476   C     0.60852   0.09108   0.23509   0.00000  Uiso   1.00
C477   C     0.57442   0.08787   0.18743   0.00000  Uiso   1.00
C478   C     0.79471   0.00488   0.27019   0.00000  Uiso   1.00
C479   C     0.85067   0.03945   0.26256   0.00000  Uiso   1.00
C480   C     0.92731   0.01263   0.22747   0.00000  Uiso   1.00
C481   C     0.68982   0.96310   0.36132   0.00000  Uiso   1.00
C482   C     0.65761   0.96255   0.43032   0.00000  Uiso   1.00
C483   C     0.64597   0.90055   0.47196   0.00000  Uiso   1.00
H484   H     0.75961   0.86996   0.23737   0.00000  Uiso   1.00
H485   H     0.66442   0.92448   0.16067   0.00000  Uiso   1.00
H486   H     0.90653   0.87286   0.18815   0.00000  Uiso   1.00
H487   H     0.71350   0.79597   0.35588   0.00000  Uiso   1.00
H488   H     0.55013   0.01106   0.08729   0.00000  Uiso   1.00
H489   H     0.06064   0.90221   0.14526   0.00000  Uiso   1.00
H490   H     0.65361   0.74006   0.49894   0.00000  Uiso   1.00
H491   H     0.69205   0.07137   0.32735   0.00000  Uiso   1.00
H492   H     0.59315   0.13694   0.25559   0.00000  Uiso   1.00
H493   H     0.83526   0.08531   0.28306   0.00000  Uiso   1.00
H494   H     0.64223   0.00842   0.45079   0.00000  Uiso   1.00
H495   H     0.49229   0.18350   0.16433   0.00000  Uiso   1.00
H496   H     0.00280   0.07464   0.22229   0.00000  Uiso   1.00
H497   H     0.59576   0.91250   0.57598   0.00000  Uiso   1.00
O498   O     0.45739   0.13679   0.07696   0.00000  Uiso   1.00
O499   O     0.12716   0.99397   0.15302   0.00000  Uiso   1.00
O500   O     0.59314   0.78124   0.61705   0.00000  Uiso   1.00
N501   N     0.55008   0.04264   0.11528   0.00000  Uiso   1.00
N502   N     0.02738   0.94088   0.16946   0.00000  Uiso   1.00
N503   N     0.64685   0.78928   0.50013   0.00000  Uiso   1.00
N504   N     0.51895   0.13543   0.15673   0.00000  Uiso   1.00
N505   N     0.99625   0.03366   0.21092   0.00000  Uiso   1.00
N506   N     0.61573   0.88207   0.54159   0.00000  Uiso   1.00
C507   C     0.89072   0.27795   0.75615   0.00000  Uiso   1.00
C508   C     0.95490   0.24796   0.69816   0.00000  Uiso   1.00
C509   C     0.95397   0.19527   0.67104   0.00000  Uiso   1.00
C510   C     0.01830   0.17517   0.61817   0.00000  Uiso   1.00
C511   C     0.10840   0.12379   0.53192   0.00000  Uiso   1.00
C512   C     0.93106   0.27110   0.81028   0.00000  Uiso   1.00
C513   C     0.91006   0.23787   0.87744   0.00000  Uiso   1.00
C514   C     0.95431   0.23725   0.91896   0.00000  Uiso   1.00
C515   C     0.00735   0.22183   0.00679   0.00000  Uiso   1.00
C516   C     0.86565   0.35452   0.72871   0.00000  Uiso   1.00
C517   C     0.78964   0.39145   0.72730   0.00000  Uiso   1.00
C518   C     0.77882   0.46107   0.70015   0.00000  Uiso   1.00
C519   C     0.73030   0.57518   0.66133   0.00000  Uiso   1.00
C520   C     0.00664   0.33593   0.71046   0.00000  Uiso   1.00
C521   C     0.01787   0.27945   0.67334   0.00000  Uiso   1.00
C522   C     0.08222   0.25942   0.62049   0.00000  Uiso   1.00
C523   C     0.08138   0.20672   0.59331   0.00000  Uiso   1.00
C524   C     0.99402   0.30259   0.78547   0.00000  Uiso   1.00
C525   C     0.03831   0.30202   0.82689   0.00000  Uiso   1.00
C526   C     0.01739   0.26880   0.89410   0.00000  Uiso   1.00
C527   C     0.92861   0.38601   0.70389   0.00000  Uiso   1.00
C528   C     0.91790   0.45559   0.67674   0.00000  Uiso   1.00
C529   C     0.84190   0.49262   0.67529   0.00000  Uiso   1.00
H530   H     0.84170   0.25343   0.77548   0.00000  Uiso   1.00
H531   H     0.90523   0.17091   0.69027   0.00000  Uiso   1.00
H532   H     0.86132   0.21351   0.89663   0.00000  Uiso   1.00
H533   H     0.74093   0.36706   0.74651   0.00000  Uiso   1.00
H534   H     0.00345   0.09330   0.58487   0.00000  Uiso   1.00
H535   H     0.91085   0.18314   0.02001   0.00000  Uiso   1.00
H536   H     0.65698   0.50692   0.70345   0.00000  Uiso   1.00
H537   H     0.05567   0.36045   0.69114   0.00000  Uiso   1.00
H538   H     0.13094   0.28380   0.60130   0.00000  Uiso   1.00
H539   H     0.08703   0.32640   0.80767   0.00000  Uiso   1.00
H540   H     0.96664   0.47995   0.65754   0.00000  Uiso   1.00
H541   H     0.18664   0.18492   0.51267   0.00000  Uiso   1.00
H542   H     0.09404   0.27476   0.94781   0.00000  Uiso   1.00
H543   H     0.84017   0.59855   0.63124   0.00000  Uiso   1.00
O544   O     0.14071   0.08674   0.49121   0.00000  Uiso   1.00
O545   O     0.01922   0.20462   0.06209   0.00000  Uiso   1.00
O546   O     0.68615   0.62942   0.64677   0.00000  Uiso   1.00
N547   N     0.03622   0.12539   0.58020   0.00000  Uiso   1.00
N548   N     0.94966   0.20937   0.98703   0.00000  Uiso   1.00
N549   N     0.71231   0.51209   0.69108   0.00000  Uiso   1.00
N550   N     0.13480   0.17469   0.54134   0.00000  Uiso   1.00
N551   N     0.04823   0.25868   0.94817   0.00000  Uiso   1.00
N552   N     0.81088   0.56140   0.65222   0.00000  Uiso   1.00
