data_job_02535
_audit_creation_date              2018-12-19
_audit_creation_method            'Materials Studio'
_symmetry_space_group_name_H-M    'P1'
_symmetry_Int_Tables_number       1
_symmetry_cell_setting            triclinic
loop_
_symmetry_equiv_pos_as_xyz
  x,y,z
_cell_length_a                    7.5093
_cell_length_b                    11.6541
_cell_length_c                    17.0153
_cell_angle_alpha                 81.9763
_cell_angle_beta                  86.3695
_cell_angle_gamma                 102.1489
loop_
_atom_site_label
_atom_site_type_symbol
_atom_site_fract_x
_atom_site_fract_y
_atom_site_fract_z
_atom_site_U_iso_or_equiv
_atom_site_adp_type
_atom_site_occupancy
C1     C     0.01321   0.46109   0.78570   0.00000  Uiso   1.00
C2     C     0.01634   0.37049   0.72934   0.00000  Uiso   1.00
C3     C     0.86417   0.30358   0.70191   0.00000  Uiso   1.00
C4     C     0.89582   0.22555   0.65073   0.00000  Uiso   1.00
C5     C     0.87367   0.08645   0.56672   0.00000  Uiso   1.00
C6     C     0.11320   0.42176   0.85638   0.00000  Uiso   1.00
C7     C     0.04246   0.39797   0.93576   0.00000  Uiso   1.00
C8     C     0.15567   0.36311   0.99153   0.00000  Uiso   1.00
C9     C     0.28394   0.30369   0.10476   0.00000  Uiso   1.00
C10    C     0.13407   0.57760   0.74253   0.00000  Uiso   1.00
C11    C     0.08089   0.68485   0.72621   0.00000  Uiso   1.00
C12    C     0.21168   0.78121   0.68614   0.00000  Uiso   1.00
C13    C     0.37235   0.96375   0.62260   0.00000  Uiso   1.00
C14    C     0.34004   0.44151   0.74358   0.00000  Uiso   1.00
C15    C     0.19387   0.35986   0.70647   0.00000  Uiso   1.00
C16    C     0.22576   0.28192   0.65531   0.00000  Uiso   1.00
C17    C     0.07366   0.21490   0.62781   0.00000  Uiso   1.00
C18    C     0.29071   0.41112   0.83351   0.00000  Uiso   1.00
C19    C     0.40405   0.37631   0.88916   0.00000  Uiso   1.00
C20    C     0.33351   0.35246   0.96861   0.00000  Uiso   1.00
C21    C     0.31159   0.56697   0.71965   0.00000  Uiso   1.00
C22    C     0.44249   0.66318   0.67961   0.00000  Uiso   1.00
C23    C     0.38952   0.77056   0.66322   0.00000  Uiso   1.00
H24    H     0.87501   0.46937   0.80352   0.00000  Uiso   1.00
H25    H     0.72681   0.31182   0.71964   0.00000  Uiso   1.00
H26    H     0.90509   0.40621   0.95345   0.00000  Uiso   1.00
H27    H     0.94351   0.69304   0.74392   0.00000  Uiso   1.00
H28    H     0.64078   0.13243   0.61657   0.00000  Uiso   1.00
H29    H     0.01671   0.33150   0.10958   0.00000  Uiso   1.00
H30    H     0.09773   0.93634   0.66776   0.00000  Uiso   1.00
H31    H     0.47825   0.43324   0.72577   0.00000  Uiso   1.00
H32    H     0.36315   0.27371   0.63762   0.00000  Uiso   1.00
H33    H     0.54142   0.36809   0.87144   0.00000  Uiso   1.00
H34    H     0.57985   0.65492   0.66191   0.00000  Uiso   1.00
H35    H     0.15726   0.10149   0.55000   0.00000  Uiso   1.00
H36    H     0.53319   0.30056   0.04302   0.00000  Uiso   1.00
H37    H     0.61421   0.90540   0.60119   0.00000  Uiso   1.00
O38    O     0.81241   0.01264   0.52672   0.00000  Uiso   1.00
O39    O     0.30563   0.27383   0.17354   0.00000  Uiso   1.00
O40    O     0.41192   0.06736   0.59387   0.00000  Uiso   1.00
N41    N     0.77813   0.14706   0.61298   0.00000  Uiso   1.00
N42    N     0.12959   0.33316   0.07393   0.00000  Uiso   1.00
N43    N     0.20536   0.89864   0.66088   0.00000  Uiso   1.00
N44    N     0.05604   0.13042   0.57717   0.00000  Uiso   1.00
N45    N     0.40751   0.31651   0.03811   0.00000  Uiso   1.00
N46    N     0.48327   0.88199   0.62506   0.00000  Uiso   1.00
C47    C     0.98679   0.53891   0.21430   0.00000  Uiso   1.00
C48    C     0.98366   0.62951   0.27066   0.00000  Uiso   1.00
C49    C     0.13583   0.69642   0.29809   0.00000  Uiso   1.00
C50    C     0.10418   0.77445   0.34927   0.00000  Uiso   1.00
C51    C     0.12633   0.91355   0.43328   0.00000  Uiso   1.00
C52    C     0.88680   0.57824   0.14362   0.00000  Uiso   1.00
C53    C     0.95754   0.60203   0.06424   0.00000  Uiso   1.00
C54    C     0.84433   0.63689   0.00847   0.00000  Uiso   1.00
C55    C     0.71606   0.69631   0.89524   0.00000  Uiso   1.00
C56    C     0.86593   0.42240   0.25747   0.00000  Uiso   1.00
C57    C     0.91911   0.31515   0.27379   0.00000  Uiso   1.00
C58    C     0.78832   0.21879   0.31386   0.00000  Uiso   1.00
C59    C     0.62765   0.03625   0.37740   0.00000  Uiso   1.00
C60    C     0.65996   0.55849   0.25642   0.00000  Uiso   1.00
C61    C     0.80613   0.64014   0.29353   0.00000  Uiso   1.00
C62    C     0.77424   0.71808   0.34469   0.00000  Uiso   1.00
C63    C     0.92634   0.78510   0.37219   0.00000  Uiso   1.00
C64    C     0.70929   0.58888   0.16649   0.00000  Uiso   1.00
C65    C     0.59595   0.62369   0.11084   0.00000  Uiso   1.00
C66    C     0.66649   0.64754   0.03139   0.00000  Uiso   1.00
C67    C     0.68841   0.43303   0.28035   0.00000  Uiso   1.00
C68    C     0.55751   0.33682   0.32039   0.00000  Uiso   1.00
C69    C     0.61048   0.22944   0.33678   0.00000  Uiso   1.00
H70    H     0.12499   0.53063   0.19648   0.00000  Uiso   1.00
H71    H     0.27319   0.68818   0.28036   0.00000  Uiso   1.00
H72    H     0.09491   0.59379   0.04655   0.00000  Uiso   1.00
H73    H     0.05649   0.30696   0.25608   0.00000  Uiso   1.00
H74    H     0.35922   0.86757   0.38343   0.00000  Uiso   1.00
H75    H     0.98329   0.66850   0.89042   0.00000  Uiso   1.00
H76    H     0.90227   0.06366   0.33224   0.00000  Uiso   1.00
H77    H     0.52175   0.56676   0.27423   0.00000  Uiso   1.00
H78    H     0.63685   0.72629   0.36238   0.00000  Uiso   1.00
H79    H     0.45858   0.63191   0.12856   0.00000  Uiso   1.00
H80    H     0.42015   0.34508   0.33809   0.00000  Uiso   1.00
H81    H     0.84274   0.89851   0.45000   0.00000  Uiso   1.00
H82    H     0.46681   0.69944   0.95698   0.00000  Uiso   1.00
H83    H     0.38579   0.09460   0.39881   0.00000  Uiso   1.00
O84    O     0.18759   0.98736   0.47328   0.00000  Uiso   1.00
O85    O     0.69437   0.72617   0.82646   0.00000  Uiso   1.00
O86    O     0.58808   0.93264   0.40613   0.00000  Uiso   1.00
N87    N     0.22187   0.85294   0.38702   0.00000  Uiso   1.00
N88    N     0.87041   0.66684   0.92607   0.00000  Uiso   1.00
N89    N     0.79464   0.10136   0.33912   0.00000  Uiso   1.00
N90    N     0.94396   0.86958   0.42283   0.00000  Uiso   1.00
N91    N     0.59249   0.68349   0.96189   0.00000  Uiso   1.00
N92    N     0.51673   0.11801   0.37494   0.00000  Uiso   1.00
