data_job_02220
_audit_creation_date              2018-12-19
_audit_creation_method            'Materials Studio'
_symmetry_space_group_name_H-M    'P1'
_symmetry_Int_Tables_number       1
_symmetry_cell_setting            triclinic
loop_
_symmetry_equiv_pos_as_xyz
  x,y,z
_cell_length_a                    20.4807
_cell_length_b                    20.4807
_cell_length_c                    20.4807
_cell_angle_alpha                 90.0000
_cell_angle_beta                  90.0000
_cell_angle_gamma                 90.0000
loop_
_atom_site_label
_atom_site_type_symbol
_atom_site_fract_x
_atom_site_fract_y
_atom_site_fract_z
_atom_site_U_iso_or_equiv
_atom_site_adp_type
_atom_site_occupancy
C1     C     0.91381   0.56192   0.74735   0.00000  Uiso   1.00
C2     C     0.97451   0.60369   0.73662   0.00000  Uiso   1.00
C3     C     0.97894   0.67049   0.74709   0.00000  Uiso   1.00
C4     C     0.03877   0.69971   0.73438   0.00000  Uiso   1.00
C5     C     0.12488   0.77010   0.72108   0.00000  Uiso   1.00
C6     C     0.90040   0.52806   0.68241   0.00000  Uiso   1.00
C7     C     0.84251   0.53127   0.64733   0.00000  Uiso   1.00
C8     C     0.83996   0.49682   0.58899   0.00000  Uiso   1.00
C9     C     0.81099   0.44975   0.49157   0.00000  Uiso   1.00
C10    C     0.93394   0.50818   0.79479   0.00000  Uiso   1.00
C11    C     0.90426   0.49466   0.85419   0.00000  Uiso   1.00
C12    C     0.92994   0.44347   0.89046   0.00000  Uiso   1.00
C13    C     0.95306   0.36554   0.96752   0.00000  Uiso   1.00
C14    C     0.01219   0.49504   0.70615   0.00000  Uiso   1.00
C15    C     0.02794   0.56736   0.71424   0.00000  Uiso   1.00
C16    C     0.08778   0.59649   0.70151   0.00000  Uiso   1.00
C17    C     0.09230   0.66332   0.71197   0.00000  Uiso   1.00
C18    C     0.95383   0.49174   0.66003   0.00000  Uiso   1.00
C19    C     0.95135   0.45727   0.60174   0.00000  Uiso   1.00
C20    C     0.89348   0.46043   0.56657   0.00000  Uiso   1.00
C21    C     0.98738   0.47186   0.77241   0.00000  Uiso   1.00
C22    C     0.01310   0.42067   0.80860   0.00000  Uiso   1.00
C23    C     0.98347   0.40708   0.86804   0.00000  Uiso   1.00
H24    H     0.87221   0.59020   0.76477   0.00000  Uiso   1.00
H25    H     0.93758   0.69858   0.76441   0.00000  Uiso   1.00
H26    H     0.80117   0.55938   0.66466   0.00000  Uiso   1.00
H27    H     0.86291   0.52278   0.87149   0.00000  Uiso   1.00
H28    H     0.03361   0.80273   0.75411   0.00000  Uiso   1.00
H29    H     0.74598   0.50919   0.54380   0.00000  Uiso   1.00
H30    H     0.87617   0.43202   0.97993   0.00000  Uiso   1.00
H31    H     0.05379   0.46676   0.68873   0.00000  Uiso   1.00
H32    H     0.12912   0.56837   0.68419   0.00000  Uiso   1.00
H33    H     0.99271   0.42916   0.58444   0.00000  Uiso   1.00
H34    H     0.05445   0.39257   0.79127   0.00000  Uiso   1.00
H35    H     0.18907   0.69704   0.68900   0.00000  Uiso   1.00
H36    H     0.90144   0.40350   0.47869   0.00000  Uiso   1.00
H37    H     0.03163   0.32633   0.91482   0.00000  Uiso   1.00
O38    O     0.15761   0.81896   0.71992   0.00000  Uiso   1.00
O39    O     0.78025   0.43383   0.44401   0.00000  Uiso   1.00
O40    O     0.95106   0.33260   0.01621   0.00000  Uiso   1.00
N41    N     0.05986   0.76391   0.73942   0.00000  Uiso   1.00
N42    N     0.79094   0.48947   0.54278   0.00000  Uiso   1.00
N43    N     0.91265   0.41732   0.95053   0.00000  Uiso   1.00
N44    N     0.14351   0.70704   0.70439   0.00000  Uiso   1.00
N45    N     0.87460   0.43260   0.50775   0.00000  Uiso   1.00
N46    N     0.99631   0.36045   0.91550   0.00000  Uiso   1.00
C47    C     0.58619   0.43808   0.24735   0.00000  Uiso   1.00
C48    C     0.52549   0.39631   0.23662   0.00000  Uiso   1.00
C49    C     0.52106   0.32951   0.24709   0.00000  Uiso   1.00
C50    C     0.46123   0.30029   0.23438   0.00000  Uiso   1.00
C51    C     0.37512   0.22990   0.22108   0.00000  Uiso   1.00
C52    C     0.59960   0.47194   0.18241   0.00000  Uiso   1.00
C53    C     0.65749   0.46873   0.14733   0.00000  Uiso   1.00
C54    C     0.66004   0.50318   0.08899   0.00000  Uiso   1.00
C55    C     0.68901   0.55025   0.99157   0.00000  Uiso   1.00
C56    C     0.56606   0.49182   0.29479   0.00000  Uiso   1.00
C57    C     0.59574   0.50534   0.35419   0.00000  Uiso   1.00
C58    C     0.57006   0.55653   0.39046   0.00000  Uiso   1.00
C59    C     0.54694   0.63446   0.46752   0.00000  Uiso   1.00
C60    C     0.48781   0.50496   0.20615   0.00000  Uiso   1.00
C61    C     0.47206   0.43264   0.21424   0.00000  Uiso   1.00
C62    C     0.41222   0.40351   0.20151   0.00000  Uiso   1.00
C63    C     0.40770   0.33668   0.21197   0.00000  Uiso   1.00
C64    C     0.54617   0.50826   0.16003   0.00000  Uiso   1.00
C65    C     0.54865   0.54273   0.10174   0.00000  Uiso   1.00
C66    C     0.60652   0.53957   0.06657   0.00000  Uiso   1.00
C67    C     0.51262   0.52814   0.27241   0.00000  Uiso   1.00
C68    C     0.48690   0.57933   0.30860   0.00000  Uiso   1.00
C69    C     0.51653   0.59292   0.36804   0.00000  Uiso   1.00
H70    H     0.62779   0.40980   0.26477   0.00000  Uiso   1.00
H71    H     0.56242   0.30142   0.26441   0.00000  Uiso   1.00
H72    H     0.69883   0.44062   0.16466   0.00000  Uiso   1.00
H73    H     0.63709   0.47722   0.37149   0.00000  Uiso   1.00
H74    H     0.46639   0.19727   0.25411   0.00000  Uiso   1.00
H75    H     0.75402   0.49081   0.04380   0.00000  Uiso   1.00
H76    H     0.62383   0.56798   0.47993   0.00000  Uiso   1.00
H77    H     0.44621   0.53324   0.18873   0.00000  Uiso   1.00
H78    H     0.37088   0.43163   0.18419   0.00000  Uiso   1.00
H79    H     0.50729   0.57084   0.08444   0.00000  Uiso   1.00
H80    H     0.44555   0.60743   0.29127   0.00000  Uiso   1.00
H81    H     0.31093   0.30296   0.18900   0.00000  Uiso   1.00
H82    H     0.59856   0.59650   0.97869   0.00000  Uiso   1.00
H83    H     0.46837   0.67367   0.41482   0.00000  Uiso   1.00
O84    O     0.34239   0.18104   0.21992   0.00000  Uiso   1.00
O85    O     0.71975   0.56617   0.94401   0.00000  Uiso   1.00
O86    O     0.54894   0.66740   0.51621   0.00000  Uiso   1.00
N87    N     0.44014   0.23609   0.23942   0.00000  Uiso   1.00
N88    N     0.70906   0.51053   0.04278   0.00000  Uiso   1.00
N89    N     0.58735   0.58268   0.45053   0.00000  Uiso   1.00
N90    N     0.35649   0.29296   0.20439   0.00000  Uiso   1.00
N91    N     0.62540   0.56740   0.00775   0.00000  Uiso   1.00
N92    N     0.50369   0.63955   0.41550   0.00000  Uiso   1.00
C93    C     0.08619   0.06192   0.75265   0.00000  Uiso   1.00
C94    C     0.02549   0.10369   0.76338   0.00000  Uiso   1.00
C95    C     0.02106   0.17049   0.75291   0.00000  Uiso   1.00
C96    C     0.96123   0.19971   0.76562   0.00000  Uiso   1.00
C97    C     0.87512   0.27010   0.77892   0.00000  Uiso   1.00
C98    C     0.09960   0.02806   0.81759   0.00000  Uiso   1.00
C99    C     0.15749   0.03127   0.85267   0.00000  Uiso   1.00
C100   C     0.16004   0.99682   0.91101   0.00000  Uiso   1.00
C101   C     0.18901   0.94975   0.00843   0.00000  Uiso   1.00
C102   C     0.06606   0.00818   0.70521   0.00000  Uiso   1.00
C103   C     0.09574   0.99466   0.64581   0.00000  Uiso   1.00
C104   C     0.07006   0.94347   0.60954   0.00000  Uiso   1.00
C105   C     0.04694   0.86554   0.53248   0.00000  Uiso   1.00
C106   C     0.98781   0.99504   0.79385   0.00000  Uiso   1.00
C107   C     0.97206   0.06736   0.78576   0.00000  Uiso   1.00
C108   C     0.91222   0.09649   0.79849   0.00000  Uiso   1.00
C109   C     0.90770   0.16332   0.78803   0.00000  Uiso   1.00
C110   C     0.04617   0.99174   0.83997   0.00000  Uiso   1.00
C111   C     0.04865   0.95727   0.89826   0.00000  Uiso   1.00
C112   C     0.10652   0.96043   0.93343   0.00000  Uiso   1.00
C113   C     0.01262   0.97186   0.72759   0.00000  Uiso   1.00
C114   C     0.98690   0.92067   0.69140   0.00000  Uiso   1.00
C115   C     0.01653   0.90708   0.63196   0.00000  Uiso   1.00
H116   H     0.12779   0.09020   0.73523   0.00000  Uiso   1.00
H117   H     0.06242   0.19858   0.73559   0.00000  Uiso   1.00
H118   H     0.19883   0.05938   0.83534   0.00000  Uiso   1.00
H119   H     0.13709   0.02278   0.62851   0.00000  Uiso   1.00
H120   H     0.96639   0.30273   0.74589   0.00000  Uiso   1.00
H121   H     0.25402   0.00919   0.95620   0.00000  Uiso   1.00
H122   H     0.12383   0.93202   0.52007   0.00000  Uiso   1.00
H123   H     0.94621   0.96676   0.81127   0.00000  Uiso   1.00
H124   H     0.87088   0.06837   0.81581   0.00000  Uiso   1.00
H125   H     0.00729   0.92916   0.91556   0.00000  Uiso   1.00
H126   H     0.94555   0.89257   0.70873   0.00000  Uiso   1.00
H127   H     0.81093   0.19704   0.81100   0.00000  Uiso   1.00
H128   H     0.09856   0.90350   0.02131   0.00000  Uiso   1.00
H129   H     0.96837   0.82633   0.58518   0.00000  Uiso   1.00
O130   O     0.84239   0.31896   0.78008   0.00000  Uiso   1.00
O131   O     0.21975   0.93383   0.05599   0.00000  Uiso   1.00
O132   O     0.04894   0.83260   0.48379   0.00000  Uiso   1.00
N133   N     0.94014   0.26391   0.76058   0.00000  Uiso   1.00
N134   N     0.20906   0.98947   0.95722   0.00000  Uiso   1.00
N135   N     0.08735   0.91732   0.54947   0.00000  Uiso   1.00
N136   N     0.85649   0.20704   0.79561   0.00000  Uiso   1.00
N137   N     0.12540   0.93260   0.99225   0.00000  Uiso   1.00
N138   N     0.00369   0.86045   0.58450   0.00000  Uiso   1.00
C139   C     0.41381   0.93808   0.25265   0.00000  Uiso   1.00
C140   C     0.47451   0.89631   0.26338   0.00000  Uiso   1.00
C141   C     0.47894   0.82951   0.25291   0.00000  Uiso   1.00
C142   C     0.53877   0.80029   0.26562   0.00000  Uiso   1.00
C143   C     0.62488   0.72990   0.27892   0.00000  Uiso   1.00
C144   C     0.40040   0.97194   0.31759   0.00000  Uiso   1.00
C145   C     0.34251   0.96873   0.35267   0.00000  Uiso   1.00
C146   C     0.33996   0.00318   0.41101   0.00000  Uiso   1.00
C147   C     0.31099   0.05025   0.50843   0.00000  Uiso   1.00
C148   C     0.43394   0.99182   0.20521   0.00000  Uiso   1.00
C149   C     0.40426   0.00534   0.14581   0.00000  Uiso   1.00
C150   C     0.42994   0.05653   0.10954   0.00000  Uiso   1.00
C151   C     0.45306   0.13446   0.03248   0.00000  Uiso   1.00
C152   C     0.51219   0.00496   0.29385   0.00000  Uiso   1.00
C153   C     0.52794   0.93264   0.28576   0.00000  Uiso   1.00
C154   C     0.58778   0.90351   0.29849   0.00000  Uiso   1.00
C155   C     0.59230   0.83668   0.28803   0.00000  Uiso   1.00
C156   C     0.45383   0.00826   0.33997   0.00000  Uiso   1.00
C157   C     0.45135   0.04273   0.39826   0.00000  Uiso   1.00
C158   C     0.39348   0.03957   0.43343   0.00000  Uiso   1.00
C159   C     0.48738   0.02814   0.22759   0.00000  Uiso   1.00
C160   C     0.51310   0.07933   0.19140   0.00000  Uiso   1.00
C161   C     0.48347   0.09292   0.13196   0.00000  Uiso   1.00
H162   H     0.37221   0.90980   0.23523   0.00000  Uiso   1.00
H163   H     0.43758   0.80142   0.23559   0.00000  Uiso   1.00
H164   H     0.30117   0.94062   0.33534   0.00000  Uiso   1.00
H165   H     0.36291   0.97722   0.12851   0.00000  Uiso   1.00
H166   H     0.53361   0.69727   0.24589   0.00000  Uiso   1.00
H167   H     0.24598   0.99081   0.45620   0.00000  Uiso   1.00
H168   H     0.37617   0.06798   0.02007   0.00000  Uiso   1.00
H169   H     0.55379   0.03324   0.31127   0.00000  Uiso   1.00
H170   H     0.62912   0.93163   0.31581   0.00000  Uiso   1.00
H171   H     0.49271   0.07084   0.41556   0.00000  Uiso   1.00
H172   H     0.55445   0.10743   0.20873   0.00000  Uiso   1.00
H173   H     0.68907   0.80296   0.31100   0.00000  Uiso   1.00
H174   H     0.40144   0.09650   0.52131   0.00000  Uiso   1.00
H175   H     0.53163   0.17367   0.08518   0.00000  Uiso   1.00
O176   O     0.65761   0.68104   0.28008   0.00000  Uiso   1.00
O177   O     0.28025   0.06617   0.55599   0.00000  Uiso   1.00
O178   O     0.45106   0.16740   0.98379   0.00000  Uiso   1.00
N179   N     0.55986   0.73609   0.26058   0.00000  Uiso   1.00
N180   N     0.29094   0.01053   0.45722   0.00000  Uiso   1.00
N181   N     0.41265   0.08268   0.04947   0.00000  Uiso   1.00
N182   N     0.64351   0.79296   0.29561   0.00000  Uiso   1.00
N183   N     0.37460   0.06740   0.49225   0.00000  Uiso   1.00
N184   N     0.49631   0.13955   0.08450   0.00000  Uiso   1.00
C185   C     0.74735   0.91381   0.56192   0.00000  Uiso   1.00
C186   C     0.73662   0.97451   0.60369   0.00000  Uiso   1.00
C187   C     0.74709   0.97894   0.67049   0.00000  Uiso   1.00
C188   C     0.73438   0.03877   0.69971   0.00000  Uiso   1.00
C189   C     0.72108   0.12488   0.77010   0.00000  Uiso   1.00
C190   C     0.68241   0.90040   0.52806   0.00000  Uiso   1.00
C191   C     0.64733   0.84251   0.53127   0.00000  Uiso   1.00
C192   C     0.58899   0.83996   0.49682   0.00000  Uiso   1.00
C193   C     0.49157   0.81099   0.44975   0.00000  Uiso   1.00
C194   C     0.79479   0.93394   0.50818   0.00000  Uiso   1.00
C195   C     0.85419   0.90426   0.49466   0.00000  Uiso   1.00
C196   C     0.89046   0.92994   0.44347   0.00000  Uiso   1.00
C197   C     0.96752   0.95306   0.36554   0.00000  Uiso   1.00
C198   C     0.70615   0.01219   0.49504   0.00000  Uiso   1.00
C199   C     0.71424   0.02794   0.56736   0.00000  Uiso   1.00
C200   C     0.70151   0.08778   0.59649   0.00000  Uiso   1.00
C201   C     0.71197   0.09230   0.66332   0.00000  Uiso   1.00
C202   C     0.66003   0.95383   0.49174   0.00000  Uiso   1.00
C203   C     0.60174   0.95135   0.45727   0.00000  Uiso   1.00
C204   C     0.56657   0.89348   0.46043   0.00000  Uiso   1.00
C205   C     0.77241   0.98738   0.47186   0.00000  Uiso   1.00
C206   C     0.80860   0.01310   0.42067   0.00000  Uiso   1.00
C207   C     0.86804   0.98347   0.40708   0.00000  Uiso   1.00
H208   H     0.76477   0.87221   0.59020   0.00000  Uiso   1.00
H209   H     0.76441   0.93758   0.69858   0.00000  Uiso   1.00
H210   H     0.66466   0.80117   0.55938   0.00000  Uiso   1.00
H211   H     0.87149   0.86291   0.52278   0.00000  Uiso   1.00
H212   H     0.75411   0.03361   0.80273   0.00000  Uiso   1.00
H213   H     0.54380   0.74598   0.50919   0.00000  Uiso   1.00
H214   H     0.97993   0.87617   0.43202   0.00000  Uiso   1.00
H215   H     0.68873   0.05379   0.46676   0.00000  Uiso   1.00
H216   H     0.68419   0.12912   0.56837   0.00000  Uiso   1.00
H217   H     0.58444   0.99271   0.42916   0.00000  Uiso   1.00
H218   H     0.79127   0.05445   0.39257   0.00000  Uiso   1.00
H219   H     0.68900   0.18907   0.69704   0.00000  Uiso   1.00
H220   H     0.47869   0.90144   0.40350   0.00000  Uiso   1.00
H221   H     0.91482   0.03163   0.32633   0.00000  Uiso   1.00
O222   O     0.71992   0.15761   0.81896   0.00000  Uiso   1.00
O223   O     0.44401   0.78025   0.43383   0.00000  Uiso   1.00
O224   O     0.01621   0.95106   0.33260   0.00000  Uiso   1.00
N225   N     0.73942   0.05986   0.76391   0.00000  Uiso   1.00
N226   N     0.54278   0.79094   0.48947   0.00000  Uiso   1.00
N227   N     0.95053   0.91265   0.41732   0.00000  Uiso   1.00
N228   N     0.70439   0.14351   0.70704   0.00000  Uiso   1.00
N229   N     0.50775   0.87460   0.43260   0.00000  Uiso   1.00
N230   N     0.91550   0.99631   0.36045   0.00000  Uiso   1.00
C231   C     0.24735   0.58619   0.43808   0.00000  Uiso   1.00
C232   C     0.23662   0.52549   0.39631   0.00000  Uiso   1.00
C233   C     0.24709   0.52106   0.32951   0.00000  Uiso   1.00
C234   C     0.23438   0.46123   0.30029   0.00000  Uiso   1.00
C235   C     0.22108   0.37512   0.22990   0.00000  Uiso   1.00
C236   C     0.18241   0.59960   0.47194   0.00000  Uiso   1.00
C237   C     0.14733   0.65749   0.46873   0.00000  Uiso   1.00
C238   C     0.08899   0.66004   0.50318   0.00000  Uiso   1.00
C239   C     0.99157   0.68901   0.55025   0.00000  Uiso   1.00
C240   C     0.29479   0.56606   0.49182   0.00000  Uiso   1.00
C241   C     0.35419   0.59574   0.50534   0.00000  Uiso   1.00
C242   C     0.39046   0.57006   0.55653   0.00000  Uiso   1.00
C243   C     0.46752   0.54694   0.63446   0.00000  Uiso   1.00
C244   C     0.20615   0.48781   0.50496   0.00000  Uiso   1.00
C245   C     0.21424   0.47206   0.43264   0.00000  Uiso   1.00
C246   C     0.20151   0.41222   0.40351   0.00000  Uiso   1.00
C247   C     0.21197   0.40770   0.33668   0.00000  Uiso   1.00
C248   C     0.16003   0.54617   0.50826   0.00000  Uiso   1.00
C249   C     0.10174   0.54865   0.54273   0.00000  Uiso   1.00
C250   C     0.06657   0.60652   0.53957   0.00000  Uiso   1.00
C251   C     0.27241   0.51262   0.52814   0.00000  Uiso   1.00
C252   C     0.30860   0.48690   0.57933   0.00000  Uiso   1.00
C253   C     0.36804   0.51653   0.59292   0.00000  Uiso   1.00
H254   H     0.26477   0.62779   0.40980   0.00000  Uiso   1.00
H255   H     0.26441   0.56242   0.30142   0.00000  Uiso   1.00
H256   H     0.16466   0.69883   0.44062   0.00000  Uiso   1.00
H257   H     0.37149   0.63709   0.47722   0.00000  Uiso   1.00
H258   H     0.25411   0.46639   0.19727   0.00000  Uiso   1.00
H259   H     0.04380   0.75402   0.49081   0.00000  Uiso   1.00
H260   H     0.47993   0.62383   0.56798   0.00000  Uiso   1.00
H261   H     0.18873   0.44621   0.53324   0.00000  Uiso   1.00
H262   H     0.18419   0.37088   0.43163   0.00000  Uiso   1.00
H263   H     0.08444   0.50729   0.57084   0.00000  Uiso   1.00
H264   H     0.29127   0.44555   0.60743   0.00000  Uiso   1.00
H265   H     0.18900   0.31093   0.30296   0.00000  Uiso   1.00
H266   H     0.97869   0.59856   0.59650   0.00000  Uiso   1.00
H267   H     0.41482   0.46837   0.67367   0.00000  Uiso   1.00
O268   O     0.21992   0.34239   0.18104   0.00000  Uiso   1.00
O269   O     0.94401   0.71975   0.56617   0.00000  Uiso   1.00
O270   O     0.51621   0.54894   0.66740   0.00000  Uiso   1.00
N271   N     0.23942   0.44014   0.23609   0.00000  Uiso   1.00
N272   N     0.04278   0.70906   0.51053   0.00000  Uiso   1.00
N273   N     0.45053   0.58735   0.58268   0.00000  Uiso   1.00
N274   N     0.20439   0.35649   0.29296   0.00000  Uiso   1.00
N275   N     0.00775   0.62540   0.56740   0.00000  Uiso   1.00
N276   N     0.41550   0.50369   0.63955   0.00000  Uiso   1.00
C277   C     0.75265   0.08619   0.06192   0.00000  Uiso   1.00
C278   C     0.76338   0.02549   0.10369   0.00000  Uiso   1.00
C279   C     0.75291   0.02106   0.17049   0.00000  Uiso   1.00
C280   C     0.76562   0.96123   0.19971   0.00000  Uiso   1.00
C281   C     0.77892   0.87512   0.27010   0.00000  Uiso   1.00
C282   C     0.81759   0.09960   0.02806   0.00000  Uiso   1.00
C283   C     0.85267   0.15749   0.03127   0.00000  Uiso   1.00
C284   C     0.91101   0.16004   0.99682   0.00000  Uiso   1.00
C285   C     0.00843   0.18901   0.94975   0.00000  Uiso   1.00
C286   C     0.70521   0.06606   0.00818   0.00000  Uiso   1.00
C287   C     0.64581   0.09574   0.99466   0.00000  Uiso   1.00
C288   C     0.60954   0.07006   0.94347   0.00000  Uiso   1.00
C289   C     0.53248   0.04694   0.86554   0.00000  Uiso   1.00
C290   C     0.79385   0.98781   0.99504   0.00000  Uiso   1.00
C291   C     0.78576   0.97206   0.06736   0.00000  Uiso   1.00
C292   C     0.79849   0.91222   0.09649   0.00000  Uiso   1.00
C293   C     0.78803   0.90770   0.16332   0.00000  Uiso   1.00
C294   C     0.83997   0.04617   0.99174   0.00000  Uiso   1.00
C295   C     0.89826   0.04865   0.95727   0.00000  Uiso   1.00
C296   C     0.93343   0.10652   0.96043   0.00000  Uiso   1.00
C297   C     0.72759   0.01262   0.97186   0.00000  Uiso   1.00
C298   C     0.69140   0.98690   0.92067   0.00000  Uiso   1.00
C299   C     0.63196   0.01653   0.90708   0.00000  Uiso   1.00
H300   H     0.73523   0.12779   0.09020   0.00000  Uiso   1.00
H301   H     0.73559   0.06242   0.19858   0.00000  Uiso   1.00
H302   H     0.83534   0.19883   0.05938   0.00000  Uiso   1.00
H303   H     0.62851   0.13709   0.02278   0.00000  Uiso   1.00
H304   H     0.74589   0.96639   0.30273   0.00000  Uiso   1.00
H305   H     0.95620   0.25402   0.00919   0.00000  Uiso   1.00
H306   H     0.52007   0.12383   0.93202   0.00000  Uiso   1.00
H307   H     0.81127   0.94621   0.96676   0.00000  Uiso   1.00
H308   H     0.81581   0.87088   0.06837   0.00000  Uiso   1.00
H309   H     0.91556   0.00729   0.92916   0.00000  Uiso   1.00
H310   H     0.70873   0.94555   0.89257   0.00000  Uiso   1.00
H311   H     0.81100   0.81093   0.19704   0.00000  Uiso   1.00
H312   H     0.02131   0.09856   0.90350   0.00000  Uiso   1.00
H313   H     0.58518   0.96837   0.82633   0.00000  Uiso   1.00
O314   O     0.78008   0.84239   0.31896   0.00000  Uiso   1.00
O315   O     0.05599   0.21975   0.93383   0.00000  Uiso   1.00
O316   O     0.48379   0.04894   0.83260   0.00000  Uiso   1.00
N317   N     0.76058   0.94014   0.26391   0.00000  Uiso   1.00
N318   N     0.95722   0.20906   0.98947   0.00000  Uiso   1.00
N319   N     0.54947   0.08735   0.91732   0.00000  Uiso   1.00
N320   N     0.79561   0.85649   0.20704   0.00000  Uiso   1.00
N321   N     0.99225   0.12540   0.93260   0.00000  Uiso   1.00
N322   N     0.58450   0.00369   0.86045   0.00000  Uiso   1.00
C323   C     0.25265   0.41381   0.93808   0.00000  Uiso   1.00
C324   C     0.26338   0.47451   0.89631   0.00000  Uiso   1.00
C325   C     0.25291   0.47894   0.82951   0.00000  Uiso   1.00
C326   C     0.26562   0.53877   0.80029   0.00000  Uiso   1.00
C327   C     0.27892   0.62488   0.72990   0.00000  Uiso   1.00
C328   C     0.31759   0.40040   0.97194   0.00000  Uiso   1.00
C329   C     0.35267   0.34251   0.96873   0.00000  Uiso   1.00
C330   C     0.41101   0.33996   0.00318   0.00000  Uiso   1.00
C331   C     0.50843   0.31099   0.05025   0.00000  Uiso   1.00
C332   C     0.20521   0.43394   0.99182   0.00000  Uiso   1.00
C333   C     0.14581   0.40426   0.00534   0.00000  Uiso   1.00
C334   C     0.10954   0.42994   0.05653   0.00000  Uiso   1.00
C335   C     0.03248   0.45306   0.13446   0.00000  Uiso   1.00
C336   C     0.29385   0.51219   0.00496   0.00000  Uiso   1.00
C337   C     0.28576   0.52794   0.93264   0.00000  Uiso   1.00
C338   C     0.29849   0.58778   0.90351   0.00000  Uiso   1.00
C339   C     0.28803   0.59230   0.83668   0.00000  Uiso   1.00
C340   C     0.33997   0.45383   0.00826   0.00000  Uiso   1.00
C341   C     0.39826   0.45135   0.04273   0.00000  Uiso   1.00
C342   C     0.43343   0.39348   0.03957   0.00000  Uiso   1.00
C343   C     0.22759   0.48738   0.02814   0.00000  Uiso   1.00
C344   C     0.19140   0.51310   0.07933   0.00000  Uiso   1.00
C345   C     0.13196   0.48347   0.09292   0.00000  Uiso   1.00
H346   H     0.23523   0.37221   0.90980   0.00000  Uiso   1.00
H347   H     0.23559   0.43758   0.80142   0.00000  Uiso   1.00
H348   H     0.33534   0.30117   0.94062   0.00000  Uiso   1.00
H349   H     0.12851   0.36291   0.97722   0.00000  Uiso   1.00
H350   H     0.24589   0.53361   0.69727   0.00000  Uiso   1.00
H351   H     0.45620   0.24598   0.99081   0.00000  Uiso   1.00
H352   H     0.02007   0.37617   0.06798   0.00000  Uiso   1.00
H353   H     0.31127   0.55379   0.03324   0.00000  Uiso   1.00
H354   H     0.31581   0.62912   0.93163   0.00000  Uiso   1.00
H355   H     0.41556   0.49271   0.07084   0.00000  Uiso   1.00
H356   H     0.20873   0.55445   0.10743   0.00000  Uiso   1.00
H357   H     0.31100   0.68907   0.80296   0.00000  Uiso   1.00
H358   H     0.52131   0.40144   0.09650   0.00000  Uiso   1.00
H359   H     0.08518   0.53163   0.17367   0.00000  Uiso   1.00
O360   O     0.28008   0.65761   0.68104   0.00000  Uiso   1.00
O361   O     0.55599   0.28025   0.06617   0.00000  Uiso   1.00
O362   O     0.98379   0.45106   0.16740   0.00000  Uiso   1.00
N363   N     0.26058   0.55986   0.73609   0.00000  Uiso   1.00
N364   N     0.45722   0.29094   0.01053   0.00000  Uiso   1.00
N365   N     0.04947   0.41265   0.08268   0.00000  Uiso   1.00
N366   N     0.29561   0.64351   0.79296   0.00000  Uiso   1.00
N367   N     0.49225   0.37460   0.06740   0.00000  Uiso   1.00
N368   N     0.08450   0.49631   0.13955   0.00000  Uiso   1.00
C369   C     0.56192   0.74735   0.91381   0.00000  Uiso   1.00
C370   C     0.60369   0.73662   0.97451   0.00000  Uiso   1.00
C371   C     0.67049   0.74709   0.97894   0.00000  Uiso   1.00
C372   C     0.69971   0.73438   0.03877   0.00000  Uiso   1.00
C373   C     0.77010   0.72108   0.12488   0.00000  Uiso   1.00
C374   C     0.52806   0.68241   0.90040   0.00000  Uiso   1.00
C375   C     0.53127   0.64733   0.84251   0.00000  Uiso   1.00
C376   C     0.49682   0.58899   0.83996   0.00000  Uiso   1.00
C377   C     0.44975   0.49157   0.81099   0.00000  Uiso   1.00
C378   C     0.50818   0.79479   0.93394   0.00000  Uiso   1.00
C379   C     0.49466   0.85419   0.90426   0.00000  Uiso   1.00
C380   C     0.44347   0.89046   0.92994   0.00000  Uiso   1.00
C381   C     0.36554   0.96752   0.95306   0.00000  Uiso   1.00
C382   C     0.49504   0.70615   0.01219   0.00000  Uiso   1.00
C383   C     0.56736   0.71424   0.02794   0.00000  Uiso   1.00
C384   C     0.59649   0.70151   0.08778   0.00000  Uiso   1.00
C385   C     0.66332   0.71197   0.09230   0.00000  Uiso   1.00
C386   C     0.49174   0.66003   0.95383   0.00000  Uiso   1.00
C387   C     0.45727   0.60174   0.95135   0.00000  Uiso   1.00
C388   C     0.46043   0.56657   0.89348   0.00000  Uiso   1.00
C389   C     0.47186   0.77241   0.98738   0.00000  Uiso   1.00
C390   C     0.42067   0.80860   0.01310   0.00000  Uiso   1.00
C391   C     0.40708   0.86804   0.98347   0.00000  Uiso   1.00
H392   H     0.59020   0.76477   0.87221   0.00000  Uiso   1.00
H393   H     0.69858   0.76441   0.93758   0.00000  Uiso   1.00
H394   H     0.55938   0.66466   0.80117   0.00000  Uiso   1.00
H395   H     0.52278   0.87149   0.86291   0.00000  Uiso   1.00
H396   H     0.80273   0.75411   0.03361   0.00000  Uiso   1.00
H397   H     0.50919   0.54380   0.74598   0.00000  Uiso   1.00
H398   H     0.43202   0.97993   0.87617   0.00000  Uiso   1.00
H399   H     0.46676   0.68873   0.05379   0.00000  Uiso   1.00
H400   H     0.56837   0.68419   0.12912   0.00000  Uiso   1.00
H401   H     0.42916   0.58444   0.99271   0.00000  Uiso   1.00
H402   H     0.39257   0.79127   0.05445   0.00000  Uiso   1.00
H403   H     0.69704   0.68900   0.18907   0.00000  Uiso   1.00
H404   H     0.40350   0.47869   0.90144   0.00000  Uiso   1.00
H405   H     0.32633   0.91482   0.03163   0.00000  Uiso   1.00
O406   O     0.81896   0.71992   0.15761   0.00000  Uiso   1.00
O407   O     0.43383   0.44401   0.78025   0.00000  Uiso   1.00
O408   O     0.33260   0.01621   0.95106   0.00000  Uiso   1.00
N409   N     0.76391   0.73942   0.05986   0.00000  Uiso   1.00
N410   N     0.48947   0.54278   0.79094   0.00000  Uiso   1.00
N411   N     0.41732   0.95053   0.91265   0.00000  Uiso   1.00
N412   N     0.70704   0.70439   0.14351   0.00000  Uiso   1.00
N413   N     0.43260   0.50775   0.87460   0.00000  Uiso   1.00
N414   N     0.36045   0.91550   0.99631   0.00000  Uiso   1.00
C415   C     0.43808   0.24735   0.58619   0.00000  Uiso   1.00
C416   C     0.39631   0.23662   0.52549   0.00000  Uiso   1.00
C417   C     0.32951   0.24709   0.52106   0.00000  Uiso   1.00
C418   C     0.30029   0.23438   0.46123   0.00000  Uiso   1.00
C419   C     0.22990   0.22108   0.37512   0.00000  Uiso   1.00
C420   C     0.47194   0.18241   0.59960   0.00000  Uiso   1.00
C421   C     0.46873   0.14733   0.65749   0.00000  Uiso   1.00
C422   C     0.50318   0.08899   0.66004   0.00000  Uiso   1.00
C423   C     0.55025   0.99157   0.68901   0.00000  Uiso   1.00
C424   C     0.49182   0.29479   0.56606   0.00000  Uiso   1.00
C425   C     0.50534   0.35419   0.59574   0.00000  Uiso   1.00
C426   C     0.55653   0.39046   0.57006   0.00000  Uiso   1.00
C427   C     0.63446   0.46752   0.54694   0.00000  Uiso   1.00
C428   C     0.50496   0.20615   0.48781   0.00000  Uiso   1.00
C429   C     0.43264   0.21424   0.47206   0.00000  Uiso   1.00
C430   C     0.40351   0.20151   0.41222   0.00000  Uiso   1.00
C431   C     0.33668   0.21197   0.40770   0.00000  Uiso   1.00
C432   C     0.50826   0.16003   0.54617   0.00000  Uiso   1.00
C433   C     0.54273   0.10174   0.54865   0.00000  Uiso   1.00
C434   C     0.53957   0.06657   0.60652   0.00000  Uiso   1.00
C435   C     0.52814   0.27241   0.51262   0.00000  Uiso   1.00
C436   C     0.57933   0.30860   0.48690   0.00000  Uiso   1.00
C437   C     0.59292   0.36804   0.51653   0.00000  Uiso   1.00
H438   H     0.40980   0.26477   0.62779   0.00000  Uiso   1.00
H439   H     0.30142   0.26441   0.56242   0.00000  Uiso   1.00
H440   H     0.44062   0.16466   0.69883   0.00000  Uiso   1.00
H441   H     0.47722   0.37149   0.63709   0.00000  Uiso   1.00
H442   H     0.19727   0.25411   0.46639   0.00000  Uiso   1.00
H443   H     0.49081   0.04380   0.75402   0.00000  Uiso   1.00
H444   H     0.56798   0.47993   0.62383   0.00000  Uiso   1.00
H445   H     0.53324   0.18873   0.44621   0.00000  Uiso   1.00
H446   H     0.43163   0.18419   0.37088   0.00000  Uiso   1.00
H447   H     0.57084   0.08444   0.50729   0.00000  Uiso   1.00
H448   H     0.60743   0.29127   0.44555   0.00000  Uiso   1.00
H449   H     0.30296   0.18900   0.31093   0.00000  Uiso   1.00
H450   H     0.59650   0.97869   0.59856   0.00000  Uiso   1.00
H451   H     0.67367   0.41482   0.46837   0.00000  Uiso   1.00
O452   O     0.18104   0.21992   0.34239   0.00000  Uiso   1.00
O453   O     0.56617   0.94401   0.71975   0.00000  Uiso   1.00
O454   O     0.66740   0.51621   0.54894   0.00000  Uiso   1.00
N455   N     0.23609   0.23942   0.44014   0.00000  Uiso   1.00
N456   N     0.51053   0.04278   0.70906   0.00000  Uiso   1.00
N457   N     0.58268   0.45053   0.58735   0.00000  Uiso   1.00
N458   N     0.29296   0.20439   0.35649   0.00000  Uiso   1.00
N459   N     0.56740   0.00775   0.62540   0.00000  Uiso   1.00
N460   N     0.63955   0.41550   0.50369   0.00000  Uiso   1.00
C461   C     0.06192   0.75265   0.08619   0.00000  Uiso   1.00
C462   C     0.10369   0.76338   0.02549   0.00000  Uiso   1.00
C463   C     0.17049   0.75291   0.02106   0.00000  Uiso   1.00
C464   C     0.19971   0.76562   0.96123   0.00000  Uiso   1.00
C465   C     0.27010   0.77892   0.87512   0.00000  Uiso   1.00
C466   C     0.02806   0.81759   0.09960   0.00000  Uiso   1.00
C467   C     0.03127   0.85267   0.15749   0.00000  Uiso   1.00
C468   C     0.99682   0.91101   0.16004   0.00000  Uiso   1.00
C469   C     0.94975   0.00843   0.18901   0.00000  Uiso   1.00
C470   C     0.00818   0.70521   0.06606   0.00000  Uiso   1.00
C471   C     0.99466   0.64581   0.09574   0.00000  Uiso   1.00
C472   C     0.94347   0.60954   0.07006   0.00000  Uiso   1.00
C473   C     0.86554   0.53248   0.04694   0.00000  Uiso   1.00
C474   C     0.99504   0.79385   0.98781   0.00000  Uiso   1.00
C475   C     0.06736   0.78576   0.97206   0.00000  Uiso   1.00
C476   C     0.09649   0.79849   0.91222   0.00000  Uiso   1.00
C477   C     0.16332   0.78803   0.90770   0.00000  Uiso   1.00
C478   C     0.99174   0.83997   0.04617   0.00000  Uiso   1.00
C479   C     0.95727   0.89826   0.04865   0.00000  Uiso   1.00
C480   C     0.96043   0.93343   0.10652   0.00000  Uiso   1.00
C481   C     0.97186   0.72759   0.01262   0.00000  Uiso   1.00
C482   C     0.92067   0.69140   0.98690   0.00000  Uiso   1.00
C483   C     0.90708   0.63196   0.01653   0.00000  Uiso   1.00
H484   H     0.09020   0.73523   0.12779   0.00000  Uiso   1.00
H485   H     0.19858   0.73559   0.06242   0.00000  Uiso   1.00
H486   H     0.05938   0.83534   0.19883   0.00000  Uiso   1.00
H487   H     0.02278   0.62851   0.13709   0.00000  Uiso   1.00
H488   H     0.30273   0.74589   0.96639   0.00000  Uiso   1.00
H489   H     0.00919   0.95620   0.25402   0.00000  Uiso   1.00
H490   H     0.93202   0.52007   0.12383   0.00000  Uiso   1.00
H491   H     0.96676   0.81127   0.94621   0.00000  Uiso   1.00
H492   H     0.06837   0.81581   0.87088   0.00000  Uiso   1.00
H493   H     0.92916   0.91556   0.00729   0.00000  Uiso   1.00
H494   H     0.89257   0.70873   0.94555   0.00000  Uiso   1.00
H495   H     0.19704   0.81100   0.81093   0.00000  Uiso   1.00
H496   H     0.90350   0.02131   0.09856   0.00000  Uiso   1.00
H497   H     0.82633   0.58518   0.96837   0.00000  Uiso   1.00
O498   O     0.31896   0.78008   0.84239   0.00000  Uiso   1.00
O499   O     0.93383   0.05599   0.21975   0.00000  Uiso   1.00
O500   O     0.83260   0.48379   0.04894   0.00000  Uiso   1.00
N501   N     0.26391   0.76058   0.94014   0.00000  Uiso   1.00
N502   N     0.98947   0.95722   0.20906   0.00000  Uiso   1.00
N503   N     0.91732   0.54947   0.08735   0.00000  Uiso   1.00
N504   N     0.20704   0.79561   0.85649   0.00000  Uiso   1.00
N505   N     0.93260   0.99225   0.12540   0.00000  Uiso   1.00
N506   N     0.86045   0.58450   0.00369   0.00000  Uiso   1.00
C507   C     0.93808   0.25265   0.41381   0.00000  Uiso   1.00
C508   C     0.89631   0.26338   0.47451   0.00000  Uiso   1.00
C509   C     0.82951   0.25291   0.47894   0.00000  Uiso   1.00
C510   C     0.80029   0.26562   0.53877   0.00000  Uiso   1.00
C511   C     0.72990   0.27892   0.62488   0.00000  Uiso   1.00
C512   C     0.97194   0.31759   0.40040   0.00000  Uiso   1.00
C513   C     0.96873   0.35267   0.34251   0.00000  Uiso   1.00
C514   C     0.00318   0.41101   0.33996   0.00000  Uiso   1.00
C515   C     0.05025   0.50843   0.31099   0.00000  Uiso   1.00
C516   C     0.99182   0.20521   0.43394   0.00000  Uiso   1.00
C517   C     0.00534   0.14581   0.40426   0.00000  Uiso   1.00
C518   C     0.05653   0.10954   0.42994   0.00000  Uiso   1.00
C519   C     0.13446   0.03248   0.45306   0.00000  Uiso   1.00
C520   C     0.00496   0.29385   0.51219   0.00000  Uiso   1.00
C521   C     0.93264   0.28576   0.52794   0.00000  Uiso   1.00
C522   C     0.90351   0.29849   0.58778   0.00000  Uiso   1.00
C523   C     0.83668   0.28803   0.59230   0.00000  Uiso   1.00
C524   C     0.00826   0.33997   0.45383   0.00000  Uiso   1.00
C525   C     0.04273   0.39826   0.45135   0.00000  Uiso   1.00
C526   C     0.03957   0.43343   0.39348   0.00000  Uiso   1.00
C527   C     0.02814   0.22759   0.48738   0.00000  Uiso   1.00
C528   C     0.07933   0.19140   0.51310   0.00000  Uiso   1.00
C529   C     0.09292   0.13196   0.48347   0.00000  Uiso   1.00
H530   H     0.90980   0.23523   0.37221   0.00000  Uiso   1.00
H531   H     0.80142   0.23559   0.43758   0.00000  Uiso   1.00
H532   H     0.94062   0.33534   0.30117   0.00000  Uiso   1.00
H533   H     0.97722   0.12851   0.36291   0.00000  Uiso   1.00
H534   H     0.69727   0.24589   0.53361   0.00000  Uiso   1.00
H535   H     0.99081   0.45620   0.24598   0.00000  Uiso   1.00
H536   H     0.06798   0.02007   0.37617   0.00000  Uiso   1.00
H537   H     0.03324   0.31127   0.55379   0.00000  Uiso   1.00
H538   H     0.93163   0.31581   0.62912   0.00000  Uiso   1.00
H539   H     0.07084   0.41556   0.49271   0.00000  Uiso   1.00
H540   H     0.10743   0.20873   0.55445   0.00000  Uiso   1.00
H541   H     0.80296   0.31100   0.68907   0.00000  Uiso   1.00
H542   H     0.09650   0.52131   0.40144   0.00000  Uiso   1.00
H543   H     0.17367   0.08518   0.53163   0.00000  Uiso   1.00
O544   O     0.68104   0.28008   0.65761   0.00000  Uiso   1.00
O545   O     0.06617   0.55599   0.28025   0.00000  Uiso   1.00
O546   O     0.16740   0.98379   0.45106   0.00000  Uiso   1.00
N547   N     0.73609   0.26058   0.55986   0.00000  Uiso   1.00
N548   N     0.01053   0.45722   0.29094   0.00000  Uiso   1.00
N549   N     0.08268   0.04947   0.41265   0.00000  Uiso   1.00
N550   N     0.79296   0.29561   0.64351   0.00000  Uiso   1.00
N551   N     0.06740   0.49225   0.37460   0.00000  Uiso   1.00
N552   N     0.13955   0.08450   0.49631   0.00000  Uiso   1.00
