data_job_03240
_audit_creation_date              2018-12-19
_audit_creation_method            'Materials Studio'
_symmetry_space_group_name_H-M    'P1'
_symmetry_Int_Tables_number       1
_symmetry_cell_setting            triclinic
loop_
_symmetry_equiv_pos_as_xyz
  x,y,z
_cell_length_a                    12.6060
_cell_length_b                    23.6845
_cell_length_c                    22.5122
_cell_angle_alpha                 90.0000
_cell_angle_beta                  90.0000
_cell_angle_gamma                 90.0000
loop_
_atom_site_label
_atom_site_type_symbol
_atom_site_fract_x
_atom_site_fract_y
_atom_site_fract_z
_atom_site_U_iso_or_equiv
_atom_site_adp_type
_atom_site_occupancy
C1     C     0.91553   0.68743   0.52633   0.00000  Uiso   1.00
C2     C     0.99885   0.64630   0.54956   0.00000  Uiso   1.00
C3     C     0.09519   0.66103   0.57505   0.00000  Uiso   1.00
C4     C     0.16042   0.61716   0.59348   0.00000  Uiso   1.00
C5     C     0.29440   0.56190   0.63056   0.00000  Uiso   1.00
C6     C     0.89657   0.67135   0.46160   0.00000  Uiso   1.00
C7     C     0.90691   0.70715   0.41314   0.00000  Uiso   1.00
C8     C     0.88602   0.68437   0.35752   0.00000  Uiso   1.00
C9     C     0.86114   0.66802   0.25806   0.00000  Uiso   1.00
C10    C     0.81315   0.67329   0.55920   0.00000  Uiso   1.00
C11    C     0.75332   0.71072   0.59278   0.00000  Uiso   1.00
C12    C     0.66218   0.68958   0.61932   0.00000  Uiso   1.00
C13    C     0.50777   0.67623   0.67138   0.00000  Uiso   1.00
C14    C     0.86004   0.58333   0.51374   0.00000  Uiso   1.00
C15    C     0.96871   0.58976   0.54272   0.00000  Uiso   1.00
C16    C     0.03380   0.54586   0.56112   0.00000  Uiso   1.00
C17    C     0.13022   0.56052   0.58663   0.00000  Uiso   1.00
C18    C     0.86643   0.61482   0.45476   0.00000  Uiso   1.00
C19    C     0.84551   0.59198   0.39921   0.00000  Uiso   1.00
C20    C     0.85582   0.62773   0.35067   0.00000  Uiso   1.00
C21    C     0.78300   0.61675   0.55236   0.00000  Uiso   1.00
C22    C     0.69193   0.59555   0.57885   0.00000  Uiso   1.00
C23    C     0.63198   0.63294   0.61247   0.00000  Uiso   1.00
H24    H     0.93899   0.73144   0.53165   0.00000  Uiso   1.00
H25    H     0.11849   0.70479   0.58033   0.00000  Uiso   1.00
H26    H     0.93022   0.75090   0.41844   0.00000  Uiso   1.00
H27    H     0.77667   0.75447   0.59806   0.00000  Uiso   1.00
H28    H     0.30423   0.65030   0.63126   0.00000  Uiso   1.00
H29    H     0.90722   0.74754   0.28992   0.00000  Uiso   1.00
H30    H     0.58341   0.75506   0.66867   0.00000  Uiso   1.00
H31    H     0.83657   0.53931   0.50842   0.00000  Uiso   1.00
H32    H     0.01045   0.50211   0.55583   0.00000  Uiso   1.00
H33    H     0.82219   0.54823   0.39394   0.00000  Uiso   1.00
H34    H     0.66863   0.55180   0.57355   0.00000  Uiso   1.00
H35    H     0.21654   0.48580   0.61137   0.00000  Uiso   1.00
H36    H     0.81953   0.58304   0.27003   0.00000  Uiso   1.00
H37    H     0.49572   0.59056   0.64878   0.00000  Uiso   1.00
O38    O     0.37663   0.54704   0.65290   0.00000  Uiso   1.00
O39    O     0.85575   0.67462   0.20508   0.00000  Uiso   1.00
O40    O     0.43093   0.68449   0.70199   0.00000  Uiso   1.00
N41    N     0.25972   0.61669   0.62008   0.00000  Uiso   1.00
N42    N     0.88855   0.70760   0.30095   0.00000  Uiso   1.00
N43    N     0.58581   0.71464   0.65504   0.00000  Uiso   1.00
N44    N     0.21253   0.52817   0.60938   0.00000  Uiso   1.00
N45    N     0.84137   0.61908   0.29025   0.00000  Uiso   1.00
N46    N     0.53862   0.62612   0.64434   0.00000  Uiso   1.00
C47    C     0.41553   0.18743   0.52633   0.00000  Uiso   1.00
C48    C     0.49885   0.14630   0.54956   0.00000  Uiso   1.00
C49    C     0.59519   0.16103   0.57505   0.00000  Uiso   1.00
C50    C     0.66042   0.11716   0.59348   0.00000  Uiso   1.00
C51    C     0.79440   0.06190   0.63056   0.00000  Uiso   1.00
C52    C     0.39657   0.17135   0.46160   0.00000  Uiso   1.00
C53    C     0.40691   0.20715   0.41314   0.00000  Uiso   1.00
C54    C     0.38602   0.18437   0.35752   0.00000  Uiso   1.00
C55    C     0.36114   0.16802   0.25806   0.00000  Uiso   1.00
C56    C     0.31315   0.17329   0.55920   0.00000  Uiso   1.00
C57    C     0.25332   0.21072   0.59278   0.00000  Uiso   1.00
C58    C     0.16218   0.18958   0.61932   0.00000  Uiso   1.00
C59    C     0.00777   0.17623   0.67138   0.00000  Uiso   1.00
C60    C     0.36004   0.08333   0.51374   0.00000  Uiso   1.00
C61    C     0.46871   0.08976   0.54272   0.00000  Uiso   1.00
C62    C     0.53380   0.04586   0.56112   0.00000  Uiso   1.00
C63    C     0.63022   0.06052   0.58663   0.00000  Uiso   1.00
C64    C     0.36643   0.11482   0.45476   0.00000  Uiso   1.00
C65    C     0.34551   0.09198   0.39921   0.00000  Uiso   1.00
C66    C     0.35582   0.12773   0.35067   0.00000  Uiso   1.00
C67    C     0.28300   0.11675   0.55236   0.00000  Uiso   1.00
C68    C     0.19193   0.09555   0.57885   0.00000  Uiso   1.00
C69    C     0.13198   0.13294   0.61247   0.00000  Uiso   1.00
H70    H     0.43899   0.23144   0.53165   0.00000  Uiso   1.00
H71    H     0.61849   0.20479   0.58033   0.00000  Uiso   1.00
H72    H     0.43022   0.25090   0.41844   0.00000  Uiso   1.00
H73    H     0.27667   0.25447   0.59806   0.00000  Uiso   1.00
H74    H     0.80423   0.15030   0.63126   0.00000  Uiso   1.00
H75    H     0.40722   0.24754   0.28992   0.00000  Uiso   1.00
H76    H     0.08341   0.25506   0.66867   0.00000  Uiso   1.00
H77    H     0.33657   0.03931   0.50842   0.00000  Uiso   1.00
H78    H     0.51045   0.00211   0.55583   0.00000  Uiso   1.00
H79    H     0.32219   0.04823   0.39394   0.00000  Uiso   1.00
H80    H     0.16863   0.05180   0.57355   0.00000  Uiso   1.00
H81    H     0.71654   0.98580   0.61137   0.00000  Uiso   1.00
H82    H     0.31953   0.08304   0.27003   0.00000  Uiso   1.00
H83    H     0.99572   0.09056   0.64878   0.00000  Uiso   1.00
O84    O     0.87663   0.04704   0.65290   0.00000  Uiso   1.00
O85    O     0.35575   0.17462   0.20508   0.00000  Uiso   1.00
O86    O     0.93093   0.18449   0.70199   0.00000  Uiso   1.00
N87    N     0.75972   0.11669   0.62008   0.00000  Uiso   1.00
N88    N     0.38855   0.20760   0.30095   0.00000  Uiso   1.00
N89    N     0.08581   0.21464   0.65504   0.00000  Uiso   1.00
N90    N     0.71253   0.02817   0.60938   0.00000  Uiso   1.00
N91    N     0.34137   0.11908   0.29025   0.00000  Uiso   1.00
N92    N     0.03862   0.12612   0.64434   0.00000  Uiso   1.00
C93    C     0.08447   0.31257   0.02633   0.00000  Uiso   1.00
C94    C     0.00115   0.35370   0.04956   0.00000  Uiso   1.00
C95    C     0.90481   0.33897   0.07505   0.00000  Uiso   1.00
C96    C     0.83958   0.38284   0.09348   0.00000  Uiso   1.00
C97    C     0.70560   0.43810   0.13056   0.00000  Uiso   1.00
C98    C     0.10343   0.32865   0.96160   0.00000  Uiso   1.00
C99    C     0.09309   0.29285   0.91314   0.00000  Uiso   1.00
C100   C     0.11398   0.31563   0.85752   0.00000  Uiso   1.00
C101   C     0.13886   0.33198   0.75806   0.00000  Uiso   1.00
C102   C     0.18685   0.32671   0.05920   0.00000  Uiso   1.00
C103   C     0.24668   0.28928   0.09278   0.00000  Uiso   1.00
C104   C     0.33782   0.31042   0.11932   0.00000  Uiso   1.00
C105   C     0.49223   0.32377   0.17138   0.00000  Uiso   1.00
C106   C     0.13996   0.41667   0.01374   0.00000  Uiso   1.00
C107   C     0.03129   0.41024   0.04272   0.00000  Uiso   1.00
C108   C     0.96620   0.45414   0.06112   0.00000  Uiso   1.00
C109   C     0.86978   0.43948   0.08663   0.00000  Uiso   1.00
C110   C     0.13357   0.38518   0.95476   0.00000  Uiso   1.00
C111   C     0.15449   0.40802   0.89921   0.00000  Uiso   1.00
C112   C     0.14418   0.37227   0.85067   0.00000  Uiso   1.00
C113   C     0.21700   0.38325   0.05236   0.00000  Uiso   1.00
C114   C     0.30807   0.40445   0.07885   0.00000  Uiso   1.00
C115   C     0.36802   0.36706   0.11247   0.00000  Uiso   1.00
H116   H     0.06101   0.26856   0.03165   0.00000  Uiso   1.00
H117   H     0.88151   0.29521   0.08033   0.00000  Uiso   1.00
H118   H     0.06978   0.24910   0.91844   0.00000  Uiso   1.00
H119   H     0.22333   0.24553   0.09806   0.00000  Uiso   1.00
H120   H     0.69577   0.34970   0.13126   0.00000  Uiso   1.00
H121   H     0.09278   0.25246   0.78992   0.00000  Uiso   1.00
H122   H     0.41659   0.24494   0.16867   0.00000  Uiso   1.00
H123   H     0.16343   0.46069   0.00842   0.00000  Uiso   1.00
H124   H     0.98955   0.49789   0.05583   0.00000  Uiso   1.00
H125   H     0.17781   0.45177   0.89394   0.00000  Uiso   1.00
H126   H     0.33137   0.44820   0.07355   0.00000  Uiso   1.00
H127   H     0.78346   0.51420   0.11137   0.00000  Uiso   1.00
H128   H     0.18047   0.41696   0.77003   0.00000  Uiso   1.00
H129   H     0.50428   0.40944   0.14878   0.00000  Uiso   1.00
O130   O     0.62337   0.45296   0.15290   0.00000  Uiso   1.00
O131   O     0.14425   0.32538   0.70508   0.00000  Uiso   1.00
O132   O     0.56907   0.31551   0.20199   0.00000  Uiso   1.00
N133   N     0.74028   0.38331   0.12008   0.00000  Uiso   1.00
N134   N     0.11145   0.29240   0.80095   0.00000  Uiso   1.00
N135   N     0.41419   0.28536   0.15504   0.00000  Uiso   1.00
N136   N     0.78747   0.47183   0.10938   0.00000  Uiso   1.00
N137   N     0.15863   0.38092   0.79025   0.00000  Uiso   1.00
N138   N     0.46138   0.37388   0.14434   0.00000  Uiso   1.00
C139   C     0.58447   0.81257   0.02633   0.00000  Uiso   1.00
C140   C     0.50115   0.85370   0.04956   0.00000  Uiso   1.00
C141   C     0.40481   0.83897   0.07505   0.00000  Uiso   1.00
C142   C     0.33958   0.88284   0.09348   0.00000  Uiso   1.00
C143   C     0.20560   0.93810   0.13056   0.00000  Uiso   1.00
C144   C     0.60343   0.82865   0.96160   0.00000  Uiso   1.00
C145   C     0.59309   0.79285   0.91314   0.00000  Uiso   1.00
C146   C     0.61398   0.81563   0.85752   0.00000  Uiso   1.00
C147   C     0.63886   0.83198   0.75806   0.00000  Uiso   1.00
C148   C     0.68685   0.82671   0.05920   0.00000  Uiso   1.00
C149   C     0.74668   0.78928   0.09278   0.00000  Uiso   1.00
C150   C     0.83782   0.81042   0.11932   0.00000  Uiso   1.00
C151   C     0.99223   0.82377   0.17138   0.00000  Uiso   1.00
C152   C     0.63996   0.91667   0.01374   0.00000  Uiso   1.00
C153   C     0.53129   0.91024   0.04272   0.00000  Uiso   1.00
C154   C     0.46620   0.95414   0.06112   0.00000  Uiso   1.00
C155   C     0.36978   0.93948   0.08663   0.00000  Uiso   1.00
C156   C     0.63357   0.88518   0.95476   0.00000  Uiso   1.00
C157   C     0.65449   0.90802   0.89921   0.00000  Uiso   1.00
C158   C     0.64418   0.87227   0.85067   0.00000  Uiso   1.00
C159   C     0.71700   0.88325   0.05236   0.00000  Uiso   1.00
C160   C     0.80807   0.90445   0.07885   0.00000  Uiso   1.00
C161   C     0.86802   0.86706   0.11247   0.00000  Uiso   1.00
H162   H     0.56101   0.76856   0.03165   0.00000  Uiso   1.00
H163   H     0.38151   0.79521   0.08033   0.00000  Uiso   1.00
H164   H     0.56978   0.74910   0.91844   0.00000  Uiso   1.00
H165   H     0.72333   0.74553   0.09806   0.00000  Uiso   1.00
H166   H     0.19577   0.84970   0.13126   0.00000  Uiso   1.00
H167   H     0.59278   0.75246   0.78992   0.00000  Uiso   1.00
H168   H     0.91659   0.74494   0.16867   0.00000  Uiso   1.00
H169   H     0.66343   0.96069   0.00842   0.00000  Uiso   1.00
H170   H     0.48955   0.99789   0.05583   0.00000  Uiso   1.00
H171   H     0.67781   0.95177   0.89394   0.00000  Uiso   1.00
H172   H     0.83137   0.94820   0.07355   0.00000  Uiso   1.00
H173   H     0.28346   0.01420   0.11137   0.00000  Uiso   1.00
H174   H     0.68047   0.91696   0.77003   0.00000  Uiso   1.00
H175   H     0.00428   0.90944   0.14878   0.00000  Uiso   1.00
O176   O     0.12337   0.95296   0.15290   0.00000  Uiso   1.00
O177   O     0.64425   0.82538   0.70508   0.00000  Uiso   1.00
O178   O     0.06907   0.81551   0.20199   0.00000  Uiso   1.00
N179   N     0.24028   0.88331   0.12008   0.00000  Uiso   1.00
N180   N     0.61145   0.79240   0.80095   0.00000  Uiso   1.00
N181   N     0.91419   0.78536   0.15504   0.00000  Uiso   1.00
N182   N     0.28747   0.97183   0.10938   0.00000  Uiso   1.00
N183   N     0.65863   0.88092   0.79025   0.00000  Uiso   1.00
N184   N     0.96138   0.87388   0.14434   0.00000  Uiso   1.00
C185   C     0.08447   0.68743   0.97367   0.00000  Uiso   1.00
C186   C     0.00115   0.64630   0.95044   0.00000  Uiso   1.00
C187   C     0.90481   0.66103   0.92495   0.00000  Uiso   1.00
C188   C     0.83958   0.61716   0.90652   0.00000  Uiso   1.00
C189   C     0.70560   0.56190   0.86944   0.00000  Uiso   1.00
C190   C     0.10343   0.67135   0.03840   0.00000  Uiso   1.00
C191   C     0.09309   0.70715   0.08686   0.00000  Uiso   1.00
C192   C     0.11398   0.68437   0.14248   0.00000  Uiso   1.00
C193   C     0.13886   0.66802   0.24194   0.00000  Uiso   1.00
C194   C     0.18685   0.67329   0.94080   0.00000  Uiso   1.00
C195   C     0.24668   0.71072   0.90722   0.00000  Uiso   1.00
C196   C     0.33782   0.68958   0.88068   0.00000  Uiso   1.00
C197   C     0.49223   0.67623   0.82862   0.00000  Uiso   1.00
C198   C     0.13996   0.58333   0.98626   0.00000  Uiso   1.00
C199   C     0.03129   0.58976   0.95728   0.00000  Uiso   1.00
C200   C     0.96620   0.54586   0.93888   0.00000  Uiso   1.00
C201   C     0.86978   0.56052   0.91337   0.00000  Uiso   1.00
C202   C     0.13357   0.61482   0.04524   0.00000  Uiso   1.00
C203   C     0.15449   0.59198   0.10079   0.00000  Uiso   1.00
C204   C     0.14418   0.62773   0.14933   0.00000  Uiso   1.00
C205   C     0.21700   0.61675   0.94764   0.00000  Uiso   1.00
C206   C     0.30807   0.59555   0.92115   0.00000  Uiso   1.00
C207   C     0.36802   0.63294   0.88753   0.00000  Uiso   1.00
H208   H     0.06101   0.73144   0.96835   0.00000  Uiso   1.00
H209   H     0.88151   0.70479   0.91967   0.00000  Uiso   1.00
H210   H     0.06978   0.75090   0.08156   0.00000  Uiso   1.00
H211   H     0.22333   0.75447   0.90194   0.00000  Uiso   1.00
H212   H     0.69577   0.65030   0.86874   0.00000  Uiso   1.00
H213   H     0.09278   0.74754   0.21008   0.00000  Uiso   1.00
H214   H     0.41659   0.75506   0.83133   0.00000  Uiso   1.00
H215   H     0.16343   0.53931   0.99158   0.00000  Uiso   1.00
H216   H     0.98955   0.50211   0.94417   0.00000  Uiso   1.00
H217   H     0.17781   0.54823   0.10606   0.00000  Uiso   1.00
H218   H     0.33137   0.55180   0.92645   0.00000  Uiso   1.00
H219   H     0.78346   0.48580   0.88863   0.00000  Uiso   1.00
H220   H     0.18047   0.58304   0.22997   0.00000  Uiso   1.00
H221   H     0.50428   0.59056   0.85122   0.00000  Uiso   1.00
O222   O     0.62337   0.54704   0.84710   0.00000  Uiso   1.00
O223   O     0.14425   0.67462   0.29492   0.00000  Uiso   1.00
O224   O     0.56907   0.68449   0.79801   0.00000  Uiso   1.00
N225   N     0.74028   0.61669   0.87992   0.00000  Uiso   1.00
N226   N     0.11145   0.70760   0.19905   0.00000  Uiso   1.00
N227   N     0.41419   0.71464   0.84496   0.00000  Uiso   1.00
N228   N     0.78747   0.52817   0.89062   0.00000  Uiso   1.00
N229   N     0.15863   0.61908   0.20975   0.00000  Uiso   1.00
N230   N     0.46138   0.62612   0.85566   0.00000  Uiso   1.00
C231   C     0.58447   0.18743   0.97367   0.00000  Uiso   1.00
C232   C     0.50115   0.14630   0.95044   0.00000  Uiso   1.00
C233   C     0.40481   0.16103   0.92495   0.00000  Uiso   1.00
C234   C     0.33958   0.11716   0.90652   0.00000  Uiso   1.00
C235   C     0.20560   0.06190   0.86944   0.00000  Uiso   1.00
C236   C     0.60343   0.17135   0.03840   0.00000  Uiso   1.00
C237   C     0.59309   0.20715   0.08686   0.00000  Uiso   1.00
C238   C     0.61398   0.18437   0.14248   0.00000  Uiso   1.00
C239   C     0.63886   0.16802   0.24194   0.00000  Uiso   1.00
C240   C     0.68685   0.17329   0.94080   0.00000  Uiso   1.00
C241   C     0.74668   0.21072   0.90722   0.00000  Uiso   1.00
C242   C     0.83782   0.18958   0.88068   0.00000  Uiso   1.00
C243   C     0.99223   0.17623   0.82862   0.00000  Uiso   1.00
C244   C     0.63996   0.08333   0.98626   0.00000  Uiso   1.00
C245   C     0.53129   0.08976   0.95728   0.00000  Uiso   1.00
C246   C     0.46620   0.04586   0.93888   0.00000  Uiso   1.00
C247   C     0.36978   0.06052   0.91337   0.00000  Uiso   1.00
C248   C     0.63357   0.11482   0.04524   0.00000  Uiso   1.00
C249   C     0.65449   0.09198   0.10079   0.00000  Uiso   1.00
C250   C     0.64418   0.12773   0.14933   0.00000  Uiso   1.00
C251   C     0.71700   0.11675   0.94764   0.00000  Uiso   1.00
C252   C     0.80807   0.09555   0.92115   0.00000  Uiso   1.00
C253   C     0.86802   0.13294   0.88753   0.00000  Uiso   1.00
H254   H     0.56101   0.23144   0.96835   0.00000  Uiso   1.00
H255   H     0.38151   0.20479   0.91967   0.00000  Uiso   1.00
H256   H     0.56978   0.25090   0.08156   0.00000  Uiso   1.00
H257   H     0.72333   0.25447   0.90194   0.00000  Uiso   1.00
H258   H     0.19577   0.15030   0.86874   0.00000  Uiso   1.00
H259   H     0.59278   0.24754   0.21008   0.00000  Uiso   1.00
H260   H     0.91659   0.25506   0.83133   0.00000  Uiso   1.00
H261   H     0.66343   0.03931   0.99158   0.00000  Uiso   1.00
H262   H     0.48955   0.00211   0.94417   0.00000  Uiso   1.00
H263   H     0.67781   0.04823   0.10606   0.00000  Uiso   1.00
H264   H     0.83137   0.05180   0.92645   0.00000  Uiso   1.00
H265   H     0.28346   0.98580   0.88863   0.00000  Uiso   1.00
H266   H     0.68047   0.08304   0.22997   0.00000  Uiso   1.00
H267   H     0.00428   0.09056   0.85122   0.00000  Uiso   1.00
O268   O     0.12337   0.04704   0.84710   0.00000  Uiso   1.00
O269   O     0.64425   0.17462   0.29492   0.00000  Uiso   1.00
O270   O     0.06907   0.18449   0.79801   0.00000  Uiso   1.00
N271   N     0.24028   0.11669   0.87992   0.00000  Uiso   1.00
N272   N     0.61145   0.20760   0.19905   0.00000  Uiso   1.00
N273   N     0.91419   0.21464   0.84496   0.00000  Uiso   1.00
N274   N     0.28747   0.02817   0.89062   0.00000  Uiso   1.00
N275   N     0.65863   0.11908   0.20975   0.00000  Uiso   1.00
N276   N     0.96138   0.12612   0.85566   0.00000  Uiso   1.00
C277   C     0.91553   0.31257   0.47367   0.00000  Uiso   1.00
C278   C     0.99885   0.35370   0.45044   0.00000  Uiso   1.00
C279   C     0.09519   0.33897   0.42495   0.00000  Uiso   1.00
C280   C     0.16042   0.38284   0.40652   0.00000  Uiso   1.00
C281   C     0.29440   0.43810   0.36944   0.00000  Uiso   1.00
C282   C     0.89657   0.32865   0.53840   0.00000  Uiso   1.00
C283   C     0.90691   0.29285   0.58686   0.00000  Uiso   1.00
C284   C     0.88602   0.31563   0.64248   0.00000  Uiso   1.00
C285   C     0.86114   0.33198   0.74194   0.00000  Uiso   1.00
C286   C     0.81315   0.32671   0.44080   0.00000  Uiso   1.00
C287   C     0.75332   0.28928   0.40722   0.00000  Uiso   1.00
C288   C     0.66218   0.31042   0.38068   0.00000  Uiso   1.00
C289   C     0.50777   0.32377   0.32862   0.00000  Uiso   1.00
C290   C     0.86004   0.41667   0.48626   0.00000  Uiso   1.00
C291   C     0.96871   0.41024   0.45728   0.00000  Uiso   1.00
C292   C     0.03380   0.45414   0.43888   0.00000  Uiso   1.00
C293   C     0.13022   0.43948   0.41337   0.00000  Uiso   1.00
C294   C     0.86643   0.38518   0.54524   0.00000  Uiso   1.00
C295   C     0.84551   0.40802   0.60079   0.00000  Uiso   1.00
C296   C     0.85582   0.37227   0.64933   0.00000  Uiso   1.00
C297   C     0.78300   0.38325   0.44764   0.00000  Uiso   1.00
C298   C     0.69193   0.40445   0.42115   0.00000  Uiso   1.00
C299   C     0.63198   0.36706   0.38753   0.00000  Uiso   1.00
H300   H     0.93899   0.26856   0.46835   0.00000  Uiso   1.00
H301   H     0.11849   0.29521   0.41967   0.00000  Uiso   1.00
H302   H     0.93022   0.24910   0.58156   0.00000  Uiso   1.00
H303   H     0.77667   0.24553   0.40194   0.00000  Uiso   1.00
H304   H     0.30423   0.34970   0.36874   0.00000  Uiso   1.00
H305   H     0.90722   0.25246   0.71008   0.00000  Uiso   1.00
H306   H     0.58341   0.24494   0.33133   0.00000  Uiso   1.00
H307   H     0.83657   0.46069   0.49158   0.00000  Uiso   1.00
H308   H     0.01045   0.49789   0.44417   0.00000  Uiso   1.00
H309   H     0.82219   0.45177   0.60606   0.00000  Uiso   1.00
H310   H     0.66863   0.44820   0.42645   0.00000  Uiso   1.00
H311   H     0.21654   0.51420   0.38863   0.00000  Uiso   1.00
H312   H     0.81953   0.41696   0.72997   0.00000  Uiso   1.00
H313   H     0.49572   0.40944   0.35122   0.00000  Uiso   1.00
O314   O     0.37663   0.45296   0.34710   0.00000  Uiso   1.00
O315   O     0.85575   0.32538   0.79492   0.00000  Uiso   1.00
O316   O     0.43093   0.31551   0.29801   0.00000  Uiso   1.00
N317   N     0.25972   0.38331   0.37992   0.00000  Uiso   1.00
N318   N     0.88855   0.29240   0.69905   0.00000  Uiso   1.00
N319   N     0.58581   0.28536   0.34496   0.00000  Uiso   1.00
N320   N     0.21253   0.47183   0.39062   0.00000  Uiso   1.00
N321   N     0.84137   0.38092   0.70975   0.00000  Uiso   1.00
N322   N     0.53862   0.37388   0.35566   0.00000  Uiso   1.00
C323   C     0.41553   0.81257   0.47367   0.00000  Uiso   1.00
C324   C     0.49885   0.85370   0.45044   0.00000  Uiso   1.00
C325   C     0.59519   0.83897   0.42495   0.00000  Uiso   1.00
C326   C     0.66042   0.88284   0.40652   0.00000  Uiso   1.00
C327   C     0.79440   0.93810   0.36944   0.00000  Uiso   1.00
C328   C     0.39657   0.82865   0.53840   0.00000  Uiso   1.00
C329   C     0.40691   0.79285   0.58686   0.00000  Uiso   1.00
C330   C     0.38602   0.81563   0.64248   0.00000  Uiso   1.00
C331   C     0.36114   0.83198   0.74194   0.00000  Uiso   1.00
C332   C     0.31315   0.82671   0.44080   0.00000  Uiso   1.00
C333   C     0.25332   0.78928   0.40722   0.00000  Uiso   1.00
C334   C     0.16218   0.81042   0.38068   0.00000  Uiso   1.00
C335   C     0.00777   0.82377   0.32862   0.00000  Uiso   1.00
C336   C     0.36004   0.91667   0.48626   0.00000  Uiso   1.00
C337   C     0.46871   0.91024   0.45728   0.00000  Uiso   1.00
C338   C     0.53380   0.95414   0.43888   0.00000  Uiso   1.00
C339   C     0.63022   0.93948   0.41337   0.00000  Uiso   1.00
C340   C     0.36643   0.88518   0.54524   0.00000  Uiso   1.00
C341   C     0.34551   0.90802   0.60079   0.00000  Uiso   1.00
C342   C     0.35582   0.87227   0.64933   0.00000  Uiso   1.00
C343   C     0.28300   0.88325   0.44764   0.00000  Uiso   1.00
C344   C     0.19193   0.90445   0.42115   0.00000  Uiso   1.00
C345   C     0.13198   0.86706   0.38753   0.00000  Uiso   1.00
H346   H     0.43899   0.76856   0.46835   0.00000  Uiso   1.00
H347   H     0.61849   0.79521   0.41967   0.00000  Uiso   1.00
H348   H     0.43022   0.74910   0.58156   0.00000  Uiso   1.00
H349   H     0.27667   0.74553   0.40194   0.00000  Uiso   1.00
H350   H     0.80423   0.84970   0.36874   0.00000  Uiso   1.00
H351   H     0.40722   0.75246   0.71008   0.00000  Uiso   1.00
H352   H     0.08341   0.74494   0.33133   0.00000  Uiso   1.00
H353   H     0.33657   0.96069   0.49158   0.00000  Uiso   1.00
H354   H     0.51045   0.99789   0.44417   0.00000  Uiso   1.00
H355   H     0.32219   0.95177   0.60606   0.00000  Uiso   1.00
H356   H     0.16863   0.94820   0.42645   0.00000  Uiso   1.00
H357   H     0.71654   0.01420   0.38863   0.00000  Uiso   1.00
H358   H     0.31953   0.91696   0.72997   0.00000  Uiso   1.00
H359   H     0.99572   0.90944   0.35122   0.00000  Uiso   1.00
O360   O     0.87663   0.95296   0.34710   0.00000  Uiso   1.00
O361   O     0.35575   0.82538   0.79492   0.00000  Uiso   1.00
O362   O     0.93093   0.81551   0.29801   0.00000  Uiso   1.00
N363   N     0.75972   0.88331   0.37992   0.00000  Uiso   1.00
N364   N     0.38855   0.79240   0.69905   0.00000  Uiso   1.00
N365   N     0.08581   0.78536   0.34496   0.00000  Uiso   1.00
N366   N     0.71253   0.97183   0.39062   0.00000  Uiso   1.00
N367   N     0.34137   0.88092   0.70975   0.00000  Uiso   1.00
N368   N     0.03862   0.87388   0.35566   0.00000  Uiso   1.00
