data_job_00264
_audit_creation_date              2018-12-19
_audit_creation_method            'Materials Studio'
_symmetry_space_group_name_H-M    'P1'
_symmetry_Int_Tables_number       1
_symmetry_cell_setting            triclinic
loop_
_symmetry_equiv_pos_as_xyz
  x,y,z
_cell_length_a                    22.5863
_cell_length_b                    10.9000
_cell_length_c                    21.1832
_cell_angle_alpha                 90.0000
_cell_angle_beta                  71.5667
_cell_angle_gamma                 90.0000
loop_
_atom_site_label
_atom_site_type_symbol
_atom_site_fract_x
_atom_site_fract_y
_atom_site_fract_z
_atom_site_U_iso_or_equiv
_atom_site_adp_type
_atom_site_occupancy
C1     C     0.59635   0.45663   0.29626   0.00000  Uiso   1.00
C2     C     0.57459   0.58982   0.30276   0.00000  Uiso   1.00
C3     C     0.51485   0.63055   0.33708   0.00000  Uiso   1.00
C4     C     0.50430   0.75604   0.33713   0.00000  Uiso   1.00
C5     C     0.46328   0.95042   0.35223   0.00000  Uiso   1.00
C6     C     0.62252   0.43100   0.22181   0.00000  Uiso   1.00
C7     C     0.60307   0.33818   0.18806   0.00000  Uiso   1.00
C8     C     0.63287   0.32997   0.11996   0.00000  Uiso   1.00
C9     C     0.66628   0.27772   0.00939   0.00000  Uiso   1.00
C10    C     0.65190   0.45216   0.32246   0.00000  Uiso   1.00
C11    C     0.65718   0.37710   0.37334   0.00000  Uiso   1.00
C12    C     0.71173   0.38667   0.38998   0.00000  Uiso   1.00
C13    C     0.79077   0.36727   0.43568   0.00000  Uiso   1.00
C14    C     0.68385   0.60707   0.23534   0.00000  Uiso   1.00
C15    C     0.62212   0.67154   0.26967   0.00000  Uiso   1.00
C16    C     0.61166   0.79700   0.26967   0.00000  Uiso   1.00
C17    C     0.55192   0.83791   0.30398   0.00000  Uiso   1.00
C18    C     0.67004   0.51271   0.18872   0.00000  Uiso   1.00
C19    C     0.69988   0.50463   0.12066   0.00000  Uiso   1.00
C20    C     0.68049   0.41183   0.08681   0.00000  Uiso   1.00
C21    C     0.69943   0.53387   0.28937   0.00000  Uiso   1.00
C22    C     0.75399   0.54355   0.30593   0.00000  Uiso   1.00
C23    C     0.75934   0.46853   0.35683   0.00000  Uiso   1.00
H24    H     0.55935   0.39301   0.32202   0.00000  Uiso   1.00
H25    H     0.47808   0.56728   0.36267   0.00000  Uiso   1.00
H26    H     0.56629   0.27495   0.21368   0.00000  Uiso   1.00
H27    H     0.62039   0.31387   0.39893   0.00000  Uiso   1.00
H28    H     0.40893   0.79653   0.39313   0.00000  Uiso   1.00
H29    H     0.59495   0.18012   0.07897   0.00000  Uiso   1.00
H30    H     0.70902   0.26217   0.46961   0.00000  Uiso   1.00
H31    H     0.72086   0.67069   0.20958   0.00000  Uiso   1.00
H32    H     0.64845   0.86021   0.24406   0.00000  Uiso   1.00
H33    H     0.73666   0.56788   0.09507   0.00000  Uiso   1.00
H34    H     0.79076   0.60680   0.28032   0.00000  Uiso   1.00
H35    H     0.54721   0.03428   0.29686   0.00000  Uiso   1.00
H36    H     0.73323   0.41786   0.98270   0.00000  Uiso   1.00
H37    H     0.84730   0.49993   0.37334   0.00000  Uiso   1.00
O38    O     0.42752   0.03506   0.36969   0.00000  Uiso   1.00
O39    O     0.67158   0.22634   0.95753   0.00000  Uiso   1.00
O40    O     0.82123   0.33400   0.47004   0.00000  Uiso   1.00
N41    N     0.45142   0.82648   0.36575   0.00000  Uiso   1.00
N42    N     0.62532   0.25018   0.07203   0.00000  Uiso   1.00
N43    N     0.73198   0.32687   0.43723   0.00000  Uiso   1.00
N44    N     0.52583   0.95441   0.31395   0.00000  Uiso   1.00
N45    N     0.69973   0.37811   0.02023   0.00000  Uiso   1.00
N46    N     0.80639   0.45481   0.38543   0.00000  Uiso   1.00
C47    C     0.09635   0.95663   0.29626   0.00000  Uiso   1.00
C48    C     0.07459   0.08982   0.30276   0.00000  Uiso   1.00
C49    C     0.01485   0.13055   0.33708   0.00000  Uiso   1.00
C50    C     0.00430   0.25604   0.33713   0.00000  Uiso   1.00
C51    C     0.96328   0.45042   0.35223   0.00000  Uiso   1.00
C52    C     0.12252   0.93100   0.22181   0.00000  Uiso   1.00
C53    C     0.10307   0.83818   0.18806   0.00000  Uiso   1.00
C54    C     0.13287   0.82997   0.11996   0.00000  Uiso   1.00
C55    C     0.16628   0.77772   0.00939   0.00000  Uiso   1.00
C56    C     0.15190   0.95216   0.32246   0.00000  Uiso   1.00
C57    C     0.15718   0.87710   0.37334   0.00000  Uiso   1.00
C58    C     0.21173   0.88667   0.38998   0.00000  Uiso   1.00
C59    C     0.29077   0.86727   0.43568   0.00000  Uiso   1.00
C60    C     0.18385   0.10707   0.23534   0.00000  Uiso   1.00
C61    C     0.12212   0.17154   0.26967   0.00000  Uiso   1.00
C62    C     0.11166   0.29700   0.26967   0.00000  Uiso   1.00
C63    C     0.05192   0.33791   0.30398   0.00000  Uiso   1.00
C64    C     0.17004   0.01271   0.18872   0.00000  Uiso   1.00
C65    C     0.19988   0.00463   0.12066   0.00000  Uiso   1.00
C66    C     0.18049   0.91183   0.08681   0.00000  Uiso   1.00
C67    C     0.19943   0.03387   0.28937   0.00000  Uiso   1.00
C68    C     0.25399   0.04355   0.30593   0.00000  Uiso   1.00
C69    C     0.25934   0.96853   0.35683   0.00000  Uiso   1.00
H70    H     0.05935   0.89301   0.32202   0.00000  Uiso   1.00
H71    H     0.97808   0.06728   0.36267   0.00000  Uiso   1.00
H72    H     0.06629   0.77495   0.21368   0.00000  Uiso   1.00
H73    H     0.12039   0.81387   0.39893   0.00000  Uiso   1.00
H74    H     0.90893   0.29653   0.39313   0.00000  Uiso   1.00
H75    H     0.09495   0.68012   0.07897   0.00000  Uiso   1.00
H76    H     0.20902   0.76217   0.46961   0.00000  Uiso   1.00
H77    H     0.22086   0.17069   0.20958   0.00000  Uiso   1.00
H78    H     0.14845   0.36021   0.24406   0.00000  Uiso   1.00
H79    H     0.23666   0.06788   0.09507   0.00000  Uiso   1.00
H80    H     0.29076   0.10680   0.28032   0.00000  Uiso   1.00
H81    H     0.04721   0.53428   0.29686   0.00000  Uiso   1.00
H82    H     0.23323   0.91786   0.98270   0.00000  Uiso   1.00
H83    H     0.34730   0.99993   0.37334   0.00000  Uiso   1.00
O84    O     0.92752   0.53506   0.36969   0.00000  Uiso   1.00
O85    O     0.17158   0.72634   0.95753   0.00000  Uiso   1.00
O86    O     0.32123   0.83400   0.47004   0.00000  Uiso   1.00
N87    N     0.95142   0.32648   0.36575   0.00000  Uiso   1.00
N88    N     0.12532   0.75018   0.07203   0.00000  Uiso   1.00
N89    N     0.23198   0.82687   0.43723   0.00000  Uiso   1.00
N90    N     0.02583   0.45441   0.31395   0.00000  Uiso   1.00
N91    N     0.19973   0.87811   0.02023   0.00000  Uiso   1.00
N92    N     0.30639   0.95481   0.38543   0.00000  Uiso   1.00
C93    C     0.40365   0.45663   0.20374   0.00000  Uiso   1.00
C94    C     0.42541   0.58982   0.19724   0.00000  Uiso   1.00
C95    C     0.48515   0.63055   0.16292   0.00000  Uiso   1.00
C96    C     0.49570   0.75604   0.16287   0.00000  Uiso   1.00
C97    C     0.53672   0.95042   0.14777   0.00000  Uiso   1.00
C98    C     0.37748   0.43100   0.27819   0.00000  Uiso   1.00
C99    C     0.39693   0.33818   0.31194   0.00000  Uiso   1.00
C100   C     0.36713   0.32997   0.38004   0.00000  Uiso   1.00
C101   C     0.33372   0.27772   0.49061   0.00000  Uiso   1.00
C102   C     0.34810   0.45216   0.17754   0.00000  Uiso   1.00
C103   C     0.34282   0.37710   0.12666   0.00000  Uiso   1.00
C104   C     0.28827   0.38667   0.11002   0.00000  Uiso   1.00
C105   C     0.20923   0.36727   0.06432   0.00000  Uiso   1.00
C106   C     0.31615   0.60707   0.26466   0.00000  Uiso   1.00
C107   C     0.37788   0.67154   0.23033   0.00000  Uiso   1.00
C108   C     0.38834   0.79700   0.23033   0.00000  Uiso   1.00
C109   C     0.44808   0.83791   0.19602   0.00000  Uiso   1.00
C110   C     0.32996   0.51271   0.31128   0.00000  Uiso   1.00
C111   C     0.30012   0.50463   0.37934   0.00000  Uiso   1.00
C112   C     0.31951   0.41183   0.41319   0.00000  Uiso   1.00
C113   C     0.30057   0.53387   0.21063   0.00000  Uiso   1.00
C114   C     0.24601   0.54355   0.19407   0.00000  Uiso   1.00
C115   C     0.24066   0.46853   0.14317   0.00000  Uiso   1.00
H116   H     0.44065   0.39301   0.17798   0.00000  Uiso   1.00
H117   H     0.52192   0.56728   0.13733   0.00000  Uiso   1.00
H118   H     0.43371   0.27495   0.28632   0.00000  Uiso   1.00
H119   H     0.37961   0.31387   0.10107   0.00000  Uiso   1.00
H120   H     0.59107   0.79653   0.10687   0.00000  Uiso   1.00
H121   H     0.40505   0.18012   0.42103   0.00000  Uiso   1.00
H122   H     0.29098   0.26217   0.03039   0.00000  Uiso   1.00
H123   H     0.27914   0.67069   0.29042   0.00000  Uiso   1.00
H124   H     0.35155   0.86021   0.25594   0.00000  Uiso   1.00
H125   H     0.26334   0.56788   0.40493   0.00000  Uiso   1.00
H126   H     0.20924   0.60680   0.21968   0.00000  Uiso   1.00
H127   H     0.45279   0.03428   0.20314   0.00000  Uiso   1.00
H128   H     0.26677   0.41786   0.51730   0.00000  Uiso   1.00
H129   H     0.15270   0.49993   0.12666   0.00000  Uiso   1.00
O130   O     0.57248   0.03506   0.13031   0.00000  Uiso   1.00
O131   O     0.32842   0.22634   0.54247   0.00000  Uiso   1.00
O132   O     0.17877   0.33400   0.02996   0.00000  Uiso   1.00
N133   N     0.54858   0.82648   0.13425   0.00000  Uiso   1.00
N134   N     0.37468   0.25018   0.42797   0.00000  Uiso   1.00
N135   N     0.26802   0.32687   0.06277   0.00000  Uiso   1.00
N136   N     0.47417   0.95441   0.18605   0.00000  Uiso   1.00
N137   N     0.30027   0.37811   0.47977   0.00000  Uiso   1.00
N138   N     0.19361   0.45481   0.11457   0.00000  Uiso   1.00
C139   C     0.90365   0.95663   0.20374   0.00000  Uiso   1.00
C140   C     0.92541   0.08982   0.19724   0.00000  Uiso   1.00
C141   C     0.98515   0.13055   0.16292   0.00000  Uiso   1.00
C142   C     0.99570   0.25604   0.16287   0.00000  Uiso   1.00
C143   C     0.03672   0.45042   0.14777   0.00000  Uiso   1.00
C144   C     0.87748   0.93100   0.27819   0.00000  Uiso   1.00
C145   C     0.89693   0.83818   0.31194   0.00000  Uiso   1.00
C146   C     0.86713   0.82997   0.38004   0.00000  Uiso   1.00
C147   C     0.83372   0.77772   0.49061   0.00000  Uiso   1.00
C148   C     0.84810   0.95216   0.17754   0.00000  Uiso   1.00
C149   C     0.84282   0.87710   0.12666   0.00000  Uiso   1.00
C150   C     0.78827   0.88667   0.11002   0.00000  Uiso   1.00
C151   C     0.70923   0.86727   0.06432   0.00000  Uiso   1.00
C152   C     0.81615   0.10707   0.26466   0.00000  Uiso   1.00
C153   C     0.87788   0.17154   0.23033   0.00000  Uiso   1.00
C154   C     0.88834   0.29700   0.23033   0.00000  Uiso   1.00
C155   C     0.94808   0.33791   0.19602   0.00000  Uiso   1.00
C156   C     0.82996   0.01271   0.31128   0.00000  Uiso   1.00
C157   C     0.80012   0.00463   0.37934   0.00000  Uiso   1.00
C158   C     0.81951   0.91183   0.41319   0.00000  Uiso   1.00
C159   C     0.80057   0.03387   0.21063   0.00000  Uiso   1.00
C160   C     0.74601   0.04355   0.19407   0.00000  Uiso   1.00
C161   C     0.74066   0.96853   0.14317   0.00000  Uiso   1.00
H162   H     0.94065   0.89301   0.17798   0.00000  Uiso   1.00
H163   H     0.02192   0.06728   0.13733   0.00000  Uiso   1.00
H164   H     0.93371   0.77495   0.28632   0.00000  Uiso   1.00
H165   H     0.87961   0.81387   0.10107   0.00000  Uiso   1.00
H166   H     0.09107   0.29653   0.10687   0.00000  Uiso   1.00
H167   H     0.90505   0.68012   0.42103   0.00000  Uiso   1.00
H168   H     0.79098   0.76217   0.03039   0.00000  Uiso   1.00
H169   H     0.77914   0.17069   0.29042   0.00000  Uiso   1.00
H170   H     0.85155   0.36021   0.25594   0.00000  Uiso   1.00
H171   H     0.76334   0.06788   0.40493   0.00000  Uiso   1.00
H172   H     0.70924   0.10680   0.21968   0.00000  Uiso   1.00
H173   H     0.95279   0.53428   0.20314   0.00000  Uiso   1.00
H174   H     0.76677   0.91786   0.51730   0.00000  Uiso   1.00
H175   H     0.65270   0.99993   0.12666   0.00000  Uiso   1.00
O176   O     0.07248   0.53506   0.13031   0.00000  Uiso   1.00
O177   O     0.82842   0.72634   0.54247   0.00000  Uiso   1.00
O178   O     0.67877   0.83400   0.02996   0.00000  Uiso   1.00
N179   N     0.04858   0.32648   0.13425   0.00000  Uiso   1.00
N180   N     0.87468   0.75018   0.42797   0.00000  Uiso   1.00
N181   N     0.76802   0.82687   0.06277   0.00000  Uiso   1.00
N182   N     0.97417   0.45441   0.18605   0.00000  Uiso   1.00
N183   N     0.80027   0.87811   0.47977   0.00000  Uiso   1.00
N184   N     0.69361   0.95481   0.11457   0.00000  Uiso   1.00
C185   C     0.40365   0.54337   0.70374   0.00000  Uiso   1.00
C186   C     0.42541   0.41018   0.69724   0.00000  Uiso   1.00
C187   C     0.48515   0.36945   0.66292   0.00000  Uiso   1.00
C188   C     0.49570   0.24396   0.66287   0.00000  Uiso   1.00
C189   C     0.53672   0.04958   0.64777   0.00000  Uiso   1.00
C190   C     0.37748   0.56900   0.77819   0.00000  Uiso   1.00
C191   C     0.39693   0.66182   0.81194   0.00000  Uiso   1.00
C192   C     0.36713   0.67003   0.88004   0.00000  Uiso   1.00
C193   C     0.33372   0.72228   0.99061   0.00000  Uiso   1.00
C194   C     0.34810   0.54784   0.67754   0.00000  Uiso   1.00
C195   C     0.34282   0.62290   0.62666   0.00000  Uiso   1.00
C196   C     0.28827   0.61333   0.61002   0.00000  Uiso   1.00
C197   C     0.20923   0.63273   0.56432   0.00000  Uiso   1.00
C198   C     0.31615   0.39293   0.76466   0.00000  Uiso   1.00
C199   C     0.37788   0.32846   0.73033   0.00000  Uiso   1.00
C200   C     0.38834   0.20300   0.73033   0.00000  Uiso   1.00
C201   C     0.44808   0.16209   0.69602   0.00000  Uiso   1.00
C202   C     0.32996   0.48729   0.81128   0.00000  Uiso   1.00
C203   C     0.30012   0.49537   0.87934   0.00000  Uiso   1.00
C204   C     0.31951   0.58817   0.91319   0.00000  Uiso   1.00
C205   C     0.30057   0.46613   0.71063   0.00000  Uiso   1.00
C206   C     0.24601   0.45645   0.69407   0.00000  Uiso   1.00
C207   C     0.24066   0.53147   0.64317   0.00000  Uiso   1.00
H208   H     0.44065   0.60699   0.67798   0.00000  Uiso   1.00
H209   H     0.52192   0.43272   0.63733   0.00000  Uiso   1.00
H210   H     0.43371   0.72505   0.78632   0.00000  Uiso   1.00
H211   H     0.37961   0.68613   0.60107   0.00000  Uiso   1.00
H212   H     0.59107   0.20347   0.60687   0.00000  Uiso   1.00
H213   H     0.40505   0.81988   0.92103   0.00000  Uiso   1.00
H214   H     0.29098   0.73783   0.53039   0.00000  Uiso   1.00
H215   H     0.27914   0.32931   0.79042   0.00000  Uiso   1.00
H216   H     0.35155   0.13979   0.75594   0.00000  Uiso   1.00
H217   H     0.26334   0.43212   0.90493   0.00000  Uiso   1.00
H218   H     0.20924   0.39320   0.71968   0.00000  Uiso   1.00
H219   H     0.45279   0.96572   0.70314   0.00000  Uiso   1.00
H220   H     0.26677   0.58214   0.01730   0.00000  Uiso   1.00
H221   H     0.15270   0.50007   0.62666   0.00000  Uiso   1.00
O222   O     0.57248   0.96494   0.63031   0.00000  Uiso   1.00
O223   O     0.32842   0.77366   0.04247   0.00000  Uiso   1.00
O224   O     0.17877   0.66600   0.52996   0.00000  Uiso   1.00
N225   N     0.54858   0.17352   0.63425   0.00000  Uiso   1.00
N226   N     0.37468   0.74982   0.92797   0.00000  Uiso   1.00
N227   N     0.26802   0.67313   0.56277   0.00000  Uiso   1.00
N228   N     0.47417   0.04559   0.68605   0.00000  Uiso   1.00
N229   N     0.30027   0.62189   0.97977   0.00000  Uiso   1.00
N230   N     0.19361   0.54519   0.61457   0.00000  Uiso   1.00
C231   C     0.90365   0.04337   0.70374   0.00000  Uiso   1.00
C232   C     0.92541   0.91018   0.69724   0.00000  Uiso   1.00
C233   C     0.98515   0.86945   0.66292   0.00000  Uiso   1.00
C234   C     0.99570   0.74396   0.66287   0.00000  Uiso   1.00
C235   C     0.03672   0.54958   0.64777   0.00000  Uiso   1.00
C236   C     0.87748   0.06900   0.77819   0.00000  Uiso   1.00
C237   C     0.89693   0.16182   0.81194   0.00000  Uiso   1.00
C238   C     0.86713   0.17003   0.88004   0.00000  Uiso   1.00
C239   C     0.83372   0.22228   0.99061   0.00000  Uiso   1.00
C240   C     0.84810   0.04784   0.67754   0.00000  Uiso   1.00
C241   C     0.84282   0.12290   0.62666   0.00000  Uiso   1.00
C242   C     0.78827   0.11333   0.61002   0.00000  Uiso   1.00
C243   C     0.70923   0.13273   0.56432   0.00000  Uiso   1.00
C244   C     0.81615   0.89293   0.76466   0.00000  Uiso   1.00
C245   C     0.87788   0.82846   0.73033   0.00000  Uiso   1.00
C246   C     0.88834   0.70300   0.73033   0.00000  Uiso   1.00
C247   C     0.94808   0.66209   0.69602   0.00000  Uiso   1.00
C248   C     0.82996   0.98729   0.81128   0.00000  Uiso   1.00
C249   C     0.80012   0.99537   0.87934   0.00000  Uiso   1.00
C250   C     0.81951   0.08817   0.91319   0.00000  Uiso   1.00
C251   C     0.80057   0.96613   0.71063   0.00000  Uiso   1.00
C252   C     0.74601   0.95645   0.69407   0.00000  Uiso   1.00
C253   C     0.74066   0.03147   0.64317   0.00000  Uiso   1.00
H254   H     0.94065   0.10699   0.67798   0.00000  Uiso   1.00
H255   H     0.02192   0.93272   0.63733   0.00000  Uiso   1.00
H256   H     0.93371   0.22505   0.78632   0.00000  Uiso   1.00
H257   H     0.87961   0.18613   0.60107   0.00000  Uiso   1.00
H258   H     0.09107   0.70347   0.60687   0.00000  Uiso   1.00
H259   H     0.90505   0.31988   0.92103   0.00000  Uiso   1.00
H260   H     0.79098   0.23783   0.53039   0.00000  Uiso   1.00
H261   H     0.77914   0.82931   0.79042   0.00000  Uiso   1.00
H262   H     0.85155   0.63979   0.75594   0.00000  Uiso   1.00
H263   H     0.76334   0.93212   0.90493   0.00000  Uiso   1.00
H264   H     0.70924   0.89320   0.71968   0.00000  Uiso   1.00
H265   H     0.95279   0.46572   0.70314   0.00000  Uiso   1.00
H266   H     0.76677   0.08214   0.01730   0.00000  Uiso   1.00
H267   H     0.65270   0.00007   0.62666   0.00000  Uiso   1.00
O268   O     0.07248   0.46494   0.63031   0.00000  Uiso   1.00
O269   O     0.82842   0.27366   0.04247   0.00000  Uiso   1.00
O270   O     0.67877   0.16600   0.52996   0.00000  Uiso   1.00
N271   N     0.04858   0.67352   0.63425   0.00000  Uiso   1.00
N272   N     0.87468   0.24982   0.92797   0.00000  Uiso   1.00
N273   N     0.76802   0.17313   0.56277   0.00000  Uiso   1.00
N274   N     0.97417   0.54559   0.68605   0.00000  Uiso   1.00
N275   N     0.80027   0.12189   0.97977   0.00000  Uiso   1.00
N276   N     0.69361   0.04519   0.61457   0.00000  Uiso   1.00
C277   C     0.59635   0.54337   0.79626   0.00000  Uiso   1.00
C278   C     0.57459   0.41018   0.80276   0.00000  Uiso   1.00
C279   C     0.51485   0.36945   0.83708   0.00000  Uiso   1.00
C280   C     0.50430   0.24396   0.83713   0.00000  Uiso   1.00
C281   C     0.46328   0.04958   0.85223   0.00000  Uiso   1.00
C282   C     0.62252   0.56900   0.72181   0.00000  Uiso   1.00
C283   C     0.60307   0.66182   0.68806   0.00000  Uiso   1.00
C284   C     0.63287   0.67003   0.61996   0.00000  Uiso   1.00
C285   C     0.66628   0.72228   0.50939   0.00000  Uiso   1.00
C286   C     0.65190   0.54784   0.82246   0.00000  Uiso   1.00
C287   C     0.65718   0.62290   0.87334   0.00000  Uiso   1.00
C288   C     0.71173   0.61333   0.88998   0.00000  Uiso   1.00
C289   C     0.79077   0.63273   0.93568   0.00000  Uiso   1.00
C290   C     0.68385   0.39293   0.73534   0.00000  Uiso   1.00
C291   C     0.62212   0.32846   0.76967   0.00000  Uiso   1.00
C292   C     0.61166   0.20300   0.76967   0.00000  Uiso   1.00
C293   C     0.55192   0.16209   0.80398   0.00000  Uiso   1.00
C294   C     0.67004   0.48729   0.68872   0.00000  Uiso   1.00
C295   C     0.69988   0.49537   0.62066   0.00000  Uiso   1.00
C296   C     0.68049   0.58817   0.58681   0.00000  Uiso   1.00
C297   C     0.69943   0.46613   0.78937   0.00000  Uiso   1.00
C298   C     0.75399   0.45645   0.80593   0.00000  Uiso   1.00
C299   C     0.75934   0.53147   0.85683   0.00000  Uiso   1.00
H300   H     0.55935   0.60699   0.82202   0.00000  Uiso   1.00
H301   H     0.47808   0.43272   0.86267   0.00000  Uiso   1.00
H302   H     0.56629   0.72505   0.71368   0.00000  Uiso   1.00
H303   H     0.62039   0.68613   0.89893   0.00000  Uiso   1.00
H304   H     0.40893   0.20347   0.89313   0.00000  Uiso   1.00
H305   H     0.59495   0.81988   0.57897   0.00000  Uiso   1.00
H306   H     0.70902   0.73783   0.96961   0.00000  Uiso   1.00
H307   H     0.72086   0.32931   0.70958   0.00000  Uiso   1.00
H308   H     0.64845   0.13979   0.74406   0.00000  Uiso   1.00
H309   H     0.73666   0.43212   0.59507   0.00000  Uiso   1.00
H310   H     0.79076   0.39320   0.78032   0.00000  Uiso   1.00
H311   H     0.54721   0.96572   0.79686   0.00000  Uiso   1.00
H312   H     0.73323   0.58214   0.48270   0.00000  Uiso   1.00
H313   H     0.84730   0.50007   0.87334   0.00000  Uiso   1.00
O314   O     0.42752   0.96494   0.86969   0.00000  Uiso   1.00
O315   O     0.67158   0.77366   0.45753   0.00000  Uiso   1.00
O316   O     0.82123   0.66600   0.97004   0.00000  Uiso   1.00
N317   N     0.45142   0.17352   0.86575   0.00000  Uiso   1.00
N318   N     0.62532   0.74982   0.57203   0.00000  Uiso   1.00
N319   N     0.73198   0.67313   0.93723   0.00000  Uiso   1.00
N320   N     0.52583   0.04559   0.81395   0.00000  Uiso   1.00
N321   N     0.69973   0.62189   0.52023   0.00000  Uiso   1.00
N322   N     0.80639   0.54519   0.88543   0.00000  Uiso   1.00
C323   C     0.09635   0.04337   0.79626   0.00000  Uiso   1.00
C324   C     0.07459   0.91018   0.80276   0.00000  Uiso   1.00
C325   C     0.01485   0.86945   0.83708   0.00000  Uiso   1.00
C326   C     0.00430   0.74396   0.83713   0.00000  Uiso   1.00
C327   C     0.96328   0.54958   0.85223   0.00000  Uiso   1.00
C328   C     0.12252   0.06900   0.72181   0.00000  Uiso   1.00
C329   C     0.10307   0.16182   0.68806   0.00000  Uiso   1.00
C330   C     0.13287   0.17003   0.61996   0.00000  Uiso   1.00
C331   C     0.16628   0.22228   0.50939   0.00000  Uiso   1.00
C332   C     0.15190   0.04784   0.82246   0.00000  Uiso   1.00
C333   C     0.15718   0.12290   0.87334   0.00000  Uiso   1.00
C334   C     0.21173   0.11333   0.88998   0.00000  Uiso   1.00
C335   C     0.29077   0.13273   0.93568   0.00000  Uiso   1.00
C336   C     0.18385   0.89293   0.73534   0.00000  Uiso   1.00
C337   C     0.12212   0.82846   0.76967   0.00000  Uiso   1.00
C338   C     0.11166   0.70300   0.76967   0.00000  Uiso   1.00
C339   C     0.05192   0.66209   0.80398   0.00000  Uiso   1.00
C340   C     0.17004   0.98729   0.68872   0.00000  Uiso   1.00
C341   C     0.19988   0.99537   0.62066   0.00000  Uiso   1.00
C342   C     0.18049   0.08817   0.58681   0.00000  Uiso   1.00
C343   C     0.19943   0.96613   0.78937   0.00000  Uiso   1.00
C344   C     0.25399   0.95645   0.80593   0.00000  Uiso   1.00
C345   C     0.25934   0.03147   0.85683   0.00000  Uiso   1.00
H346   H     0.05935   0.10699   0.82202   0.00000  Uiso   1.00
H347   H     0.97808   0.93272   0.86267   0.00000  Uiso   1.00
H348   H     0.06629   0.22505   0.71368   0.00000  Uiso   1.00
H349   H     0.12039   0.18613   0.89893   0.00000  Uiso   1.00
H350   H     0.90893   0.70347   0.89313   0.00000  Uiso   1.00
H351   H     0.09495   0.31988   0.57897   0.00000  Uiso   1.00
H352   H     0.20902   0.23783   0.96961   0.00000  Uiso   1.00
H353   H     0.22086   0.82931   0.70958   0.00000  Uiso   1.00
H354   H     0.14845   0.63979   0.74406   0.00000  Uiso   1.00
H355   H     0.23666   0.93212   0.59507   0.00000  Uiso   1.00
H356   H     0.29076   0.89320   0.78032   0.00000  Uiso   1.00
H357   H     0.04721   0.46572   0.79686   0.00000  Uiso   1.00
H358   H     0.23323   0.08214   0.48270   0.00000  Uiso   1.00
H359   H     0.34730   0.00007   0.87334   0.00000  Uiso   1.00
O360   O     0.92752   0.46494   0.86969   0.00000  Uiso   1.00
O361   O     0.17158   0.27366   0.45753   0.00000  Uiso   1.00
O362   O     0.32123   0.16600   0.97004   0.00000  Uiso   1.00
N363   N     0.95142   0.67352   0.86575   0.00000  Uiso   1.00
N364   N     0.12532   0.24982   0.57203   0.00000  Uiso   1.00
N365   N     0.23198   0.17313   0.93723   0.00000  Uiso   1.00
N366   N     0.02583   0.54559   0.81395   0.00000  Uiso   1.00
N367   N     0.19973   0.12189   0.52023   0.00000  Uiso   1.00
N368   N     0.30639   0.04519   0.88543   0.00000  Uiso   1.00
