data_job_06216
_audit_creation_date              2018-12-19
_audit_creation_method            'Materials Studio'
_symmetry_space_group_name_H-M    'P1'
_symmetry_Int_Tables_number       1
_symmetry_cell_setting            triclinic
loop_
_symmetry_equiv_pos_as_xyz
  x,y,z
_cell_length_a                    11.5552
_cell_length_b                    21.7581
_cell_length_c                    21.7842
_cell_angle_alpha                 62.9950
_cell_angle_beta                  80.1838
_cell_angle_gamma                 99.7951
loop_
_atom_site_label
_atom_site_type_symbol
_atom_site_fract_x
_atom_site_fract_y
_atom_site_fract_z
_atom_site_U_iso_or_equiv
_atom_site_adp_type
_atom_site_occupancy
C1     C     0.64456   0.13215   0.60504   0.00000  Uiso   1.00
C2     C     0.71990   0.08339   0.64276   0.00000  Uiso   1.00
C3     C     0.76141   0.03610   0.62438   0.00000  Uiso   1.00
C4     C     0.82891   0.99622   0.66554   0.00000  Uiso   1.00
C5     C     0.94203   0.91938   0.71540   0.00000  Uiso   1.00
C6     C     0.52882   0.11377   0.66297   0.00000  Uiso   1.00
C7     C     0.40967   0.09203   0.66157   0.00000  Uiso   1.00
C8     C     0.31632   0.07773   0.71974   0.00000  Uiso   1.00
C9     C     0.13279   0.04810   0.80095   0.00000  Uiso   1.00
C10    C     0.71652   0.20839   0.58188   0.00000  Uiso   1.00
C11    C     0.75517   0.26622   0.51230   0.00000  Uiso   1.00
C12    C     0.81983   0.33159   0.50219   0.00000  Uiso   1.00
C13    C     0.92773   0.44888   0.45749   0.00000  Uiso   1.00
C14    C     0.69063   0.14543   0.71082   0.00000  Uiso   1.00
C15    C     0.74492   0.09060   0.70022   0.00000  Uiso   1.00
C16    C     0.81238   0.05078   0.74142   0.00000  Uiso   1.00
C17    C     0.85398   0.00344   0.72310   0.00000  Uiso   1.00
C18    C     0.55384   0.12098   0.72043   0.00000  Uiso   1.00
C19    C     0.46064   0.10671   0.77861   0.00000  Uiso   1.00
C20    C     0.34139   0.08495   0.77730   0.00000  Uiso   1.00
C21    C     0.74155   0.21560   0.63933   0.00000  Uiso   1.00
C22    C     0.80615   0.28090   0.62934   0.00000  Uiso   1.00
C23    C     0.84489   0.33881   0.55975   0.00000  Uiso   1.00
H24    H     0.62507   0.12654   0.56031   0.00000  Uiso   1.00
H25    H     0.74201   0.03053   0.57991   0.00000  Uiso   1.00
H26    H     0.39033   0.08646   0.61710   0.00000  Uiso   1.00
H27    H     0.73579   0.26062   0.46785   0.00000  Uiso   1.00
H28    H     0.88266   0.92724   0.62701   0.00000  Uiso   1.00
H29    H     0.14113   0.04520   0.70540   0.00000  Uiso   1.00
H30    H     0.86958   0.41245   0.39067   0.00000  Uiso   1.00
H31    H     0.71011   0.15104   0.75556   0.00000  Uiso   1.00
H32    H     0.83173   0.05637   0.78588   0.00000  Uiso   1.00
H33    H     0.48004   0.11230   0.82306   0.00000  Uiso   1.00
H34    H     0.82550   0.28646   0.67381   0.00000  Uiso   1.00
H35    H     0.95547   0.94822   0.79418   0.00000  Uiso   1.00
H36    H     0.21393   0.06617   0.87257   0.00000  Uiso   1.00
H37    H     0.94239   0.43342   0.55784   0.00000  Uiso   1.00
O38    O     0.99750   0.87499   0.72703   0.00000  Uiso   1.00
O39    O     0.02464   0.02976   0.82987   0.00000  Uiso   1.00
O40    O     0.98035   0.51158   0.41696   0.00000  Uiso   1.00
N41    N     0.88313   0.94518   0.66218   0.00000  Uiso   1.00
N42    N     0.18984   0.05545   0.73548   0.00000  Uiso   1.00
N43    N     0.87085   0.39880   0.44124   0.00000  Uiso   1.00
N44    N     0.92231   0.95647   0.75213   0.00000  Uiso   1.00
N45    N     0.22902   0.06673   0.82543   0.00000  Uiso   1.00
N46    N     0.91003   0.41009   0.53119   0.00000  Uiso   1.00
C47    C     0.51484   0.26345   0.13107   0.00000  Uiso   1.00
C48    C     0.63759   0.27397   0.08303   0.00000  Uiso   1.00
C49    C     0.72516   0.33929   0.03628   0.00000  Uiso   1.00
C50    C     0.83142   0.33757   0.99702   0.00000  Uiso   1.00
C51    C     0.01928   0.36376   0.92130   0.00000  Uiso   1.00
C52    C     0.41750   0.22420   0.11192   0.00000  Uiso   1.00
C53    C     0.32000   0.24767   0.08947   0.00000  Uiso   1.00
C54    C     0.24099   0.20403   0.07453   0.00000  Uiso   1.00
C55    C     0.08709   0.15293   0.04370   0.00000  Uiso   1.00
C56    C     0.51204   0.21047   0.20745   0.00000  Uiso   1.00
C57    C     0.49400   0.22239   0.26532   0.00000  Uiso   1.00
C58    C     0.49455   0.16719   0.33082   0.00000  Uiso   1.00
C59    C     0.48744   0.09477   0.44831   0.00000  Uiso   1.00
C60    C     0.54786   0.14422   0.14448   0.00000  Uiso   1.00
C61    C     0.65552   0.20921   0.09032   0.00000  Uiso   1.00
C62    C     0.76169   0.20738   0.05112   0.00000  Uiso   1.00
C63    C     0.84940   0.27269   0.00432   0.00000  Uiso   1.00
C64    C     0.43543   0.15944   0.11920   0.00000  Uiso   1.00
C65    C     0.35654   0.11575   0.10430   0.00000  Uiso   1.00
C66    C     0.25895   0.13915   0.08183   0.00000  Uiso   1.00
C67    C     0.52998   0.14571   0.21473   0.00000  Uiso   1.00
C68    C     0.53054   0.09048   0.28015   0.00000  Uiso   1.00
C69    C     0.51251   0.10231   0.33812   0.00000  Uiso   1.00
H70    H     0.50086   0.31387   0.12540   0.00000  Uiso   1.00
H71    H     0.71124   0.38940   0.03066   0.00000  Uiso   1.00
H72    H     0.30614   0.29778   0.08384   0.00000  Uiso   1.00
H73    H     0.48012   0.27251   0.25967   0.00000  Uiso   1.00
H74    H     0.95236   0.44459   0.92881   0.00000  Uiso   1.00
H75    H     0.09817   0.25140   0.04097   0.00000  Uiso   1.00
H76    H     0.46503   0.19811   0.41174   0.00000  Uiso   1.00
H77    H     0.56182   0.09379   0.15015   0.00000  Uiso   1.00
H78    H     0.77554   0.15726   0.05677   0.00000  Uiso   1.00
H79    H     0.37044   0.06564   0.10995   0.00000  Uiso   1.00
H80    H     0.54442   0.04037   0.28577   0.00000  Uiso   1.00
H81    H     0.00455   0.25617   0.95000   0.00000  Uiso   1.00
H82    H     0.15036   0.06298   0.06216   0.00000  Uiso   1.00
H83    H     0.51723   0.00969   0.43292   0.00000  Uiso   1.00
O84    O     0.11794   0.39610   0.87751   0.00000  Uiso   1.00
O85    O     0.99726   0.14263   0.02468   0.00000  Uiso   1.00
O86    O     0.47858   0.07272   0.51111   0.00000  Uiso   1.00
N87    N     0.93533   0.39153   0.94662   0.00000  Uiso   1.00
N88    N     0.13672   0.21092   0.05148   0.00000  Uiso   1.00
N89    N     0.47967   0.16109   0.39812   0.00000  Uiso   1.00
N90    N     0.96341   0.29015   0.95803   0.00000  Uiso   1.00
N91    N     0.16480   0.10953   0.06288   0.00000  Uiso   1.00
N92    N     0.50776   0.05970   0.40952   0.00000  Uiso   1.00
C93    C     0.24919   0.60571   0.26263   0.00000  Uiso   1.00
C94    C     0.36121   0.64286   0.27400   0.00000  Uiso   1.00
C95    C     0.38461   0.62429   0.33965   0.00000  Uiso   1.00
C96    C     0.49217   0.66492   0.33870   0.00000  Uiso   1.00
C97    C     0.65373   0.71394   0.36614   0.00000  Uiso   1.00
C98    C     0.19053   0.66430   0.22293   0.00000  Uiso   1.00
C99    C     0.07042   0.66375   0.24563   0.00000  Uiso   1.00
C100   C     0.03430   0.72241   0.20169   0.00000  Uiso   1.00
C101   C     0.93085   0.80469   0.14981   0.00000  Uiso   1.00
C102   C     0.29823   0.58203   0.20982   0.00000  Uiso   1.00
C103   C     0.26865   0.51231   0.22149   0.00000  Uiso   1.00
C104   C     0.32318   0.50172   0.16650   0.00000  Uiso   1.00
C105   C     0.38695   0.45627   0.09427   0.00000  Uiso   1.00
C106   C     0.39862   0.71086   0.14421   0.00000  Uiso   1.00
C107   C     0.44237   0.69997   0.20968   0.00000  Uiso   1.00
C108   C     0.54993   0.74063   0.20863   0.00000  Uiso   1.00
C109   C     0.57349   0.72213   0.27427   0.00000  Uiso   1.00
C110   C     0.27169   0.72141   0.15861   0.00000  Uiso   1.00
C111   C     0.23574   0.78009   0.11462   0.00000  Uiso   1.00
C112   C     0.11561   0.77963   0.13725   0.00000  Uiso   1.00
C113   C     0.37939   0.63914   0.14550   0.00000  Uiso   1.00
C114   C     0.43397   0.62866   0.09048   0.00000  Uiso   1.00
C115   C     0.40449   0.55894   0.10207   0.00000  Uiso   1.00
H116   H     0.18600   0.56124   0.31270   0.00000  Uiso   1.00
H117   H     0.32177   0.58009   0.38941   0.00000  Uiso   1.00
H118   H     0.00763   0.61954   0.29540   0.00000  Uiso   1.00
H119   H     0.20584   0.46813   0.27127   0.00000  Uiso   1.00
H120   H     0.50807   0.62620   0.44609   0.00000  Uiso   1.00
H121   H     0.84567   0.70936   0.24786   0.00000  Uiso   1.00
H122   H     0.26362   0.39008   0.19697   0.00000  Uiso   1.00
H123   H     0.46180   0.75533   0.09414   0.00000  Uiso   1.00
H124   H     0.61272   0.78483   0.15885   0.00000  Uiso   1.00
H125   H     0.29857   0.82428   0.06485   0.00000  Uiso   1.00
H126   H     0.49677   0.67287   0.04071   0.00000  Uiso   1.00
H127   H     0.74421   0.79237   0.25896   0.00000  Uiso   1.00
H128   H     0.08180   0.87553   0.06073   0.00000  Uiso   1.00
H129   H     0.49976   0.55626   0.00984   0.00000  Uiso   1.00
O130   O     0.72042   0.72521   0.39905   0.00000  Uiso   1.00
O131   O     0.85137   0.83430   0.13897   0.00000  Uiso   1.00
O132   O     0.39971   0.41542   0.07220   0.00000  Uiso   1.00
N133   N     0.54295   0.66125   0.39317   0.00000  Uiso   1.00
N134   N     0.92365   0.73900   0.20784   0.00000  Uiso   1.00
N135   N     0.31437   0.44051   0.16025   0.00000  Uiso   1.00
N136   N     0.67001   0.75067   0.29248   0.00000  Uiso   1.00
N137   N     0.05071   0.82842   0.10715   0.00000  Uiso   1.00
N138   N     0.44143   0.52993   0.05956   0.00000  Uiso   1.00
C139   C     0.35544   0.86784   0.39496   0.00000  Uiso   1.00
C140   C     0.28010   0.91661   0.35724   0.00000  Uiso   1.00
C141   C     0.23859   0.96390   0.37562   0.00000  Uiso   1.00
C142   C     0.17109   0.00378   0.33446   0.00000  Uiso   1.00
C143   C     0.05797   0.08062   0.28460   0.00000  Uiso   1.00
C144   C     0.47118   0.88623   0.33703   0.00000  Uiso   1.00
C145   C     0.59033   0.90797   0.33843   0.00000  Uiso   1.00
C146   C     0.68368   0.92227   0.28026   0.00000  Uiso   1.00
C147   C     0.86721   0.95190   0.19905   0.00000  Uiso   1.00
C148   C     0.28348   0.79161   0.41812   0.00000  Uiso   1.00
C149   C     0.24483   0.73378   0.48770   0.00000  Uiso   1.00
C150   C     0.18017   0.66841   0.49781   0.00000  Uiso   1.00
C151   C     0.07227   0.55112   0.54251   0.00000  Uiso   1.00
C152   C     0.30937   0.85457   0.28918   0.00000  Uiso   1.00
C153   C     0.25508   0.90940   0.29978   0.00000  Uiso   1.00
C154   C     0.18762   0.94922   0.25858   0.00000  Uiso   1.00
C155   C     0.14602   0.99656   0.27690   0.00000  Uiso   1.00
C156   C     0.44616   0.87902   0.27957   0.00000  Uiso   1.00
C157   C     0.53936   0.89329   0.22139   0.00000  Uiso   1.00
C158   C     0.65861   0.91505   0.22270   0.00000  Uiso   1.00
C159   C     0.25845   0.78440   0.36067   0.00000  Uiso   1.00
C160   C     0.19385   0.71910   0.37067   0.00000  Uiso   1.00
C161   C     0.15511   0.66119   0.44025   0.00000  Uiso   1.00
H162   H     0.37493   0.87346   0.43969   0.00000  Uiso   1.00
H163   H     0.25799   0.96947   0.42009   0.00000  Uiso   1.00
H164   H     0.60967   0.91354   0.38290   0.00000  Uiso   1.00
H165   H     0.26421   0.73938   0.53215   0.00000  Uiso   1.00
H166   H     0.11734   0.07276   0.37299   0.00000  Uiso   1.00
H167   H     0.85887   0.95480   0.29460   0.00000  Uiso   1.00
H168   H     0.13042   0.58755   0.60933   0.00000  Uiso   1.00
H169   H     0.28989   0.84896   0.24444   0.00000  Uiso   1.00
H170   H     0.16827   0.94363   0.21412   0.00000  Uiso   1.00
H171   H     0.51996   0.88770   0.17694   0.00000  Uiso   1.00
H172   H     0.17450   0.71354   0.32619   0.00000  Uiso   1.00
H173   H     0.04453   0.05178   0.20582   0.00000  Uiso   1.00
H174   H     0.78607   0.93383   0.12743   0.00000  Uiso   1.00
H175   H     0.05761   0.56658   0.44216   0.00000  Uiso   1.00
O176   O     0.00250   0.12501   0.27297   0.00000  Uiso   1.00
O177   O     0.97536   0.97024   0.17013   0.00000  Uiso   1.00
O178   O     0.01965   0.48842   0.58304   0.00000  Uiso   1.00
N179   N     0.11687   0.05482   0.33782   0.00000  Uiso   1.00
N180   N     0.81016   0.94455   0.26452   0.00000  Uiso   1.00
N181   N     0.12915   0.60120   0.55876   0.00000  Uiso   1.00
N182   N     0.07769   0.04353   0.24787   0.00000  Uiso   1.00
N183   N     0.77098   0.93326   0.17457   0.00000  Uiso   1.00
N184   N     0.08997   0.58991   0.46881   0.00000  Uiso   1.00
C185   C     0.48516   0.73655   0.86893   0.00000  Uiso   1.00
C186   C     0.36241   0.72603   0.91697   0.00000  Uiso   1.00
C187   C     0.27484   0.66071   0.96372   0.00000  Uiso   1.00
C188   C     0.16858   0.66243   0.00298   0.00000  Uiso   1.00
C189   C     0.98072   0.63624   0.07870   0.00000  Uiso   1.00
C190   C     0.58250   0.77580   0.88808   0.00000  Uiso   1.00
C191   C     0.68000   0.75233   0.91053   0.00000  Uiso   1.00
C192   C     0.75901   0.79597   0.92547   0.00000  Uiso   1.00
C193   C     0.91291   0.84707   0.95630   0.00000  Uiso   1.00
C194   C     0.48796   0.78953   0.79255   0.00000  Uiso   1.00
C195   C     0.50600   0.77761   0.73468   0.00000  Uiso   1.00
C196   C     0.50545   0.83281   0.66918   0.00000  Uiso   1.00
C197   C     0.51256   0.90522   0.55169   0.00000  Uiso   1.00
C198   C     0.45214   0.85578   0.85552   0.00000  Uiso   1.00
C199   C     0.34448   0.79079   0.90968   0.00000  Uiso   1.00
C200   C     0.23831   0.79262   0.94888   0.00000  Uiso   1.00
C201   C     0.15060   0.72731   0.99568   0.00000  Uiso   1.00
C202   C     0.56457   0.84056   0.88080   0.00000  Uiso   1.00
C203   C     0.64346   0.88425   0.89570   0.00000  Uiso   1.00
C204   C     0.74105   0.86084   0.91817   0.00000  Uiso   1.00
C205   C     0.47002   0.85429   0.78527   0.00000  Uiso   1.00
C206   C     0.46946   0.90952   0.71985   0.00000  Uiso   1.00
C207   C     0.48749   0.89769   0.66188   0.00000  Uiso   1.00
H208   H     0.49914   0.68613   0.87460   0.00000  Uiso   1.00
H209   H     0.28876   0.61060   0.96934   0.00000  Uiso   1.00
H210   H     0.69386   0.70222   0.91616   0.00000  Uiso   1.00
H211   H     0.51988   0.72749   0.74033   0.00000  Uiso   1.00
H212   H     0.04764   0.55541   0.07119   0.00000  Uiso   1.00
H213   H     0.90182   0.74860   0.95903   0.00000  Uiso   1.00
H214   H     0.53497   0.80189   0.58826   0.00000  Uiso   1.00
H215   H     0.43818   0.90620   0.84985   0.00000  Uiso   1.00
H216   H     0.22446   0.84274   0.94323   0.00000  Uiso   1.00
H217   H     0.62956   0.93436   0.89005   0.00000  Uiso   1.00
H218   H     0.45558   0.95963   0.71423   0.00000  Uiso   1.00
H219   H     0.99544   0.74383   0.05000   0.00000  Uiso   1.00
H220   H     0.84964   0.93702   0.93784   0.00000  Uiso   1.00
H221   H     0.48277   0.99031   0.56708   0.00000  Uiso   1.00
O222   O     0.88206   0.60390   0.12249   0.00000  Uiso   1.00
O223   O     0.00274   0.85737   0.97533   0.00000  Uiso   1.00
O224   O     0.52142   0.92728   0.48890   0.00000  Uiso   1.00
N225   N     0.06467   0.60846   0.05338   0.00000  Uiso   1.00
N226   N     0.86328   0.78908   0.94852   0.00000  Uiso   1.00
N227   N     0.52033   0.83891   0.60188   0.00000  Uiso   1.00
N228   N     0.03659   0.70985   0.04197   0.00000  Uiso   1.00
N229   N     0.83520   0.89047   0.93712   0.00000  Uiso   1.00
N230   N     0.49224   0.94030   0.59048   0.00000  Uiso   1.00
C231   C     0.75080   0.39429   0.73737   0.00000  Uiso   1.00
C232   C     0.63879   0.35714   0.72600   0.00000  Uiso   1.00
C233   C     0.61539   0.37571   0.66035   0.00000  Uiso   1.00
C234   C     0.50783   0.33508   0.66130   0.00000  Uiso   1.00
C235   C     0.34626   0.28606   0.63386   0.00000  Uiso   1.00
C236   C     0.80947   0.33570   0.77708   0.00000  Uiso   1.00
C237   C     0.92958   0.33625   0.75437   0.00000  Uiso   1.00
C238   C     0.96570   0.27759   0.79831   0.00000  Uiso   1.00
C239   C     0.06915   0.19531   0.85019   0.00000  Uiso   1.00
C240   C     0.70177   0.41797   0.79018   0.00000  Uiso   1.00
C241   C     0.73135   0.48769   0.77851   0.00000  Uiso   1.00
C242   C     0.67682   0.49828   0.83350   0.00000  Uiso   1.00
C243   C     0.61305   0.54373   0.90573   0.00000  Uiso   1.00
C244   C     0.60138   0.28914   0.85579   0.00000  Uiso   1.00
C245   C     0.55763   0.30002   0.79032   0.00000  Uiso   1.00
C246   C     0.45007   0.25936   0.79137   0.00000  Uiso   1.00
C247   C     0.42651   0.27787   0.72573   0.00000  Uiso   1.00
C248   C     0.72831   0.27859   0.84139   0.00000  Uiso   1.00
C249   C     0.76426   0.21991   0.88538   0.00000  Uiso   1.00
C250   C     0.88439   0.22037   0.86275   0.00000  Uiso   1.00
C251   C     0.62061   0.36085   0.85450   0.00000  Uiso   1.00
C252   C     0.56603   0.37134   0.90952   0.00000  Uiso   1.00
C253   C     0.59551   0.44106   0.89793   0.00000  Uiso   1.00
H254   H     0.81400   0.43876   0.68730   0.00000  Uiso   1.00
H255   H     0.67823   0.41991   0.61059   0.00000  Uiso   1.00
H256   H     0.99237   0.38046   0.70460   0.00000  Uiso   1.00
H257   H     0.79416   0.53187   0.72873   0.00000  Uiso   1.00
H258   H     0.49193   0.37380   0.55391   0.00000  Uiso   1.00
H259   H     0.15433   0.29064   0.75214   0.00000  Uiso   1.00
H260   H     0.73638   0.60992   0.80303   0.00000  Uiso   1.00
H261   H     0.53820   0.24467   0.90587   0.00000  Uiso   1.00
H262   H     0.38728   0.21517   0.84115   0.00000  Uiso   1.00
H263   H     0.70143   0.17572   0.93515   0.00000  Uiso   1.00
H264   H     0.50323   0.32713   0.95929   0.00000  Uiso   1.00
H265   H     0.25579   0.20763   0.74104   0.00000  Uiso   1.00
H266   H     0.91820   0.12447   0.93927   0.00000  Uiso   1.00
H267   H     0.50024   0.44374   0.99016   0.00000  Uiso   1.00
O268   O     0.27958   0.27479   0.60096   0.00000  Uiso   1.00
O269   O     0.14863   0.16570   0.86103   0.00000  Uiso   1.00
O270   O     0.60029   0.58458   0.92780   0.00000  Uiso   1.00
N271   N     0.45705   0.33875   0.60683   0.00000  Uiso   1.00
N272   N     0.07635   0.26100   0.79216   0.00000  Uiso   1.00
N273   N     0.68563   0.55949   0.83975   0.00000  Uiso   1.00
N274   N     0.32999   0.24933   0.70752   0.00000  Uiso   1.00
N275   N     0.94929   0.17158   0.89285   0.00000  Uiso   1.00
N276   N     0.55857   0.47007   0.94044   0.00000  Uiso   1.00
