data_job_00767
_audit_creation_date              2018-12-19
_audit_creation_method            'Materials Studio'
_symmetry_space_group_name_H-M    'P1'
_symmetry_Int_Tables_number       1
_symmetry_cell_setting            triclinic
loop_
_symmetry_equiv_pos_as_xyz
  x,y,z
_cell_length_a                    15.8267
_cell_length_b                    15.8267
_cell_length_c                    19.0147
_cell_angle_alpha                 90.0000
_cell_angle_beta                  90.0000
_cell_angle_gamma                 90.0000
loop_
_atom_site_label
_atom_site_type_symbol
_atom_site_fract_x
_atom_site_fract_y
_atom_site_fract_z
_atom_site_U_iso_or_equiv
_atom_site_adp_type
_atom_site_occupancy
C1     C     0.85823   0.97266   0.24717   0.00000  Uiso   1.00
C2     C     0.91009   0.89305   0.26052   0.00000  Uiso   1.00
C3     C     0.98919   0.89020   0.29192   0.00000  Uiso   1.00
C4     C     0.02620   0.81117   0.29937   0.00000  Uiso   1.00
C5     C     0.11294   0.69874   0.32359   0.00000  Uiso   1.00
C6     C     0.83983   0.97382   0.16845   0.00000  Uiso   1.00
C7     C     0.85985   0.03890   0.12245   0.00000  Uiso   1.00
C8     C     0.83771   0.02786   0.05240   0.00000  Uiso   1.00
C9     C     0.81531   0.04087   0.93369   0.00000  Uiso   1.00
C10    C     0.77342   0.95838   0.28332   0.00000  Uiso   1.00
C11    C     0.73759   0.01048   0.33389   0.00000  Uiso   1.00
C12    C     0.65952   0.98646   0.36053   0.00000  Uiso   1.00
C13    C     0.53401   0.97549   0.42018   0.00000  Uiso   1.00
C14    C     0.78329   0.83737   0.20455   0.00000  Uiso   1.00
C15    C     0.86938   0.81957   0.23737   0.00000  Uiso   1.00
C16    C     0.90628   0.74052   0.24477   0.00000  Uiso   1.00
C17    C     0.98543   0.73755   0.27618   0.00000  Uiso   1.00
C18    C     0.79913   0.90035   0.14530   0.00000  Uiso   1.00
C19    C     0.77694   0.88922   0.07530   0.00000  Uiso   1.00
C20    C     0.79693   0.95425   0.02920   0.00000  Uiso   1.00
C21    C     0.73272   0.88490   0.26018   0.00000  Uiso   1.00
C22    C     0.65468   0.86080   0.28674   0.00000  Uiso   1.00
C23    C     0.61874   0.91285   0.33734   0.00000  Uiso   1.00
H24    H     0.88992   0.02986   0.26519   0.00000  Uiso   1.00
H25    H     0.02067   0.94708   0.30982   0.00000  Uiso   1.00
H26    H     0.89134   0.09576   0.14038   0.00000  Uiso   1.00
H27    H     0.76910   0.06734   0.35179   0.00000  Uiso   1.00
H28    H     0.14770   0.82290   0.34908   0.00000  Uiso   1.00
H29    H     0.87498   0.13640   0.99181   0.00000  Uiso   1.00
H30    H     0.61721   0.07648   0.43760   0.00000  Uiso   1.00
H31    H     0.75160   0.78016   0.18653   0.00000  Uiso   1.00
H32    H     0.87477   0.68367   0.22685   0.00000  Uiso   1.00
H33    H     0.74544   0.83235   0.05741   0.00000  Uiso   1.00
H34    H     0.62320   0.80393   0.26882   0.00000  Uiso   1.00
H35    H     0.02929   0.60910   0.28174   0.00000  Uiso   1.00
H36    H     0.75656   0.92261   0.92446   0.00000  Uiso   1.00
H37    H     0.49879   0.86269   0.37026   0.00000  Uiso   1.00
O38    O     0.17203   0.65703   0.34333   0.00000  Uiso   1.00
O39    O     0.81421   0.06835   0.87461   0.00000  Uiso   1.00
O40    O     0.47603   0.98973   0.45948   0.00000  Uiso   1.00
N41    N     0.10292   0.78582   0.32771   0.00000  Uiso   1.00
N42    N     0.84796   0.07892   0.99368   0.00000  Uiso   1.00
N43    N     0.60695   0.02292   0.41044   0.00000  Uiso   1.00
N44    N     0.03920   0.67078   0.29147   0.00000  Uiso   1.00
N45    N     0.78424   0.96388   0.95744   0.00000  Uiso   1.00
N46    N     0.54323   0.90788   0.37421   0.00000  Uiso   1.00
C47    C     0.14177   0.02734   0.74717   0.00000  Uiso   1.00
C48    C     0.08991   0.10695   0.76052   0.00000  Uiso   1.00
C49    C     0.01081   0.10980   0.79192   0.00000  Uiso   1.00
C50    C     0.97380   0.18883   0.79937   0.00000  Uiso   1.00
C51    C     0.88706   0.30126   0.82359   0.00000  Uiso   1.00
C52    C     0.16017   0.02618   0.66845   0.00000  Uiso   1.00
C53    C     0.14015   0.96110   0.62245   0.00000  Uiso   1.00
C54    C     0.16229   0.97214   0.55240   0.00000  Uiso   1.00
C55    C     0.18469   0.95913   0.43369   0.00000  Uiso   1.00
C56    C     0.22658   0.04162   0.78332   0.00000  Uiso   1.00
C57    C     0.26241   0.98952   0.83389   0.00000  Uiso   1.00
C58    C     0.34048   0.01354   0.86053   0.00000  Uiso   1.00
C59    C     0.46599   0.02451   0.92018   0.00000  Uiso   1.00
C60    C     0.21671   0.16263   0.70455   0.00000  Uiso   1.00
C61    C     0.13062   0.18043   0.73737   0.00000  Uiso   1.00
C62    C     0.09372   0.25948   0.74477   0.00000  Uiso   1.00
C63    C     0.01457   0.26245   0.77618   0.00000  Uiso   1.00
C64    C     0.20087   0.09965   0.64530   0.00000  Uiso   1.00
C65    C     0.22306   0.11078   0.57530   0.00000  Uiso   1.00
C66    C     0.20307   0.04575   0.52920   0.00000  Uiso   1.00
C67    C     0.26728   0.11510   0.76018   0.00000  Uiso   1.00
C68    C     0.34532   0.13920   0.78674   0.00000  Uiso   1.00
C69    C     0.38126   0.08715   0.83734   0.00000  Uiso   1.00
H70    H     0.11008   0.97014   0.76519   0.00000  Uiso   1.00
H71    H     0.97933   0.05292   0.80982   0.00000  Uiso   1.00
H72    H     0.10866   0.90424   0.64038   0.00000  Uiso   1.00
H73    H     0.23090   0.93266   0.85179   0.00000  Uiso   1.00
H74    H     0.85230   0.17710   0.84908   0.00000  Uiso   1.00
H75    H     0.12502   0.86360   0.49181   0.00000  Uiso   1.00
H76    H     0.38279   0.92352   0.93760   0.00000  Uiso   1.00
H77    H     0.24840   0.21984   0.68653   0.00000  Uiso   1.00
H78    H     0.12523   0.31633   0.72685   0.00000  Uiso   1.00
H79    H     0.25456   0.16765   0.55741   0.00000  Uiso   1.00
H80    H     0.37680   0.19607   0.76882   0.00000  Uiso   1.00
H81    H     0.97071   0.39090   0.78174   0.00000  Uiso   1.00
H82    H     0.24344   0.07739   0.42446   0.00000  Uiso   1.00
H83    H     0.50121   0.13731   0.87026   0.00000  Uiso   1.00
O84    O     0.82797   0.34297   0.84333   0.00000  Uiso   1.00
O85    O     0.18579   0.93165   0.37461   0.00000  Uiso   1.00
O86    O     0.52397   0.01027   0.95948   0.00000  Uiso   1.00
N87    N     0.89708   0.21418   0.82771   0.00000  Uiso   1.00
N88    N     0.15204   0.92108   0.49368   0.00000  Uiso   1.00
N89    N     0.39305   0.97708   0.91044   0.00000  Uiso   1.00
N90    N     0.96080   0.32922   0.79147   0.00000  Uiso   1.00
N91    N     0.21576   0.03612   0.45744   0.00000  Uiso   1.00
N92    N     0.45677   0.09212   0.87421   0.00000  Uiso   1.00
C93    C     0.52734   0.35823   0.99717   0.00000  Uiso   1.00
C94    C     0.60695   0.41009   0.01052   0.00000  Uiso   1.00
C95    C     0.60980   0.48919   0.04192   0.00000  Uiso   1.00
C96    C     0.68883   0.52620   0.04937   0.00000  Uiso   1.00
C97    C     0.80126   0.61294   0.07359   0.00000  Uiso   1.00
C98    C     0.52618   0.33983   0.91845   0.00000  Uiso   1.00
C99    C     0.46110   0.35985   0.87245   0.00000  Uiso   1.00
C100   C     0.47214   0.33771   0.80240   0.00000  Uiso   1.00
C101   C     0.45913   0.31531   0.68369   0.00000  Uiso   1.00
C102   C     0.54162   0.27342   0.03332   0.00000  Uiso   1.00
C103   C     0.48952   0.23759   0.08389   0.00000  Uiso   1.00
C104   C     0.51354   0.15952   0.11053   0.00000  Uiso   1.00
C105   C     0.52451   0.03401   0.17018   0.00000  Uiso   1.00
C106   C     0.66263   0.28329   0.95455   0.00000  Uiso   1.00
C107   C     0.68043   0.36938   0.98737   0.00000  Uiso   1.00
C108   C     0.75948   0.40628   0.99477   0.00000  Uiso   1.00
C109   C     0.76245   0.48543   0.02618   0.00000  Uiso   1.00
C110   C     0.59965   0.29913   0.89530   0.00000  Uiso   1.00
C111   C     0.61078   0.27694   0.82530   0.00000  Uiso   1.00
C112   C     0.54575   0.29693   0.77920   0.00000  Uiso   1.00
C113   C     0.61510   0.23272   0.01018   0.00000  Uiso   1.00
C114   C     0.63920   0.15468   0.03674   0.00000  Uiso   1.00
C115   C     0.58715   0.11874   0.08734   0.00000  Uiso   1.00
H116   H     0.47014   0.38992   0.01519   0.00000  Uiso   1.00
H117   H     0.55292   0.52067   0.05982   0.00000  Uiso   1.00
H118   H     0.40424   0.39134   0.89038   0.00000  Uiso   1.00
H119   H     0.43266   0.26910   0.10179   0.00000  Uiso   1.00
H120   H     0.67710   0.64770   0.09908   0.00000  Uiso   1.00
H121   H     0.36360   0.37498   0.74181   0.00000  Uiso   1.00
H122   H     0.42352   0.11721   0.18760   0.00000  Uiso   1.00
H123   H     0.71984   0.25160   0.93653   0.00000  Uiso   1.00
H124   H     0.81633   0.37477   0.97685   0.00000  Uiso   1.00
H125   H     0.66765   0.24544   0.80741   0.00000  Uiso   1.00
H126   H     0.69607   0.12320   0.01882   0.00000  Uiso   1.00
H127   H     0.89090   0.52929   0.03174   0.00000  Uiso   1.00
H128   H     0.57739   0.25656   0.67446   0.00000  Uiso   1.00
H129   H     0.63731   0.99879   0.12026   0.00000  Uiso   1.00
O130   O     0.84297   0.67203   0.09333   0.00000  Uiso   1.00
O131   O     0.43165   0.31421   0.62461   0.00000  Uiso   1.00
O132   O     0.51027   0.97603   0.20948   0.00000  Uiso   1.00
N133   N     0.71418   0.60292   0.07771   0.00000  Uiso   1.00
N134   N     0.42108   0.34796   0.74368   0.00000  Uiso   1.00
N135   N     0.47708   0.10695   0.16044   0.00000  Uiso   1.00
N136   N     0.82922   0.53920   0.04147   0.00000  Uiso   1.00
N137   N     0.53612   0.28424   0.70744   0.00000  Uiso   1.00
N138   N     0.59212   0.04323   0.12421   0.00000  Uiso   1.00
C139   C     0.47266   0.64177   0.49717   0.00000  Uiso   1.00
C140   C     0.39305   0.58991   0.51052   0.00000  Uiso   1.00
C141   C     0.39020   0.51081   0.54192   0.00000  Uiso   1.00
C142   C     0.31117   0.47380   0.54937   0.00000  Uiso   1.00
C143   C     0.19874   0.38706   0.57359   0.00000  Uiso   1.00
C144   C     0.47382   0.66017   0.41845   0.00000  Uiso   1.00
C145   C     0.53890   0.64015   0.37245   0.00000  Uiso   1.00
C146   C     0.52786   0.66229   0.30240   0.00000  Uiso   1.00
C147   C     0.54087   0.68469   0.18369   0.00000  Uiso   1.00
C148   C     0.45838   0.72658   0.53332   0.00000  Uiso   1.00
C149   C     0.51048   0.76241   0.58389   0.00000  Uiso   1.00
C150   C     0.48646   0.84048   0.61053   0.00000  Uiso   1.00
C151   C     0.47549   0.96599   0.67018   0.00000  Uiso   1.00
C152   C     0.33737   0.71671   0.45455   0.00000  Uiso   1.00
C153   C     0.31957   0.63062   0.48737   0.00000  Uiso   1.00
C154   C     0.24052   0.59372   0.49477   0.00000  Uiso   1.00
C155   C     0.23755   0.51457   0.52618   0.00000  Uiso   1.00
C156   C     0.40035   0.70087   0.39530   0.00000  Uiso   1.00
C157   C     0.38922   0.72306   0.32530   0.00000  Uiso   1.00
C158   C     0.45425   0.70307   0.27920   0.00000  Uiso   1.00
C159   C     0.38490   0.76728   0.51018   0.00000  Uiso   1.00
C160   C     0.36080   0.84532   0.53674   0.00000  Uiso   1.00
C161   C     0.41285   0.88126   0.58734   0.00000  Uiso   1.00
H162   H     0.52986   0.61008   0.51519   0.00000  Uiso   1.00
H163   H     0.44708   0.47933   0.55982   0.00000  Uiso   1.00
H164   H     0.59576   0.60866   0.39038   0.00000  Uiso   1.00
H165   H     0.56734   0.73090   0.60179   0.00000  Uiso   1.00
H166   H     0.32290   0.35230   0.59908   0.00000  Uiso   1.00
H167   H     0.63640   0.62502   0.24181   0.00000  Uiso   1.00
H168   H     0.57648   0.88279   0.68760   0.00000  Uiso   1.00
H169   H     0.28016   0.74840   0.43653   0.00000  Uiso   1.00
H170   H     0.18367   0.62523   0.47685   0.00000  Uiso   1.00
H171   H     0.33235   0.75456   0.30741   0.00000  Uiso   1.00
H172   H     0.30393   0.87680   0.51882   0.00000  Uiso   1.00
H173   H     0.10910   0.47071   0.53174   0.00000  Uiso   1.00
H174   H     0.42261   0.74344   0.17446   0.00000  Uiso   1.00
H175   H     0.36269   0.00121   0.62026   0.00000  Uiso   1.00
O176   O     0.15703   0.32797   0.59333   0.00000  Uiso   1.00
O177   O     0.56835   0.68579   0.12461   0.00000  Uiso   1.00
O178   O     0.48973   0.02397   0.70948   0.00000  Uiso   1.00
N179   N     0.28582   0.39708   0.57771   0.00000  Uiso   1.00
N180   N     0.57892   0.65204   0.24368   0.00000  Uiso   1.00
N181   N     0.52292   0.89305   0.66044   0.00000  Uiso   1.00
N182   N     0.17078   0.46080   0.54147   0.00000  Uiso   1.00
N183   N     0.46388   0.71576   0.20744   0.00000  Uiso   1.00
N184   N     0.40788   0.95677   0.62421   0.00000  Uiso   1.00
C185   C     0.64177   0.47266   0.50283   0.00000  Uiso   1.00
C186   C     0.58991   0.39305   0.48948   0.00000  Uiso   1.00
C187   C     0.51081   0.39020   0.45808   0.00000  Uiso   1.00
C188   C     0.47380   0.31117   0.45063   0.00000  Uiso   1.00
C189   C     0.38706   0.19874   0.42641   0.00000  Uiso   1.00
C190   C     0.66017   0.47382   0.58155   0.00000  Uiso   1.00
C191   C     0.64015   0.53890   0.62755   0.00000  Uiso   1.00
C192   C     0.66229   0.52786   0.69760   0.00000  Uiso   1.00
C193   C     0.68469   0.54087   0.81631   0.00000  Uiso   1.00
C194   C     0.72658   0.45838   0.46668   0.00000  Uiso   1.00
C195   C     0.76241   0.51048   0.41611   0.00000  Uiso   1.00
C196   C     0.84048   0.48646   0.38947   0.00000  Uiso   1.00
C197   C     0.96599   0.47549   0.32982   0.00000  Uiso   1.00
C198   C     0.71671   0.33737   0.54545   0.00000  Uiso   1.00
C199   C     0.63062   0.31957   0.51263   0.00000  Uiso   1.00
C200   C     0.59372   0.24052   0.50523   0.00000  Uiso   1.00
C201   C     0.51457   0.23755   0.47382   0.00000  Uiso   1.00
C202   C     0.70087   0.40035   0.60470   0.00000  Uiso   1.00
C203   C     0.72306   0.38922   0.67470   0.00000  Uiso   1.00
C204   C     0.70307   0.45425   0.72080   0.00000  Uiso   1.00
C205   C     0.76728   0.38490   0.48982   0.00000  Uiso   1.00
C206   C     0.84532   0.36080   0.46326   0.00000  Uiso   1.00
C207   C     0.88126   0.41285   0.41266   0.00000  Uiso   1.00
H208   H     0.61008   0.52986   0.48481   0.00000  Uiso   1.00
H209   H     0.47933   0.44708   0.44018   0.00000  Uiso   1.00
H210   H     0.60866   0.59576   0.60962   0.00000  Uiso   1.00
H211   H     0.73090   0.56734   0.39821   0.00000  Uiso   1.00
H212   H     0.35230   0.32290   0.40092   0.00000  Uiso   1.00
H213   H     0.62502   0.63640   0.75819   0.00000  Uiso   1.00
H214   H     0.88279   0.57648   0.31240   0.00000  Uiso   1.00
H215   H     0.74840   0.28016   0.56347   0.00000  Uiso   1.00
H216   H     0.62523   0.18367   0.52315   0.00000  Uiso   1.00
H217   H     0.75456   0.33235   0.69259   0.00000  Uiso   1.00
H218   H     0.87680   0.30393   0.48118   0.00000  Uiso   1.00
H219   H     0.47071   0.10910   0.46826   0.00000  Uiso   1.00
H220   H     0.74344   0.42261   0.82554   0.00000  Uiso   1.00
H221   H     0.00121   0.36269   0.37974   0.00000  Uiso   1.00
O222   O     0.32797   0.15703   0.40667   0.00000  Uiso   1.00
O223   O     0.68579   0.56835   0.87539   0.00000  Uiso   1.00
O224   O     0.02397   0.48973   0.29052   0.00000  Uiso   1.00
N225   N     0.39708   0.28582   0.42229   0.00000  Uiso   1.00
N226   N     0.65204   0.57892   0.75632   0.00000  Uiso   1.00
N227   N     0.89305   0.52292   0.33956   0.00000  Uiso   1.00
N228   N     0.46080   0.17078   0.45853   0.00000  Uiso   1.00
N229   N     0.71576   0.46388   0.79256   0.00000  Uiso   1.00
N230   N     0.95677   0.40788   0.37579   0.00000  Uiso   1.00
C231   C     0.35823   0.52734   0.00283   0.00000  Uiso   1.00
C232   C     0.41009   0.60695   0.98948   0.00000  Uiso   1.00
C233   C     0.48919   0.60980   0.95808   0.00000  Uiso   1.00
C234   C     0.52620   0.68883   0.95063   0.00000  Uiso   1.00
C235   C     0.61294   0.80126   0.92641   0.00000  Uiso   1.00
C236   C     0.33983   0.52618   0.08155   0.00000  Uiso   1.00
C237   C     0.35985   0.46110   0.12755   0.00000  Uiso   1.00
C238   C     0.33771   0.47214   0.19760   0.00000  Uiso   1.00
C239   C     0.31531   0.45913   0.31631   0.00000  Uiso   1.00
C240   C     0.27342   0.54162   0.96668   0.00000  Uiso   1.00
C241   C     0.23759   0.48952   0.91611   0.00000  Uiso   1.00
C242   C     0.15952   0.51354   0.88947   0.00000  Uiso   1.00
C243   C     0.03401   0.52451   0.82982   0.00000  Uiso   1.00
C244   C     0.28329   0.66263   0.04545   0.00000  Uiso   1.00
C245   C     0.36938   0.68043   0.01263   0.00000  Uiso   1.00
C246   C     0.40628   0.75948   0.00523   0.00000  Uiso   1.00
C247   C     0.48543   0.76245   0.97382   0.00000  Uiso   1.00
C248   C     0.29913   0.59965   0.10470   0.00000  Uiso   1.00
C249   C     0.27694   0.61078   0.17470   0.00000  Uiso   1.00
C250   C     0.29693   0.54575   0.22080   0.00000  Uiso   1.00
C251   C     0.23272   0.61510   0.98982   0.00000  Uiso   1.00
C252   C     0.15468   0.63920   0.96326   0.00000  Uiso   1.00
C253   C     0.11874   0.58715   0.91266   0.00000  Uiso   1.00
H254   H     0.38992   0.47014   0.98481   0.00000  Uiso   1.00
H255   H     0.52067   0.55292   0.94018   0.00000  Uiso   1.00
H256   H     0.39134   0.40424   0.10962   0.00000  Uiso   1.00
H257   H     0.26910   0.43266   0.89821   0.00000  Uiso   1.00
H258   H     0.64770   0.67710   0.90092   0.00000  Uiso   1.00
H259   H     0.37498   0.36360   0.25819   0.00000  Uiso   1.00
H260   H     0.11721   0.42352   0.81240   0.00000  Uiso   1.00
H261   H     0.25160   0.71984   0.06347   0.00000  Uiso   1.00
H262   H     0.37477   0.81633   0.02315   0.00000  Uiso   1.00
H263   H     0.24544   0.66765   0.19259   0.00000  Uiso   1.00
H264   H     0.12320   0.69607   0.98118   0.00000  Uiso   1.00
H265   H     0.52929   0.89090   0.96826   0.00000  Uiso   1.00
H266   H     0.25656   0.57739   0.32554   0.00000  Uiso   1.00
H267   H     0.99879   0.63731   0.87974   0.00000  Uiso   1.00
O268   O     0.67203   0.84297   0.90667   0.00000  Uiso   1.00
O269   O     0.31421   0.43165   0.37539   0.00000  Uiso   1.00
O270   O     0.97603   0.51027   0.79052   0.00000  Uiso   1.00
N271   N     0.60292   0.71418   0.92229   0.00000  Uiso   1.00
N272   N     0.34796   0.42108   0.25632   0.00000  Uiso   1.00
N273   N     0.10695   0.47708   0.83956   0.00000  Uiso   1.00
N274   N     0.53920   0.82922   0.95853   0.00000  Uiso   1.00
N275   N     0.28424   0.53612   0.29256   0.00000  Uiso   1.00
N276   N     0.04323   0.59212   0.87579   0.00000  Uiso   1.00
C277   C     0.97266   0.85823   0.75283   0.00000  Uiso   1.00
C278   C     0.89305   0.91009   0.73948   0.00000  Uiso   1.00
C279   C     0.89020   0.98919   0.70808   0.00000  Uiso   1.00
C280   C     0.81117   0.02620   0.70063   0.00000  Uiso   1.00
C281   C     0.69874   0.11294   0.67641   0.00000  Uiso   1.00
C282   C     0.97382   0.83983   0.83155   0.00000  Uiso   1.00
C283   C     0.03890   0.85985   0.87755   0.00000  Uiso   1.00
C284   C     0.02786   0.83771   0.94760   0.00000  Uiso   1.00
C285   C     0.04087   0.81531   0.06631   0.00000  Uiso   1.00
C286   C     0.95838   0.77342   0.71668   0.00000  Uiso   1.00
C287   C     0.01048   0.73759   0.66611   0.00000  Uiso   1.00
C288   C     0.98646   0.65952   0.63947   0.00000  Uiso   1.00
C289   C     0.97549   0.53401   0.57982   0.00000  Uiso   1.00
C290   C     0.83737   0.78329   0.79545   0.00000  Uiso   1.00
C291   C     0.81957   0.86938   0.76263   0.00000  Uiso   1.00
C292   C     0.74052   0.90628   0.75523   0.00000  Uiso   1.00
C293   C     0.73755   0.98543   0.72382   0.00000  Uiso   1.00
C294   C     0.90035   0.79913   0.85470   0.00000  Uiso   1.00
C295   C     0.88922   0.77694   0.92470   0.00000  Uiso   1.00
C296   C     0.95425   0.79693   0.97080   0.00000  Uiso   1.00
C297   C     0.88490   0.73272   0.73982   0.00000  Uiso   1.00
C298   C     0.86080   0.65468   0.71326   0.00000  Uiso   1.00
C299   C     0.91285   0.61874   0.66266   0.00000  Uiso   1.00
H300   H     0.02986   0.88992   0.73481   0.00000  Uiso   1.00
H301   H     0.94708   0.02067   0.69018   0.00000  Uiso   1.00
H302   H     0.09576   0.89134   0.85962   0.00000  Uiso   1.00
H303   H     0.06734   0.76910   0.64821   0.00000  Uiso   1.00
H304   H     0.82290   0.14770   0.65092   0.00000  Uiso   1.00
H305   H     0.13640   0.87498   0.00819   0.00000  Uiso   1.00
H306   H     0.07648   0.61721   0.56240   0.00000  Uiso   1.00
H307   H     0.78016   0.75160   0.81347   0.00000  Uiso   1.00
H308   H     0.68367   0.87477   0.77315   0.00000  Uiso   1.00
H309   H     0.83235   0.74544   0.94259   0.00000  Uiso   1.00
H310   H     0.80393   0.62320   0.73118   0.00000  Uiso   1.00
H311   H     0.60910   0.02929   0.71826   0.00000  Uiso   1.00
H312   H     0.92261   0.75656   0.07554   0.00000  Uiso   1.00
H313   H     0.86269   0.49879   0.62974   0.00000  Uiso   1.00
O314   O     0.65703   0.17203   0.65667   0.00000  Uiso   1.00
O315   O     0.06835   0.81421   0.12539   0.00000  Uiso   1.00
O316   O     0.98973   0.47603   0.54052   0.00000  Uiso   1.00
N317   N     0.78582   0.10292   0.67229   0.00000  Uiso   1.00
N318   N     0.07892   0.84796   0.00632   0.00000  Uiso   1.00
N319   N     0.02292   0.60695   0.58956   0.00000  Uiso   1.00
N320   N     0.67078   0.03920   0.70853   0.00000  Uiso   1.00
N321   N     0.96388   0.78424   0.04256   0.00000  Uiso   1.00
N322   N     0.90788   0.54323   0.62579   0.00000  Uiso   1.00
C323   C     0.02734   0.14177   0.25283   0.00000  Uiso   1.00
C324   C     0.10695   0.08991   0.23948   0.00000  Uiso   1.00
C325   C     0.10980   0.01081   0.20808   0.00000  Uiso   1.00
C326   C     0.18883   0.97380   0.20063   0.00000  Uiso   1.00
C327   C     0.30126   0.88706   0.17641   0.00000  Uiso   1.00
C328   C     0.02618   0.16017   0.33155   0.00000  Uiso   1.00
C329   C     0.96110   0.14015   0.37755   0.00000  Uiso   1.00
C330   C     0.97214   0.16229   0.44760   0.00000  Uiso   1.00
C331   C     0.95913   0.18469   0.56631   0.00000  Uiso   1.00
C332   C     0.04162   0.22658   0.21668   0.00000  Uiso   1.00
C333   C     0.98952   0.26241   0.16611   0.00000  Uiso   1.00
C334   C     0.01354   0.34048   0.13947   0.00000  Uiso   1.00
C335   C     0.02451   0.46599   0.07982   0.00000  Uiso   1.00
C336   C     0.16263   0.21671   0.29545   0.00000  Uiso   1.00
C337   C     0.18043   0.13062   0.26263   0.00000  Uiso   1.00
C338   C     0.25948   0.09372   0.25523   0.00000  Uiso   1.00
C339   C     0.26245   0.01457   0.22382   0.00000  Uiso   1.00
C340   C     0.09965   0.20087   0.35470   0.00000  Uiso   1.00
C341   C     0.11078   0.22306   0.42470   0.00000  Uiso   1.00
C342   C     0.04575   0.20307   0.47080   0.00000  Uiso   1.00
C343   C     0.11510   0.26728   0.23982   0.00000  Uiso   1.00
C344   C     0.13920   0.34532   0.21326   0.00000  Uiso   1.00
C345   C     0.08715   0.38126   0.16266   0.00000  Uiso   1.00
H346   H     0.97014   0.11008   0.23481   0.00000  Uiso   1.00
H347   H     0.05292   0.97933   0.19018   0.00000  Uiso   1.00
H348   H     0.90424   0.10866   0.35962   0.00000  Uiso   1.00
H349   H     0.93266   0.23090   0.14821   0.00000  Uiso   1.00
H350   H     0.17710   0.85230   0.15092   0.00000  Uiso   1.00
H351   H     0.86360   0.12502   0.50819   0.00000  Uiso   1.00
H352   H     0.92352   0.38279   0.06240   0.00000  Uiso   1.00
H353   H     0.21984   0.24840   0.31347   0.00000  Uiso   1.00
H354   H     0.31633   0.12523   0.27315   0.00000  Uiso   1.00
H355   H     0.16765   0.25456   0.44259   0.00000  Uiso   1.00
H356   H     0.19607   0.37680   0.23118   0.00000  Uiso   1.00
H357   H     0.39090   0.97071   0.21826   0.00000  Uiso   1.00
H358   H     0.07739   0.24344   0.57554   0.00000  Uiso   1.00
H359   H     0.13731   0.50121   0.12974   0.00000  Uiso   1.00
O360   O     0.34297   0.82797   0.15667   0.00000  Uiso   1.00
O361   O     0.93165   0.18579   0.62539   0.00000  Uiso   1.00
O362   O     0.01027   0.52397   0.04052   0.00000  Uiso   1.00
N363   N     0.21418   0.89708   0.17229   0.00000  Uiso   1.00
N364   N     0.92108   0.15204   0.50632   0.00000  Uiso   1.00
N365   N     0.97708   0.39305   0.08956   0.00000  Uiso   1.00
N366   N     0.32922   0.96080   0.20853   0.00000  Uiso   1.00
N367   N     0.03612   0.21576   0.54256   0.00000  Uiso   1.00
N368   N     0.09212   0.45677   0.12579   0.00000  Uiso   1.00
