data_job_04531
_audit_creation_date              2018-12-19
_audit_creation_method            'Materials Studio'
_symmetry_space_group_name_H-M    'P1'
_symmetry_Int_Tables_number       1
_symmetry_cell_setting            triclinic
loop_
_symmetry_equiv_pos_as_xyz
  x,y,z
_cell_length_a                    21.0448
_cell_length_b                    21.0448
_cell_length_c                    10.4961
_cell_angle_alpha                 90.0000
_cell_angle_beta                  90.0000
_cell_angle_gamma                 90.0000
loop_
_atom_site_label
_atom_site_type_symbol
_atom_site_fract_x
_atom_site_fract_y
_atom_site_fract_z
_atom_site_U_iso_or_equiv
_atom_site_adp_type
_atom_site_occupancy
C1     C     0.74166   0.80656   0.32850   0.00000  Uiso   1.00
C2     C     0.70597   0.75311   0.26138   0.00000  Uiso   1.00
C3     C     0.72399   0.68969   0.25873   0.00000  Uiso   1.00
C4     C     0.68495   0.64816   0.19212   0.00000  Uiso   1.00
C5     C     0.63793   0.56196   0.09723   0.00000  Uiso   1.00
C6     C     0.75541   0.85635   0.22660   0.00000  Uiso   1.00
C7     C     0.81499   0.87973   0.19473   0.00000  Uiso   1.00
C8     C     0.81756   0.92511   0.09886   0.00000  Uiso   1.00
C9     C     0.84728   0.99921   0.95004   0.00000  Uiso   1.00
C10    C     0.69414   0.83696   0.41966   0.00000  Uiso   1.00
C11    C     0.70220   0.84406   0.55011   0.00000  Uiso   1.00
C12    C     0.65319   0.87314   0.61677   0.00000  Uiso   1.00
C13    C     0.58778   0.91714   0.76771   0.00000  Uiso   1.00
C14    C     0.64029   0.84559   0.21490   0.00000  Uiso   1.00
C15    C     0.65091   0.77431   0.19967   0.00000  Uiso   1.00
C16    C     0.61183   0.73287   0.13306   0.00000  Uiso   1.00
C17    C     0.62979   0.66940   0.13032   0.00000  Uiso   1.00
C18    C     0.70035   0.87755   0.16490   0.00000  Uiso   1.00
C19    C     0.70283   0.92291   0.06906   0.00000  Uiso   1.00
C20    C     0.76239   0.94635   0.03704   0.00000  Uiso   1.00
C21    C     0.63907   0.85816   0.35796   0.00000  Uiso   1.00
C22    C     0.59004   0.88724   0.42443   0.00000  Uiso   1.00
C23    C     0.59803   0.89438   0.55496   0.00000  Uiso   1.00
H24    H     0.78453   0.79006   0.37653   0.00000  Uiso   1.00
H25    H     0.76661   0.67331   0.30648   0.00000  Uiso   1.00
H26    H     0.85759   0.86332   0.24250   0.00000  Uiso   1.00
H27    H     0.74482   0.82765   0.59782   0.00000  Uiso   1.00
H28    H     0.72247   0.55322   0.20158   0.00000  Uiso   1.00
H29    H     0.91430   0.95389   0.06670   0.00000  Uiso   1.00
H30    H     0.67651   0.87868   0.81597   0.00000  Uiso   1.00
H31    H     0.59742   0.86209   0.16686   0.00000  Uiso   1.00
H32    H     0.56922   0.74929   0.08532   0.00000  Uiso   1.00
H33    H     0.66020   0.93930   0.02134   0.00000  Uiso   1.00
H34    H     0.54744   0.90364   0.37665   0.00000  Uiso   1.00
H35    H     0.56227   0.61489   0.02207   0.00000  Uiso   1.00
H36    H     0.75410   0.01556   0.88720   0.00000  Uiso   1.00
H37    H     0.51630   0.94035   0.63646   0.00000  Uiso   1.00
O38    O     0.62721   0.50855   0.06192   0.00000  Uiso   1.00
O39    O     0.87888   0.03422   0.88500   0.00000  Uiso   1.00
O40    O     0.56691   0.93555   0.86801   0.00000  Uiso   1.00
N41    N     0.68863   0.58321   0.17054   0.00000  Uiso   1.00
N42    N     0.86798   0.95781   0.04443   0.00000  Uiso   1.00
N43    N     0.64567   0.88751   0.74492   0.00000  Uiso   1.00
N44    N     0.60242   0.61640   0.07395   0.00000  Uiso   1.00
N45    N     0.78178   0.99099   0.94784   0.00000  Uiso   1.00
N46    N     0.55947   0.92069   0.64833   0.00000  Uiso   1.00
C47    C     0.25834   0.19344   0.32850   0.00000  Uiso   1.00
C48    C     0.29403   0.24689   0.26138   0.00000  Uiso   1.00
C49    C     0.27601   0.31031   0.25873   0.00000  Uiso   1.00
C50    C     0.31505   0.35184   0.19212   0.00000  Uiso   1.00
C51    C     0.36207   0.43804   0.09723   0.00000  Uiso   1.00
C52    C     0.24459   0.14365   0.22660   0.00000  Uiso   1.00
C53    C     0.18501   0.12027   0.19473   0.00000  Uiso   1.00
C54    C     0.18244   0.07489   0.09886   0.00000  Uiso   1.00
C55    C     0.15272   0.00079   0.95004   0.00000  Uiso   1.00
C56    C     0.30586   0.16304   0.41966   0.00000  Uiso   1.00
C57    C     0.29780   0.15594   0.55011   0.00000  Uiso   1.00
C58    C     0.34681   0.12686   0.61677   0.00000  Uiso   1.00
C59    C     0.41222   0.08286   0.76771   0.00000  Uiso   1.00
C60    C     0.35971   0.15441   0.21490   0.00000  Uiso   1.00
C61    C     0.34909   0.22569   0.19967   0.00000  Uiso   1.00
C62    C     0.38817   0.26713   0.13306   0.00000  Uiso   1.00
C63    C     0.37021   0.33060   0.13032   0.00000  Uiso   1.00
C64    C     0.29965   0.12245   0.16490   0.00000  Uiso   1.00
C65    C     0.29717   0.07709   0.06906   0.00000  Uiso   1.00
C66    C     0.23761   0.05365   0.03704   0.00000  Uiso   1.00
C67    C     0.36093   0.14184   0.35796   0.00000  Uiso   1.00
C68    C     0.40996   0.11276   0.42443   0.00000  Uiso   1.00
C69    C     0.40197   0.10562   0.55496   0.00000  Uiso   1.00
H70    H     0.21547   0.20994   0.37653   0.00000  Uiso   1.00
H71    H     0.23339   0.32669   0.30648   0.00000  Uiso   1.00
H72    H     0.14241   0.13668   0.24250   0.00000  Uiso   1.00
H73    H     0.25518   0.17235   0.59782   0.00000  Uiso   1.00
H74    H     0.27753   0.44678   0.20158   0.00000  Uiso   1.00
H75    H     0.08570   0.04611   0.06670   0.00000  Uiso   1.00
H76    H     0.32349   0.12132   0.81597   0.00000  Uiso   1.00
H77    H     0.40258   0.13791   0.16686   0.00000  Uiso   1.00
H78    H     0.43078   0.25071   0.08532   0.00000  Uiso   1.00
H79    H     0.33980   0.06070   0.02134   0.00000  Uiso   1.00
H80    H     0.45256   0.09636   0.37665   0.00000  Uiso   1.00
H81    H     0.43773   0.38511   0.02207   0.00000  Uiso   1.00
H82    H     0.24590   0.98444   0.88720   0.00000  Uiso   1.00
H83    H     0.48370   0.05965   0.63646   0.00000  Uiso   1.00
O84    O     0.37279   0.49145   0.06192   0.00000  Uiso   1.00
O85    O     0.12112   0.96578   0.88500   0.00000  Uiso   1.00
O86    O     0.43309   0.06445   0.86801   0.00000  Uiso   1.00
N87    N     0.31137   0.41679   0.17054   0.00000  Uiso   1.00
N88    N     0.13202   0.04219   0.04443   0.00000  Uiso   1.00
N89    N     0.35433   0.11249   0.74492   0.00000  Uiso   1.00
N90    N     0.39758   0.38360   0.07395   0.00000  Uiso   1.00
N91    N     0.21822   0.00901   0.94784   0.00000  Uiso   1.00
N92    N     0.44053   0.07931   0.64833   0.00000  Uiso   1.00
C93    C     0.80656   0.25834   0.67150   0.00000  Uiso   1.00
C94    C     0.75311   0.29403   0.73862   0.00000  Uiso   1.00
C95    C     0.68969   0.27601   0.74127   0.00000  Uiso   1.00
C96    C     0.64816   0.31505   0.80788   0.00000  Uiso   1.00
C97    C     0.56196   0.36207   0.90277   0.00000  Uiso   1.00
C98    C     0.85635   0.24459   0.77340   0.00000  Uiso   1.00
C99    C     0.87973   0.18501   0.80527   0.00000  Uiso   1.00
C100   C     0.92511   0.18244   0.90114   0.00000  Uiso   1.00
C101   C     0.99921   0.15272   0.04996   0.00000  Uiso   1.00
C102   C     0.83696   0.30586   0.58034   0.00000  Uiso   1.00
C103   C     0.84406   0.29780   0.44989   0.00000  Uiso   1.00
C104   C     0.87314   0.34681   0.38323   0.00000  Uiso   1.00
C105   C     0.91714   0.41222   0.23229   0.00000  Uiso   1.00
C106   C     0.84559   0.35971   0.78510   0.00000  Uiso   1.00
C107   C     0.77431   0.34909   0.80033   0.00000  Uiso   1.00
C108   C     0.73287   0.38817   0.86694   0.00000  Uiso   1.00
C109   C     0.66940   0.37021   0.86968   0.00000  Uiso   1.00
C110   C     0.87755   0.29965   0.83510   0.00000  Uiso   1.00
C111   C     0.92291   0.29717   0.93094   0.00000  Uiso   1.00
C112   C     0.94635   0.23761   0.96296   0.00000  Uiso   1.00
C113   C     0.85816   0.36093   0.64204   0.00000  Uiso   1.00
C114   C     0.88724   0.40996   0.57557   0.00000  Uiso   1.00
C115   C     0.89438   0.40197   0.44504   0.00000  Uiso   1.00
H116   H     0.79006   0.21547   0.62347   0.00000  Uiso   1.00
H117   H     0.67331   0.23339   0.69352   0.00000  Uiso   1.00
H118   H     0.86332   0.14241   0.75750   0.00000  Uiso   1.00
H119   H     0.82765   0.25518   0.40218   0.00000  Uiso   1.00
H120   H     0.55322   0.27753   0.79842   0.00000  Uiso   1.00
H121   H     0.95389   0.08570   0.93330   0.00000  Uiso   1.00
H122   H     0.87868   0.32349   0.18403   0.00000  Uiso   1.00
H123   H     0.86209   0.40258   0.83314   0.00000  Uiso   1.00
H124   H     0.74929   0.43078   0.91468   0.00000  Uiso   1.00
H125   H     0.93930   0.33980   0.97866   0.00000  Uiso   1.00
H126   H     0.90364   0.45256   0.62335   0.00000  Uiso   1.00
H127   H     0.61489   0.43773   0.97793   0.00000  Uiso   1.00
H128   H     0.01556   0.24590   0.11280   0.00000  Uiso   1.00
H129   H     0.94035   0.48370   0.36354   0.00000  Uiso   1.00
O130   O     0.50855   0.37279   0.93808   0.00000  Uiso   1.00
O131   O     0.03422   0.12112   0.11500   0.00000  Uiso   1.00
O132   O     0.93555   0.43309   0.13199   0.00000  Uiso   1.00
N133   N     0.58321   0.31137   0.82946   0.00000  Uiso   1.00
N134   N     0.95781   0.13202   0.95557   0.00000  Uiso   1.00
N135   N     0.88751   0.35433   0.25508   0.00000  Uiso   1.00
N136   N     0.61640   0.39758   0.92605   0.00000  Uiso   1.00
N137   N     0.99099   0.21822   0.05216   0.00000  Uiso   1.00
N138   N     0.92069   0.44053   0.35167   0.00000  Uiso   1.00
C139   C     0.19344   0.74166   0.67150   0.00000  Uiso   1.00
C140   C     0.24689   0.70597   0.73862   0.00000  Uiso   1.00
C141   C     0.31031   0.72399   0.74127   0.00000  Uiso   1.00
C142   C     0.35184   0.68495   0.80788   0.00000  Uiso   1.00
C143   C     0.43804   0.63793   0.90277   0.00000  Uiso   1.00
C144   C     0.14365   0.75541   0.77340   0.00000  Uiso   1.00
C145   C     0.12027   0.81499   0.80527   0.00000  Uiso   1.00
C146   C     0.07489   0.81756   0.90114   0.00000  Uiso   1.00
C147   C     0.00079   0.84728   0.04996   0.00000  Uiso   1.00
C148   C     0.16304   0.69414   0.58034   0.00000  Uiso   1.00
C149   C     0.15594   0.70220   0.44989   0.00000  Uiso   1.00
C150   C     0.12686   0.65319   0.38323   0.00000  Uiso   1.00
C151   C     0.08286   0.58778   0.23229   0.00000  Uiso   1.00
C152   C     0.15441   0.64029   0.78510   0.00000  Uiso   1.00
C153   C     0.22569   0.65091   0.80033   0.00000  Uiso   1.00
C154   C     0.26713   0.61183   0.86694   0.00000  Uiso   1.00
C155   C     0.33060   0.62979   0.86968   0.00000  Uiso   1.00
C156   C     0.12245   0.70035   0.83510   0.00000  Uiso   1.00
C157   C     0.07709   0.70283   0.93094   0.00000  Uiso   1.00
C158   C     0.05365   0.76239   0.96296   0.00000  Uiso   1.00
C159   C     0.14184   0.63907   0.64204   0.00000  Uiso   1.00
C160   C     0.11276   0.59004   0.57557   0.00000  Uiso   1.00
C161   C     0.10562   0.59803   0.44504   0.00000  Uiso   1.00
H162   H     0.20994   0.78453   0.62347   0.00000  Uiso   1.00
H163   H     0.32669   0.76661   0.69352   0.00000  Uiso   1.00
H164   H     0.13668   0.85759   0.75750   0.00000  Uiso   1.00
H165   H     0.17235   0.74482   0.40218   0.00000  Uiso   1.00
H166   H     0.44678   0.72247   0.79842   0.00000  Uiso   1.00
H167   H     0.04611   0.91430   0.93330   0.00000  Uiso   1.00
H168   H     0.12132   0.67651   0.18403   0.00000  Uiso   1.00
H169   H     0.13791   0.59742   0.83314   0.00000  Uiso   1.00
H170   H     0.25071   0.56922   0.91468   0.00000  Uiso   1.00
H171   H     0.06070   0.66020   0.97866   0.00000  Uiso   1.00
H172   H     0.09636   0.54744   0.62335   0.00000  Uiso   1.00
H173   H     0.38511   0.56227   0.97793   0.00000  Uiso   1.00
H174   H     0.98444   0.75410   0.11280   0.00000  Uiso   1.00
H175   H     0.05965   0.51630   0.36354   0.00000  Uiso   1.00
O176   O     0.49145   0.62721   0.93808   0.00000  Uiso   1.00
O177   O     0.96578   0.87888   0.11500   0.00000  Uiso   1.00
O178   O     0.06445   0.56691   0.13199   0.00000  Uiso   1.00
N179   N     0.41679   0.68863   0.82946   0.00000  Uiso   1.00
N180   N     0.04219   0.86798   0.95557   0.00000  Uiso   1.00
N181   N     0.11249   0.64567   0.25508   0.00000  Uiso   1.00
N182   N     0.38360   0.60242   0.92605   0.00000  Uiso   1.00
N183   N     0.00901   0.78178   0.05216   0.00000  Uiso   1.00
N184   N     0.07931   0.55947   0.35167   0.00000  Uiso   1.00
C185   C     0.25834   0.80656   0.17150   0.00000  Uiso   1.00
C186   C     0.29403   0.75311   0.23862   0.00000  Uiso   1.00
C187   C     0.27601   0.68969   0.24127   0.00000  Uiso   1.00
C188   C     0.31505   0.64816   0.30788   0.00000  Uiso   1.00
C189   C     0.36207   0.56196   0.40277   0.00000  Uiso   1.00
C190   C     0.24459   0.85635   0.27340   0.00000  Uiso   1.00
C191   C     0.18501   0.87973   0.30527   0.00000  Uiso   1.00
C192   C     0.18244   0.92511   0.40114   0.00000  Uiso   1.00
C193   C     0.15272   0.99921   0.54996   0.00000  Uiso   1.00
C194   C     0.30586   0.83696   0.08034   0.00000  Uiso   1.00
C195   C     0.29780   0.84406   0.94989   0.00000  Uiso   1.00
C196   C     0.34681   0.87314   0.88323   0.00000  Uiso   1.00
C197   C     0.41222   0.91714   0.73229   0.00000  Uiso   1.00
C198   C     0.35971   0.84559   0.28510   0.00000  Uiso   1.00
C199   C     0.34909   0.77431   0.30033   0.00000  Uiso   1.00
C200   C     0.38817   0.73287   0.36694   0.00000  Uiso   1.00
C201   C     0.37021   0.66940   0.36968   0.00000  Uiso   1.00
C202   C     0.29965   0.87755   0.33510   0.00000  Uiso   1.00
C203   C     0.29717   0.92291   0.43094   0.00000  Uiso   1.00
C204   C     0.23761   0.94635   0.46296   0.00000  Uiso   1.00
C205   C     0.36093   0.85816   0.14204   0.00000  Uiso   1.00
C206   C     0.40996   0.88724   0.07557   0.00000  Uiso   1.00
C207   C     0.40197   0.89438   0.94504   0.00000  Uiso   1.00
H208   H     0.21547   0.79006   0.12347   0.00000  Uiso   1.00
H209   H     0.23339   0.67331   0.19352   0.00000  Uiso   1.00
H210   H     0.14241   0.86332   0.25750   0.00000  Uiso   1.00
H211   H     0.25518   0.82765   0.90218   0.00000  Uiso   1.00
H212   H     0.27753   0.55322   0.29842   0.00000  Uiso   1.00
H213   H     0.08570   0.95389   0.43330   0.00000  Uiso   1.00
H214   H     0.32349   0.87868   0.68403   0.00000  Uiso   1.00
H215   H     0.40258   0.86209   0.33314   0.00000  Uiso   1.00
H216   H     0.43078   0.74929   0.41468   0.00000  Uiso   1.00
H217   H     0.33980   0.93930   0.47866   0.00000  Uiso   1.00
H218   H     0.45256   0.90364   0.12335   0.00000  Uiso   1.00
H219   H     0.43773   0.61489   0.47793   0.00000  Uiso   1.00
H220   H     0.24590   0.01556   0.61280   0.00000  Uiso   1.00
H221   H     0.48370   0.94035   0.86354   0.00000  Uiso   1.00
O222   O     0.37279   0.50855   0.43808   0.00000  Uiso   1.00
O223   O     0.12112   0.03422   0.61500   0.00000  Uiso   1.00
O224   O     0.43309   0.93555   0.63199   0.00000  Uiso   1.00
N225   N     0.31137   0.58321   0.32946   0.00000  Uiso   1.00
N226   N     0.13202   0.95781   0.45557   0.00000  Uiso   1.00
N227   N     0.35433   0.88751   0.75508   0.00000  Uiso   1.00
N228   N     0.39758   0.61640   0.42605   0.00000  Uiso   1.00
N229   N     0.21822   0.99099   0.55216   0.00000  Uiso   1.00
N230   N     0.44053   0.92069   0.85167   0.00000  Uiso   1.00
C231   C     0.74166   0.19344   0.17150   0.00000  Uiso   1.00
C232   C     0.70597   0.24689   0.23862   0.00000  Uiso   1.00
C233   C     0.72399   0.31031   0.24127   0.00000  Uiso   1.00
C234   C     0.68495   0.35184   0.30788   0.00000  Uiso   1.00
C235   C     0.63793   0.43804   0.40277   0.00000  Uiso   1.00
C236   C     0.75541   0.14365   0.27340   0.00000  Uiso   1.00
C237   C     0.81499   0.12027   0.30527   0.00000  Uiso   1.00
C238   C     0.81756   0.07489   0.40114   0.00000  Uiso   1.00
C239   C     0.84728   0.00079   0.54996   0.00000  Uiso   1.00
C240   C     0.69414   0.16304   0.08034   0.00000  Uiso   1.00
C241   C     0.70220   0.15594   0.94989   0.00000  Uiso   1.00
C242   C     0.65319   0.12686   0.88323   0.00000  Uiso   1.00
C243   C     0.58778   0.08286   0.73229   0.00000  Uiso   1.00
C244   C     0.64029   0.15441   0.28510   0.00000  Uiso   1.00
C245   C     0.65091   0.22569   0.30033   0.00000  Uiso   1.00
C246   C     0.61183   0.26713   0.36694   0.00000  Uiso   1.00
C247   C     0.62979   0.33060   0.36968   0.00000  Uiso   1.00
C248   C     0.70035   0.12245   0.33510   0.00000  Uiso   1.00
C249   C     0.70283   0.07709   0.43094   0.00000  Uiso   1.00
C250   C     0.76239   0.05365   0.46296   0.00000  Uiso   1.00
C251   C     0.63907   0.14184   0.14204   0.00000  Uiso   1.00
C252   C     0.59004   0.11276   0.07557   0.00000  Uiso   1.00
C253   C     0.59803   0.10562   0.94504   0.00000  Uiso   1.00
H254   H     0.78453   0.20994   0.12347   0.00000  Uiso   1.00
H255   H     0.76661   0.32669   0.19352   0.00000  Uiso   1.00
H256   H     0.85759   0.13668   0.25750   0.00000  Uiso   1.00
H257   H     0.74482   0.17235   0.90218   0.00000  Uiso   1.00
H258   H     0.72247   0.44678   0.29842   0.00000  Uiso   1.00
H259   H     0.91430   0.04611   0.43330   0.00000  Uiso   1.00
H260   H     0.67651   0.12132   0.68403   0.00000  Uiso   1.00
H261   H     0.59742   0.13791   0.33314   0.00000  Uiso   1.00
H262   H     0.56922   0.25071   0.41468   0.00000  Uiso   1.00
H263   H     0.66020   0.06070   0.47866   0.00000  Uiso   1.00
H264   H     0.54744   0.09636   0.12335   0.00000  Uiso   1.00
H265   H     0.56227   0.38511   0.47793   0.00000  Uiso   1.00
H266   H     0.75410   0.98444   0.61280   0.00000  Uiso   1.00
H267   H     0.51630   0.05965   0.86354   0.00000  Uiso   1.00
O268   O     0.62721   0.49145   0.43808   0.00000  Uiso   1.00
O269   O     0.87888   0.96578   0.61500   0.00000  Uiso   1.00
O270   O     0.56691   0.06445   0.63199   0.00000  Uiso   1.00
N271   N     0.68863   0.41679   0.32946   0.00000  Uiso   1.00
N272   N     0.86798   0.04219   0.45557   0.00000  Uiso   1.00
N273   N     0.64567   0.11249   0.75508   0.00000  Uiso   1.00
N274   N     0.60242   0.38360   0.42605   0.00000  Uiso   1.00
N275   N     0.78178   0.00901   0.55216   0.00000  Uiso   1.00
N276   N     0.55947   0.07931   0.85167   0.00000  Uiso   1.00
C277   C     0.19344   0.25834   0.82850   0.00000  Uiso   1.00
C278   C     0.24689   0.29403   0.76138   0.00000  Uiso   1.00
C279   C     0.31031   0.27601   0.75873   0.00000  Uiso   1.00
C280   C     0.35184   0.31505   0.69212   0.00000  Uiso   1.00
C281   C     0.43804   0.36207   0.59723   0.00000  Uiso   1.00
C282   C     0.14365   0.24459   0.72660   0.00000  Uiso   1.00
C283   C     0.12027   0.18501   0.69473   0.00000  Uiso   1.00
C284   C     0.07489   0.18244   0.59886   0.00000  Uiso   1.00
C285   C     0.00079   0.15272   0.45004   0.00000  Uiso   1.00
C286   C     0.16304   0.30586   0.91966   0.00000  Uiso   1.00
C287   C     0.15594   0.29780   0.05011   0.00000  Uiso   1.00
C288   C     0.12686   0.34681   0.11677   0.00000  Uiso   1.00
C289   C     0.08286   0.41222   0.26771   0.00000  Uiso   1.00
C290   C     0.15441   0.35971   0.71490   0.00000  Uiso   1.00
C291   C     0.22569   0.34909   0.69967   0.00000  Uiso   1.00
C292   C     0.26713   0.38817   0.63306   0.00000  Uiso   1.00
C293   C     0.33060   0.37021   0.63032   0.00000  Uiso   1.00
C294   C     0.12245   0.29965   0.66490   0.00000  Uiso   1.00
C295   C     0.07709   0.29717   0.56906   0.00000  Uiso   1.00
C296   C     0.05365   0.23761   0.53704   0.00000  Uiso   1.00
C297   C     0.14184   0.36093   0.85796   0.00000  Uiso   1.00
C298   C     0.11276   0.40996   0.92443   0.00000  Uiso   1.00
C299   C     0.10562   0.40197   0.05496   0.00000  Uiso   1.00
H300   H     0.20994   0.21547   0.87653   0.00000  Uiso   1.00
H301   H     0.32669   0.23339   0.80648   0.00000  Uiso   1.00
H302   H     0.13668   0.14241   0.74250   0.00000  Uiso   1.00
H303   H     0.17235   0.25518   0.09782   0.00000  Uiso   1.00
H304   H     0.44678   0.27753   0.70158   0.00000  Uiso   1.00
H305   H     0.04611   0.08570   0.56670   0.00000  Uiso   1.00
H306   H     0.12132   0.32349   0.31597   0.00000  Uiso   1.00
H307   H     0.13791   0.40258   0.66686   0.00000  Uiso   1.00
H308   H     0.25071   0.43078   0.58532   0.00000  Uiso   1.00
H309   H     0.06070   0.33980   0.52134   0.00000  Uiso   1.00
H310   H     0.09636   0.45256   0.87665   0.00000  Uiso   1.00
H311   H     0.38511   0.43773   0.52207   0.00000  Uiso   1.00
H312   H     0.98444   0.24590   0.38720   0.00000  Uiso   1.00
H313   H     0.05965   0.48370   0.13646   0.00000  Uiso   1.00
O314   O     0.49145   0.37279   0.56192   0.00000  Uiso   1.00
O315   O     0.96578   0.12112   0.38500   0.00000  Uiso   1.00
O316   O     0.06445   0.43309   0.36801   0.00000  Uiso   1.00
N317   N     0.41679   0.31137   0.67054   0.00000  Uiso   1.00
N318   N     0.04219   0.13202   0.54443   0.00000  Uiso   1.00
N319   N     0.11249   0.35433   0.24492   0.00000  Uiso   1.00
N320   N     0.38360   0.39758   0.57395   0.00000  Uiso   1.00
N321   N     0.00901   0.21822   0.44784   0.00000  Uiso   1.00
N322   N     0.07931   0.44053   0.14833   0.00000  Uiso   1.00
C323   C     0.80656   0.74166   0.82850   0.00000  Uiso   1.00
C324   C     0.75311   0.70597   0.76138   0.00000  Uiso   1.00
C325   C     0.68969   0.72399   0.75873   0.00000  Uiso   1.00
C326   C     0.64816   0.68495   0.69212   0.00000  Uiso   1.00
C327   C     0.56196   0.63793   0.59723   0.00000  Uiso   1.00
C328   C     0.85635   0.75541   0.72660   0.00000  Uiso   1.00
C329   C     0.87973   0.81499   0.69473   0.00000  Uiso   1.00
C330   C     0.92511   0.81756   0.59886   0.00000  Uiso   1.00
C331   C     0.99921   0.84728   0.45004   0.00000  Uiso   1.00
C332   C     0.83696   0.69414   0.91966   0.00000  Uiso   1.00
C333   C     0.84406   0.70220   0.05011   0.00000  Uiso   1.00
C334   C     0.87314   0.65319   0.11677   0.00000  Uiso   1.00
C335   C     0.91714   0.58778   0.26771   0.00000  Uiso   1.00
C336   C     0.84559   0.64029   0.71490   0.00000  Uiso   1.00
C337   C     0.77431   0.65091   0.69967   0.00000  Uiso   1.00
C338   C     0.73287   0.61183   0.63306   0.00000  Uiso   1.00
C339   C     0.66940   0.62979   0.63032   0.00000  Uiso   1.00
C340   C     0.87755   0.70035   0.66490   0.00000  Uiso   1.00
C341   C     0.92291   0.70283   0.56906   0.00000  Uiso   1.00
C342   C     0.94635   0.76239   0.53704   0.00000  Uiso   1.00
C343   C     0.85816   0.63907   0.85796   0.00000  Uiso   1.00
C344   C     0.88724   0.59004   0.92443   0.00000  Uiso   1.00
C345   C     0.89438   0.59803   0.05496   0.00000  Uiso   1.00
H346   H     0.79006   0.78453   0.87653   0.00000  Uiso   1.00
H347   H     0.67331   0.76661   0.80648   0.00000  Uiso   1.00
H348   H     0.86332   0.85759   0.74250   0.00000  Uiso   1.00
H349   H     0.82765   0.74482   0.09782   0.00000  Uiso   1.00
H350   H     0.55322   0.72247   0.70158   0.00000  Uiso   1.00
H351   H     0.95389   0.91430   0.56670   0.00000  Uiso   1.00
H352   H     0.87868   0.67651   0.31597   0.00000  Uiso   1.00
H353   H     0.86209   0.59742   0.66686   0.00000  Uiso   1.00
H354   H     0.74929   0.56922   0.58532   0.00000  Uiso   1.00
H355   H     0.93930   0.66020   0.52134   0.00000  Uiso   1.00
H356   H     0.90364   0.54744   0.87665   0.00000  Uiso   1.00
H357   H     0.61489   0.56227   0.52207   0.00000  Uiso   1.00
H358   H     0.01556   0.75410   0.38720   0.00000  Uiso   1.00
H359   H     0.94035   0.51630   0.13646   0.00000  Uiso   1.00
O360   O     0.50855   0.62721   0.56192   0.00000  Uiso   1.00
O361   O     0.03422   0.87888   0.38500   0.00000  Uiso   1.00
O362   O     0.93555   0.56691   0.36801   0.00000  Uiso   1.00
N363   N     0.58321   0.68863   0.67054   0.00000  Uiso   1.00
N364   N     0.95781   0.86798   0.54443   0.00000  Uiso   1.00
N365   N     0.88751   0.64567   0.24492   0.00000  Uiso   1.00
N366   N     0.61640   0.60242   0.57395   0.00000  Uiso   1.00
N367   N     0.99099   0.78178   0.44784   0.00000  Uiso   1.00
N368   N     0.92069   0.55947   0.14833   0.00000  Uiso   1.00
