data_job_06425
_audit_creation_date              2018-12-19
_audit_creation_method            'Materials Studio'
_symmetry_space_group_name_H-M    'P1'
_symmetry_Int_Tables_number       1
_symmetry_cell_setting            triclinic
loop_
_symmetry_equiv_pos_as_xyz
  x,y,z
_cell_length_a                    8.8652
_cell_length_b                    25.0537
_cell_length_c                    25.0745
_cell_angle_alpha                 61.3470
_cell_angle_beta                  83.5794
_cell_angle_gamma                 96.4110
loop_
_atom_site_label
_atom_site_type_symbol
_atom_site_fract_x
_atom_site_fract_y
_atom_site_fract_z
_atom_site_U_iso_or_equiv
_atom_site_adp_type
_atom_site_occupancy
C1     C     0.92296   0.18594   0.59454   0.00000  Uiso   1.00
C2     C     0.95518   0.25458   0.57478   0.00000  Uiso   1.00
C3     C     0.06972   0.28353   0.59084   0.00000  Uiso   1.00
C4     C     0.08043   0.34669   0.56809   0.00000  Uiso   1.00
C5     C     0.14567   0.44824   0.54315   0.00000  Uiso   1.00
C6     C     0.75373   0.16183   0.62669   0.00000  Uiso   1.00
C7     C     0.69891   0.11280   0.68638   0.00000  Uiso   1.00
C8     C     0.54004   0.09789   0.70732   0.00000  Uiso   1.00
C9     C     0.29252   0.05542   0.76293   0.00000  Uiso   1.00
C10    C     0.93342   0.18302   0.53491   0.00000  Uiso   1.00
C11    C     0.02963   0.15179   0.51743   0.00000  Uiso   1.00
C12    C     0.02202   0.15472   0.46110   0.00000  Uiso   1.00
C13    C     0.05348   0.14515   0.37421   0.00000  Uiso   1.00
C14    C     0.73831   0.24665   0.52560   0.00000  Uiso   1.00
C15    C     0.85488   0.28754   0.53734   0.00000  Uiso   1.00
C16    C     0.86543   0.35069   0.51457   0.00000  Uiso   1.00
C17    C     0.97996   0.37972   0.53058   0.00000  Uiso   1.00
C18    C     0.65344   0.19480   0.58925   0.00000  Uiso   1.00
C19    C     0.49462   0.17996   0.61011   0.00000  Uiso   1.00
C20    C     0.43956   0.13092   0.66981   0.00000  Uiso   1.00
C21    C     0.83313   0.21600   0.49746   0.00000  Uiso   1.00
C22    C     0.82535   0.21896   0.44115   0.00000  Uiso   1.00
C23    C     0.92154   0.18774   0.42359   0.00000  Uiso   1.00
H24    H     0.00103   0.16027   0.62369   0.00000  Uiso   1.00
H25    H     0.14730   0.25799   0.61982   0.00000  Uiso   1.00
H26    H     0.77655   0.08729   0.71534   0.00000  Uiso   1.00
H27    H     0.10723   0.12628   0.54641   0.00000  Uiso   1.00
H28    H     0.26520   0.38087   0.59903   0.00000  Uiso   1.00
H29    H     0.48344   0.02091   0.80043   0.00000  Uiso   1.00
H30    H     0.18074   0.10314   0.44422   0.00000  Uiso   1.00
H31    H     0.66023   0.27232   0.49645   0.00000  Uiso   1.00
H32    H     0.78780   0.37619   0.48559   0.00000  Uiso   1.00
H33    H     0.41704   0.20548   0.58111   0.00000  Uiso   1.00
H34    H     0.74772   0.24448   0.41219   0.00000  Uiso   1.00
H35    H     0.97341   0.47680   0.49009   0.00000  Uiso   1.00
H36    H     0.19164   0.11684   0.69149   0.00000  Uiso   1.00
H37    H     0.88895   0.19907   0.33528   0.00000  Uiso   1.00
O38    O     0.20934   0.49514   0.53974   0.00000  Uiso   1.00
O39    O     0.18370   0.02288   0.80396   0.00000  Uiso   1.00
O40    O     0.09856   0.13077   0.33662   0.00000  Uiso   1.00
N41    N     0.17904   0.38919   0.57487   0.00000  Uiso   1.00
N42    N     0.44814   0.05266   0.76318   0.00000  Uiso   1.00
N43    N     0.10003   0.12953   0.43016   0.00000  Uiso   1.00
N44    N     0.02203   0.44081   0.51625   0.00000  Uiso   1.00
N45    N     0.29113   0.10428   0.70455   0.00000  Uiso   1.00
N46    N     0.94303   0.18115   0.37153   0.00000  Uiso   1.00
C47    C     0.73602   0.21919   0.18675   0.00000  Uiso   1.00
C48    C     0.70158   0.17046   0.25531   0.00000  Uiso   1.00
C49    C     0.78781   0.12530   0.28462   0.00000  Uiso   1.00
C50    C     0.73720   0.08505   0.34765   0.00000  Uiso   1.00
C51    C     0.70377   0.00864   0.44915   0.00000  Uiso   1.00
C52    C     0.59056   0.21143   0.16198   0.00000  Uiso   1.00
C53    C     0.58345   0.20072   0.11282   0.00000  Uiso   1.00
C54    C     0.43938   0.19497   0.09728   0.00000  Uiso   1.00
C55    C     0.23361   0.18220   0.05386   0.00000  Uiso   1.00
C56    C     0.74926   0.28173   0.18395   0.00000  Uiso   1.00
C57    C     0.87557   0.33014   0.15324   0.00000  Uiso   1.00
C58    C     0.86510   0.38359   0.15618   0.00000  Uiso   1.00
C59    C     0.90573   0.47998   0.14687   0.00000  Uiso   1.00
C60    C     0.49282   0.22802   0.24655   0.00000  Uiso   1.00
C61    C     0.56948   0.17526   0.28779   0.00000  Uiso   1.00
C62    C     0.51873   0.13507   0.35079   0.00000  Uiso   1.00
C63    C     0.60487   0.08986   0.38019   0.00000  Uiso   1.00
C64    C     0.45846   0.21622   0.19446   0.00000  Uiso   1.00
C65    C     0.31437   0.21049   0.17899   0.00000  Uiso   1.00
C66    C     0.30704   0.19977   0.12982   0.00000  Uiso   1.00
C67    C     0.61716   0.28653   0.21643   0.00000  Uiso   1.00
C68    C     0.60649   0.33991   0.21941   0.00000  Uiso   1.00
C69    C     0.73276   0.38840   0.18872   0.00000  Uiso   1.00
H70    H     0.83886   0.21545   0.16146   0.00000  Uiso   1.00
H71    H     0.89002   0.12160   0.25947   0.00000  Uiso   1.00
H72    H     0.68570   0.19701   0.08769   0.00000  Uiso   1.00
H73    H     0.97777   0.32641   0.12811   0.00000  Uiso   1.00
H74    H     0.88846   0.01964   0.38244   0.00000  Uiso   1.00
H75    H     0.45763   0.17868   0.02023   0.00000  Uiso   1.00
H76    H     0.07352   0.45155   0.10546   0.00000  Uiso   1.00
H77    H     0.38997   0.23176   0.27184   0.00000  Uiso   1.00
H78    H     0.41650   0.13879   0.37591   0.00000  Uiso   1.00
H79    H     0.21217   0.21421   0.20413   0.00000  Uiso   1.00
H80    H     0.50424   0.34361   0.24455   0.00000  Uiso   1.00
H81    H     0.50412   0.03360   0.47695   0.00000  Uiso   1.00
H82    H     0.07330   0.19264   0.11474   0.00000  Uiso   1.00
H83    H     0.68919   0.46550   0.19997   0.00000  Uiso   1.00
O84    O     0.72181   0.96516   0.49616   0.00000  Uiso   1.00
O85    O     0.15660   0.17383   0.02094   0.00000  Uiso   1.00
O86    O     0.96463   0.53181   0.13277   0.00000  Uiso   1.00
N87    N     0.79438   0.03569   0.39041   0.00000  Uiso   1.00
N88    N     0.39158   0.18438   0.05177   0.00000  Uiso   1.00
N89    N     0.96737   0.43949   0.13144   0.00000  Uiso   1.00
N90    N     0.58757   0.04320   0.44126   0.00000  Uiso   1.00
N91    N     0.18478   0.19189   0.10262   0.00000  Uiso   1.00
N92    N     0.76057   0.44700   0.18229   0.00000  Uiso   1.00
C93    C     0.52321   0.59416   0.21941   0.00000  Uiso   1.00
C94    C     0.53615   0.57423   0.17063   0.00000  Uiso   1.00
C95    C     0.66603   0.58975   0.12595   0.00000  Uiso   1.00
C96    C     0.65461   0.56693   0.08556   0.00000  Uiso   1.00
C97    C     0.69545   0.54165   0.00916   0.00000  Uiso   1.00
C98    C     0.38555   0.62698   0.21110   0.00000  Uiso   1.00
C99    C     0.38881   0.68684   0.20045   0.00000  Uiso   1.00
C100   C     0.25061   0.70843   0.19413   0.00000  Uiso   1.00
C101   C     0.05761   0.76503   0.18060   0.00000  Uiso   1.00
C102   C     0.47573   0.53459   0.28180   0.00000  Uiso   1.00
C103   C     0.55479   0.51677   0.33061   0.00000  Uiso   1.00
C104   C     0.49249   0.46057   0.38383   0.00000  Uiso   1.00
C105   C     0.43952   0.37371   0.48007   0.00000  Uiso   1.00
C106   C     0.27196   0.52604   0.22714   0.00000  Uiso   1.00
C107   C     0.39968   0.53724   0.17483   0.00000  Uiso   1.00
C108   C     0.38806   0.51439   0.13450   0.00000  Uiso   1.00
C109   C     0.51791   0.52987   0.08977   0.00000  Uiso   1.00
C110   C     0.24909   0.58999   0.21529   0.00000  Uiso   1.00
C111   C     0.11084   0.61149   0.20900   0.00000  Uiso   1.00
C112   C     0.11390   0.67137   0.19834   0.00000  Uiso   1.00
C113   C     0.33927   0.49759   0.28600   0.00000  Uiso   1.00
C114   C     0.27683   0.44141   0.33916   0.00000  Uiso   1.00
C115   C     0.35578   0.42351   0.38803   0.00000  Uiso   1.00
H116   H     0.62944   0.62296   0.21614   0.00000  Uiso   1.00
H117   H     0.77162   0.61838   0.12271   0.00000  Uiso   1.00
H118   H     0.49443   0.71546   0.19721   0.00000  Uiso   1.00
H119   H     0.66039   0.54541   0.32734   0.00000  Uiso   1.00
H120   H     0.86904   0.59701   0.02097   0.00000  Uiso   1.00
H121   H     0.28458   0.80170   0.17806   0.00000  Uiso   1.00
H122   H     0.63453   0.44311   0.45248   0.00000  Uiso   1.00
H123   H     0.16571   0.49724   0.23041   0.00000  Uiso   1.00
H124   H     0.28244   0.48576   0.13776   0.00000  Uiso   1.00
H125   H     0.00526   0.58285   0.21225   0.00000  Uiso   1.00
H126   H     0.17122   0.41279   0.34239   0.00000  Uiso   1.00
H127   H     0.47201   0.48938   0.03318   0.00000  Uiso   1.00
H128   H     0.88754   0.69406   0.19027   0.00000  Uiso   1.00
H129   H     0.23750   0.33548   0.46469   0.00000  Uiso   1.00
O130   O     0.75567   0.53793   0.96585   0.00000  Uiso   1.00
O131   O     0.98887   0.80647   0.17197   0.00000  Uiso   1.00
O132   O     0.44801   0.33601   0.53200   0.00000  Uiso   1.00
N133   N     0.75959   0.57324   0.03656   0.00000  Uiso   1.00
N134   N     0.21316   0.76462   0.18342   0.00000  Uiso   1.00
N135   N     0.54032   0.42938   0.43999   0.00000  Uiso   1.00
N136   N     0.54595   0.51533   0.04313   0.00000  Uiso   1.00
N137   N     0.99952   0.70670   0.19000   0.00000  Uiso   1.00
N138   N     0.32668   0.37146   0.44656   0.00000  Uiso   1.00
C139   C     0.42296   0.40559   0.81398   0.00000  Uiso   1.00
C140   C     0.45517   0.42533   0.74541   0.00000  Uiso   1.00
C141   C     0.56970   0.40924   0.71650   0.00000  Uiso   1.00
C142   C     0.58041   0.43197   0.65339   0.00000  Uiso   1.00
C143   C     0.64563   0.45690   0.55194   0.00000  Uiso   1.00
C144   C     0.25373   0.37342   0.83809   0.00000  Uiso   1.00
C145   C     0.19890   0.31370   0.88710   0.00000  Uiso   1.00
C146   C     0.04003   0.29274   0.90201   0.00000  Uiso   1.00
C147   C     0.79251   0.23710   0.94447   0.00000  Uiso   1.00
C148   C     0.43342   0.46529   0.81686   0.00000  Uiso   1.00
C149   C     0.52965   0.48280   0.84805   0.00000  Uiso   1.00
C150   C     0.52204   0.53919   0.84510   0.00000  Uiso   1.00
C151   C     0.55352   0.62618   0.85461   0.00000  Uiso   1.00
C152   C     0.23831   0.47458   0.75331   0.00000  Uiso   1.00
C153   C     0.35487   0.46280   0.71246   0.00000  Uiso   1.00
C154   C     0.36541   0.48556   0.64938   0.00000  Uiso   1.00
C155   C     0.47994   0.46951   0.62037   0.00000  Uiso   1.00
C156   C     0.15344   0.41089   0.80514   0.00000  Uiso   1.00
C157   C     0.99461   0.39002   0.81998   0.00000  Uiso   1.00
C158   C     0.93955   0.33028   0.86900   0.00000  Uiso   1.00
C159   C     0.33313   0.50276   0.78391   0.00000  Uiso   1.00
C160   C     0.32536   0.55913   0.78092   0.00000  Uiso   1.00
C161   C     0.42156   0.57673   0.81209   0.00000  Uiso   1.00
H162   H     0.50103   0.37642   0.83964   0.00000  Uiso   1.00
H163   H     0.64728   0.38024   0.74202   0.00000  Uiso   1.00
H164   H     0.27654   0.28472   0.91260   0.00000  Uiso   1.00
H165   H     0.60724   0.45379   0.87354   0.00000  Uiso   1.00
H166   H     0.76516   0.40098   0.61926   0.00000  Uiso   1.00
H167   H     0.98343   0.19957   0.97895   0.00000  Uiso   1.00
H168   H     0.68078   0.55611   0.89660   0.00000  Uiso   1.00
H169   H     0.16022   0.50375   0.72765   0.00000  Uiso   1.00
H170   H     0.28778   0.51456   0.62389   0.00000  Uiso   1.00
H171   H     0.91703   0.41903   0.79447   0.00000  Uiso   1.00
H172   H     0.24774   0.58811   0.75542   0.00000  Uiso   1.00
H173   H     0.47338   0.51000   0.52338   0.00000  Uiso   1.00
H174   H     0.69164   0.30859   0.88308   0.00000  Uiso   1.00
H175   H     0.38899   0.66513   0.80072   0.00000  Uiso   1.00
O176   O     0.70930   0.46028   0.50509   0.00000  Uiso   1.00
O177   O     0.68369   0.19605   0.97699   0.00000  Uiso   1.00
O178   O     0.59860   0.66382   0.86895   0.00000  Uiso   1.00
N179   N     0.67901   0.42516   0.61093   0.00000  Uiso   1.00
N180   N     0.94813   0.23686   0.94722   0.00000  Uiso   1.00
N181   N     0.60007   0.57018   0.87024   0.00000  Uiso   1.00
N182   N     0.52200   0.48382   0.55934   0.00000  Uiso   1.00
N183   N     0.79112   0.29552   0.89562   0.00000  Uiso   1.00
N184   N     0.44306   0.62884   0.81865   0.00000  Uiso   1.00
C185   C     0.23603   0.81318   0.78094   0.00000  Uiso   1.00
C186   C     0.20158   0.74458   0.82966   0.00000  Uiso   1.00
C187   C     0.28781   0.71526   0.87478   0.00000  Uiso   1.00
C188   C     0.23720   0.65219   0.91502   0.00000  Uiso   1.00
C189   C     0.20376   0.55062   0.99140   0.00000  Uiso   1.00
C190   C     0.09057   0.83799   0.78869   0.00000  Uiso   1.00
C191   C     0.08347   0.88721   0.79936   0.00000  Uiso   1.00
C192   C     0.93940   0.90278   0.80510   0.00000  Uiso   1.00
C193   C     0.73364   0.94626   0.81783   0.00000  Uiso   1.00
C194   C     0.24925   0.81596   0.71847   0.00000  Uiso   1.00
C195   C     0.37555   0.84667   0.67009   0.00000  Uiso   1.00
C196   C     0.36508   0.84370   0.61670   0.00000  Uiso   1.00
C197   C     0.40569   0.85297   0.52041   0.00000  Uiso   1.00
C198   C     0.99281   0.75332   0.77216   0.00000  Uiso   1.00
C199   C     0.06947   0.71207   0.82488   0.00000  Uiso   1.00
C200   C     0.01872   0.64902   0.86506   0.00000  Uiso   1.00
C201   C     0.10486   0.61961   0.91024   0.00000  Uiso   1.00
C202   C     0.95846   0.80548   0.78392   0.00000  Uiso   1.00
C203   C     0.81438   0.82098   0.78964   0.00000  Uiso   1.00
C204   C     0.80706   0.87020   0.80032   0.00000  Uiso   1.00
C205   C     0.11715   0.78344   0.71369   0.00000  Uiso   1.00
C206   C     0.10646   0.78043   0.66037   0.00000  Uiso   1.00
C207   C     0.23273   0.81113   0.61192   0.00000  Uiso   1.00
H208   H     0.33887   0.83850   0.78466   0.00000  Uiso   1.00
H209   H     0.39003   0.74044   0.87846   0.00000  Uiso   1.00
H210   H     0.18572   0.91237   0.80304   0.00000  Uiso   1.00
H211   H     0.47776   0.87183   0.67380   0.00000  Uiso   1.00
H212   H     0.38846   0.61738   0.98037   0.00000  Uiso   1.00
H213   H     0.95767   0.97992   0.82132   0.00000  Uiso   1.00
H214   H     0.57350   0.89443   0.54878   0.00000  Uiso   1.00
H215   H     0.88995   0.72800   0.76844   0.00000  Uiso   1.00
H216   H     0.91648   0.62387   0.86136   0.00000  Uiso   1.00
H217   H     0.71217   0.79581   0.78594   0.00000  Uiso   1.00
H218   H     0.00422   0.75526   0.65669   0.00000  Uiso   1.00
H219   H     0.00411   0.52277   0.96649   0.00000  Uiso   1.00
H220   H     0.57332   0.88531   0.80744   0.00000  Uiso   1.00
H221   H     0.18915   0.79982   0.53490   0.00000  Uiso   1.00
O222   O     0.22180   0.50358   0.03486   0.00000  Uiso   1.00
O223   O     0.65664   0.97922   0.82618   0.00000  Uiso   1.00
O224   O     0.46460   0.86706   0.46862   0.00000  Uiso   1.00
N225   N     0.29438   0.60940   0.96434   0.00000  Uiso   1.00
N226   N     0.89161   0.94835   0.81565   0.00000  Uiso   1.00
N227   N     0.46735   0.86844   0.56085   0.00000  Uiso   1.00
N228   N     0.08756   0.55850   0.95687   0.00000  Uiso   1.00
N229   N     0.68480   0.89744   0.80818   0.00000  Uiso   1.00
N230   N     0.26053   0.81753   0.55338   0.00000  Uiso   1.00
C231   C     0.02321   0.78051   0.40578   0.00000  Uiso   1.00
C232   C     0.03616   0.82935   0.42566   0.00000  Uiso   1.00
C233   C     0.16605   0.87407   0.41013   0.00000  Uiso   1.00
C234   C     0.15464   0.91452   0.43290   0.00000  Uiso   1.00
C235   C     0.19549   0.99101   0.45811   0.00000  Uiso   1.00
C236   C     0.88555   0.78882   0.37299   0.00000  Uiso   1.00
C237   C     0.88880   0.79945   0.31319   0.00000  Uiso   1.00
C238   C     0.75060   0.80576   0.29163   0.00000  Uiso   1.00
C239   C     0.55759   0.81929   0.23509   0.00000  Uiso   1.00
C240   C     0.97573   0.71809   0.46532   0.00000  Uiso   1.00
C241   C     0.05479   0.66923   0.48314   0.00000  Uiso   1.00
C242   C     0.99249   0.61598   0.53931   0.00000  Uiso   1.00
C243   C     0.93951   0.51968   0.62613   0.00000  Uiso   1.00
C244   C     0.77197   0.77282   0.47383   0.00000  Uiso   1.00
C245   C     0.89970   0.82517   0.46262   0.00000  Uiso   1.00
C246   C     0.88809   0.86556   0.48542   0.00000  Uiso   1.00
C247   C     0.01794   0.91033   0.46993   0.00000  Uiso   1.00
C248   C     0.74909   0.78464   0.40995   0.00000  Uiso   1.00
C249   C     0.61084   0.79094   0.38847   0.00000  Uiso   1.00
C250   C     0.61389   0.80158   0.32865   0.00000  Uiso   1.00
C251   C     0.83927   0.71391   0.50229   0.00000  Uiso   1.00
C252   C     0.77683   0.66072   0.55843   0.00000  Uiso   1.00
C253   C     0.85578   0.61180   0.57634   0.00000  Uiso   1.00
H254   H     0.12944   0.78376   0.37701   0.00000  Uiso   1.00
H255   H     0.27163   0.87729   0.38152   0.00000  Uiso   1.00
H256   H     0.99442   0.80268   0.28460   0.00000  Uiso   1.00
H257   H     0.16039   0.67248   0.45453   0.00000  Uiso   1.00
H258   H     0.36907   0.97916   0.40281   0.00000  Uiso   1.00
H259   H     0.78455   0.82180   0.19845   0.00000  Uiso   1.00
H260   H     0.13452   0.54726   0.55678   0.00000  Uiso   1.00
H261   H     0.66572   0.76956   0.50261   0.00000  Uiso   1.00
H262   H     0.78247   0.86232   0.51402   0.00000  Uiso   1.00
H263   H     0.50526   0.78770   0.41709   0.00000  Uiso   1.00
H264   H     0.67123   0.65750   0.58702   0.00000  Uiso   1.00
H265   H     0.97205   0.96701   0.51035   0.00000  Uiso   1.00
H266   H     0.38753   0.80965   0.30599   0.00000  Uiso   1.00
H267   H     0.73750   0.53511   0.66432   0.00000  Uiso   1.00
O268   O     0.25572   0.03437   0.46180   0.00000  Uiso   1.00
O269   O     0.48884   0.82791   0.19369   0.00000  Uiso   1.00
O270   O     0.94800   0.46772   0.66382   0.00000  Uiso   1.00
N271   N     0.25962   0.96356   0.42657   0.00000  Uiso   1.00
N272   N     0.71314   0.81646   0.23549   0.00000  Uiso   1.00
N273   N     0.04031   0.55977   0.57050   0.00000  Uiso   1.00
N274   N     0.04599   0.95702   0.48443   0.00000  Uiso   1.00
N275   N     0.49950   0.80991   0.29336   0.00000  Uiso   1.00
N276   N     0.82668   0.55323   0.62836   0.00000  Uiso   1.00
