data_job_06589
_audit_creation_date              2018-12-19
_audit_creation_method            'Materials Studio'
_symmetry_space_group_name_H-M    'P1'
_symmetry_Int_Tables_number       1
_symmetry_cell_setting            triclinic
loop_
_symmetry_equiv_pos_as_xyz
  x,y,z
_cell_length_a                    16.6938
_cell_length_b                    21.3568
_cell_length_c                    23.8074
_cell_angle_alpha                 106.8900
_cell_angle_beta                  89.5840
_cell_angle_gamma                 112.0020
loop_
_atom_site_label
_atom_site_type_symbol
_atom_site_fract_x
_atom_site_fract_y
_atom_site_fract_z
_atom_site_U_iso_or_equiv
_atom_site_adp_type
_atom_site_occupancy
C1     C     0.28579   0.83386   0.96238   0.00000  Uiso   1.00
C2     C     0.28092   0.84416   0.90193   0.00000  Uiso   1.00
C3     C     0.22027   0.79771   0.85380   0.00000  Uiso   1.00
C4     C     0.22678   0.81670   0.80240   0.00000  Uiso   1.00
C5     C     0.20937   0.82307   0.70899   0.00000  Uiso   1.00
C6     C     0.37729   0.83747   0.97433   0.00000  Uiso   1.00
C7     C     0.39766   0.78539   0.98708   0.00000  Uiso   1.00
C8     C     0.48530   0.79876   0.99663   0.00000  Uiso   1.00
C9     C     0.61752   0.79476   0.01567   0.00000  Uiso   1.00
C10    C     0.28100   0.89968   0.00697   0.00000  Uiso   1.00
C11    C     0.22043   0.89991   0.04719   0.00000  Uiso   1.00
C12    C     0.22701   0.96566   0.08423   0.00000  Uiso   1.00
C13    C     0.20972   0.05825   0.15396   0.00000  Uiso   1.00
C14    C     0.40520   0.95021   0.95667   0.00000  Uiso   1.00
C15    C     0.34578   0.90736   0.89883   0.00000  Uiso   1.00
C16    C     0.35238   0.92643   0.84749   0.00000  Uiso   1.00
C17    C     0.29175   0.88002   0.79929   0.00000  Uiso   1.00
C18    C     0.44215   0.90066   0.97123   0.00000  Uiso   1.00
C19    C     0.52978   0.91412   0.98077   0.00000  Uiso   1.00
C20    C     0.55028   0.86207   0.99353   0.00000  Uiso   1.00
C21    C     0.34586   0.96288   0.00387   0.00000  Uiso   1.00
C22    C     0.35255   0.02864   0.04087   0.00000  Uiso   1.00
C23    C     0.29199   0.02897   0.08113   0.00000  Uiso   1.00
H24    H     0.23530   0.78466   0.96479   0.00000  Uiso   1.00
H25    H     0.17009   0.74880   0.85621   0.00000  Uiso   1.00
H26    H     0.34745   0.73649   0.98948   0.00000  Uiso   1.00
H27    H     0.17025   0.85099   0.04957   0.00000  Uiso   1.00
H28    H     0.12641   0.73690   0.73446   0.00000  Uiso   1.00
H29    H     0.50040   0.71096   0.01548   0.00000  Uiso   1.00
H30    H     0.12672   0.95241   0.14220   0.00000  Uiso   1.00
H31    H     0.45571   0.99941   0.95426   0.00000  Uiso   1.00
H32    H     0.40259   0.97534   0.84510   0.00000  Uiso   1.00
H33    H     0.57996   0.96303   0.97837   0.00000  Uiso   1.00
H34    H     0.40275   0.07753   0.03846   0.00000  Uiso   1.00
H35    H     0.31512   0.92077   0.72544   0.00000  Uiso   1.00
H36    H     0.68911   0.89483   0.00646   0.00000  Uiso   1.00
H37    H     0.31543   0.13628   0.13318   0.00000  Uiso   1.00
O38    O     0.18186   0.80912   0.65833   0.00000  Uiso   1.00
O39    O     0.67252   0.77508   0.02703   0.00000  Uiso   1.00
O40    O     0.18226   0.09186   0.19327   0.00000  Uiso   1.00
N41    N     0.17810   0.78349   0.74732   0.00000  Uiso   1.00
N42    N     0.52776   0.75922   0.01005   0.00000  Uiso   1.00
N43    N     0.17842   0.98496   0.12853   0.00000  Uiso   1.00
N44    N     0.27964   0.88243   0.74247   0.00000  Uiso   1.00
N45    N     0.62930   0.85816   0.00520   0.00000  Uiso   1.00
N46    N     0.27996   0.08390   0.12368   0.00000  Uiso   1.00
C47    C     0.11919   0.47459   0.11363   0.00000  Uiso   1.00
C48    C     0.02003   0.44171   0.10476   0.00000  Uiso   1.00
C49    C     0.96821   0.42659   0.05338   0.00000  Uiso   1.00
C50    C     0.87882   0.39657   0.05414   0.00000  Uiso   1.00
C51    C     0.73037   0.34772   0.03271   0.00000  Uiso   1.00
C52    C     0.14447   0.54106   0.16717   0.00000  Uiso   1.00
C53    C     0.19727   0.60948   0.16827   0.00000  Uiso   1.00
C54    C     0.21264   0.66309   0.22158   0.00000  Uiso   1.00
C55    C     0.25742   0.76849   0.29706   0.00000  Uiso   1.00
C56    C     0.14743   0.42289   0.13252   0.00000  Uiso   1.00
C57    C     0.20274   0.39197   0.10448   0.00000  Uiso   1.00
C58    C     0.22062   0.34610   0.12863   0.00000  Uiso   1.00
C59    C     0.27000   0.26802   0.15030   0.00000  Uiso   1.00
C60    C     0.05260   0.44814   0.20637   0.00000  Uiso   1.00
C61    C     0.98387   0.42734   0.15513   0.00000  Uiso   1.00
C62    C     0.89454   0.39732   0.15597   0.00000  Uiso   1.00
C63    C     0.84259   0.38217   0.10460   0.00000  Uiso   1.00
C64    C     0.10830   0.52669   0.21754   0.00000  Uiso   1.00
C65    C     0.12360   0.58021   0.27087   0.00000  Uiso   1.00
C66    C     0.17641   0.64870   0.27204   0.00000  Uiso   1.00
C67    C     0.11126   0.40852   0.18289   0.00000  Uiso   1.00
C68    C     0.12907   0.36270   0.20708   0.00000  Uiso   1.00
C69    C     0.18439   0.33171   0.17909   0.00000  Uiso   1.00
H70    H     0.14734   0.48579   0.07442   0.00000  Uiso   1.00
H71    H     0.99622   0.43773   0.01441   0.00000  Uiso   1.00
H72    H     0.22525   0.62059   0.12928   0.00000  Uiso   1.00
H73    H     0.23071   0.40310   0.06551   0.00000  Uiso   1.00
H74    H     0.81272   0.37814   0.97009   0.00000  Uiso   1.00
H75    H     0.29568   0.76370   0.21232   0.00000  Uiso   1.00
H76    H     0.30720   0.30510   0.07783   0.00000  Uiso   1.00
H77    H     0.02445   0.43695   0.24558   0.00000  Uiso   1.00
H78    H     0.86657   0.38621   0.19496   0.00000  Uiso   1.00
H79    H     0.09561   0.56907   0.30984   0.00000  Uiso   1.00
H80    H     0.10107   0.35159   0.24606   0.00000  Uiso   1.00
H81    H     0.70749   0.33632   0.11664   0.00000  Uiso   1.00
H82    H     0.19045   0.72189   0.35886   0.00000  Uiso   1.00
H83    H     0.20197   0.26328   0.22438   0.00000  Uiso   1.00
O84    O     0.65847   0.32476   0.00698   0.00000  Uiso   1.00
O85    O     0.29210   0.83059   0.32477   0.00000  Uiso   1.00
O86    O     0.30721   0.22892   0.14833   0.00000  Uiso   1.00
N87    N     0.80962   0.37525   0.01152   0.00000  Uiso   1.00
N88    N     0.26115   0.73572   0.23799   0.00000  Uiso   1.00
N89    N     0.27193   0.30699   0.11227   0.00000  Uiso   1.00
N90    N     0.75300   0.35275   0.09038   0.00000  Uiso   1.00
N91    N     0.20452   0.71322   0.31684   0.00000  Uiso   1.00
N92    N     0.21531   0.28449   0.19112   0.00000  Uiso   1.00
C93    C     0.89809   0.96419   0.37791   0.00000  Uiso   1.00
C94    C     0.96952   0.93785   0.38487   0.00000  Uiso   1.00
C95    C     0.95858   0.87688   0.39924   0.00000  Uiso   1.00
C96    C     0.03203   0.86199   0.40351   0.00000  Uiso   1.00
C97    C     0.13057   0.81434   0.41583   0.00000  Uiso   1.00
C98    C     0.92868   0.03957   0.42056   0.00000  Uiso   1.00
C99    C     0.88338   0.06412   0.46493   0.00000  Uiso   1.00
C100   C     0.92244   0.13487   0.49924   0.00000  Uiso   1.00
C101   C     0.95754   0.24516   0.56695   0.00000  Uiso   1.00
C102   C     0.89881   0.97134   0.31600   0.00000  Uiso   1.00
C103   C     0.82839   0.93853   0.27245   0.00000  Uiso   1.00
C104   C     0.84230   0.95184   0.21873   0.00000  Uiso   1.00
C105   C     0.83101   0.95618   0.12408   0.00000  Uiso   1.00
C106   C     0.04800   0.04618   0.35995   0.00000  Uiso   1.00
C107   C     0.05095   0.98239   0.37511   0.00000  Uiso   1.00
C108   C     0.12443   0.96759   0.37936   0.00000  Uiso   1.00
C109   C     0.11360   0.90660   0.39374   0.00000  Uiso   1.00
C110   C     0.01010   0.08411   0.41081   0.00000  Uiso   1.00
C111   C     0.04923   0.15484   0.44506   0.00000  Uiso   1.00
C112   C     0.00401   0.17949   0.48947   0.00000  Uiso   1.00
C113   C     0.98023   0.01587   0.30624   0.00000  Uiso   1.00
C114   C     0.99424   0.02924   0.25258   0.00000  Uiso   1.00
C115   C     0.92386   0.99646   0.20896   0.00000  Uiso   1.00
H116   H     0.83470   0.92952   0.38551   0.00000  Uiso   1.00
H117   H     0.89556   0.84243   0.40679   0.00000  Uiso   1.00
H118   H     0.82037   0.02965   0.47247   0.00000  Uiso   1.00
H119   H     0.76539   0.90407   0.28001   0.00000  Uiso   1.00
H120   H     0.99895   0.76552   0.42610   0.00000  Uiso   1.00
H121   H     0.84039   0.16029   0.56458   0.00000  Uiso   1.00
H122   H     0.72445   0.89549   0.15875   0.00000  Uiso   1.00
H123   H     0.11139   0.08086   0.35235   0.00000  Uiso   1.00
H124   H     0.18743   0.00207   0.37181   0.00000  Uiso   1.00
H125   H     0.11224   0.18929   0.43750   0.00000  Uiso   1.00
H126   H     0.05726   0.06371   0.24504   0.00000  Uiso   1.00
H127   H     0.23584   0.89509   0.39772   0.00000  Uiso   1.00
H128   H     0.07728   0.28986   0.53619   0.00000  Uiso   1.00
H129   H     0.96134   0.02506   0.13037   0.00000  Uiso   1.00
O130   O     0.16243   0.77576   0.42533   0.00000  Uiso   1.00
O131   O     0.95440   0.29368   0.60699   0.00000  Uiso   1.00
O132   O     0.80229   0.94626   0.07456   0.00000  Uiso   1.00
N133   N     0.04426   0.80682   0.41674   0.00000  Uiso   1.00
N134   N     0.89603   0.17591   0.54621   0.00000  Uiso   1.00
N135   N     0.78762   0.92835   0.16680   0.00000  Uiso   1.00
N136   N     0.17173   0.87654   0.40147   0.00000  Uiso   1.00
N137   N     0.02350   0.24563   0.53094   0.00000  Uiso   1.00
N138   N     0.91510   0.99807   0.15153   0.00000  Uiso   1.00
C139   C     0.87694   0.46579   0.41560   0.00000  Uiso   1.00
C140   C     0.89163   0.39691   0.39238   0.00000  Uiso   1.00
C141   C     0.88430   0.35821   0.33333   0.00000  Uiso   1.00
C142   C     0.90038   0.29664   0.32119   0.00000  Uiso   1.00
C143   C     0.91981   0.19306   0.27824   0.00000  Uiso   1.00
C144   C     0.96046   0.52033   0.45421   0.00000  Uiso   1.00
C145   C     0.01098   0.58540   0.44716   0.00000  Uiso   1.00
C146   C     0.08499   0.62772   0.48708   0.00000  Uiso   1.00
C147   C     0.21123   0.71577   0.54016   0.00000  Uiso   1.00
C148   C     0.80723   0.45235   0.45739   0.00000  Uiso   1.00
C149   C     0.72893   0.46027   0.45302   0.00000  Uiso   1.00
C150   C     0.67394   0.44536   0.49562   0.00000  Uiso   1.00
C151   C     0.56227   0.42786   0.55362   0.00000  Uiso   1.00
C152   C     0.91852   0.42525   0.49904   0.00000  Uiso   1.00
C153   C     0.91422   0.37490   0.43770   0.00000  Uiso   1.00
C154   C     0.93031   0.31336   0.42565   0.00000  Uiso   1.00
C155   C     0.92301   0.27457   0.36659   0.00000  Uiso   1.00
C156   C     0.98305   0.49832   0.49954   0.00000  Uiso   1.00
C157   C     0.05699   0.54055   0.53948   0.00000  Uiso   1.00
C158   C     0.10762   0.60566   0.53248   0.00000  Uiso   1.00
C159   C     0.82981   0.43032   0.50271   0.00000  Uiso   1.00
C160   C     0.77494   0.41541   0.54533   0.00000  Uiso   1.00
C161   C     0.69657   0.42331   0.54102   0.00000  Uiso   1.00
H162   H     0.85935   0.48294   0.38032   0.00000  Uiso   1.00
H163   H     0.86683   0.37528   0.29827   0.00000  Uiso   1.00
H164   H     0.99348   0.60243   0.41209   0.00000  Uiso   1.00
H165   H     0.71147   0.47731   0.41794   0.00000  Uiso   1.00
H166   H     0.88511   0.24622   0.22729   0.00000  Uiso   1.00
H167   H     0.15215   0.72519   0.46729   0.00000  Uiso   1.00
H168   H     0.55747   0.46136   0.47963   0.00000  Uiso   1.00
H169   H     0.93611   0.40811   0.53433   0.00000  Uiso   1.00
H170   H     0.94779   0.29633   0.46073   0.00000  Uiso   1.00
H171   H     0.07445   0.52349   0.57455   0.00000  Uiso   1.00
H172   H     0.79244   0.39837   0.58040   0.00000  Uiso   1.00
H173   H     0.95083   0.18215   0.35915   0.00000  Uiso   1.00
H174   H     0.21787   0.66113   0.59915   0.00000  Uiso   1.00
H175   H     0.62319   0.39729   0.61149   0.00000  Uiso   1.00
O176   O     0.92430   0.14202   0.24202   0.00000  Uiso   1.00
O177   O     0.27463   0.77042   0.55690   0.00000  Uiso   1.00
O178   O     0.49443   0.42428   0.57309   0.00000  Uiso   1.00
N179   N     0.89895   0.24647   0.26842   0.00000  Uiso   1.00
N180   N     0.14863   0.69428   0.49281   0.00000  Uiso   1.00
N181   N     0.59266   0.44764   0.50435   0.00000  Uiso   1.00
N182   N     0.93432   0.21199   0.33938   0.00000  Uiso   1.00
N183   N     0.18399   0.65980   0.56376   0.00000  Uiso   1.00
N184   N     0.62803   0.41316   0.57530   0.00000  Uiso   1.00
C185   C     0.36372   0.33858   0.90380   0.00000  Uiso   1.00
C186   C     0.33982   0.40291   0.92793   0.00000  Uiso   1.00
C187   C     0.25755   0.40340   0.92132   0.00000  Uiso   1.00
C188   C     0.24909   0.46760   0.94668   0.00000  Uiso   1.00
C189   C     0.20113   0.55813   0.97948   0.00000  Uiso   1.00
C190   C     0.40475   0.33040   0.95685   0.00000  Uiso   1.00
C191   C     0.37708   0.26991   0.97455   0.00000  Uiso   1.00
C192   C     0.42328   0.27307   0.02425   0.00000  Uiso   1.00
C193   C     0.47616   0.25101   0.10193   0.00000  Uiso   1.00
C194   C     0.43654   0.35998   0.86555   0.00000  Uiso   1.00
C195   C     0.43560   0.32435   0.80649   0.00000  Uiso   1.00
C196   C     0.50858   0.35241   0.77933   0.00000  Uiso   1.00
C197   C     0.61081   0.37628   0.71525   0.00000  Uiso   1.00
C198   C     0.49499   0.45175   0.96060   0.00000  Uiso   1.00
C199   C     0.41113   0.46438   0.95878   0.00000  Uiso   1.00
C200   C     0.40279   0.52860   0.98416   0.00000  Uiso   1.00
C201   C     0.32052   0.52918   0.97759   0.00000  Uiso   1.00
C202   C     0.47605   0.39186   0.98770   0.00000  Uiso   1.00
C203   C     0.52231   0.39511   0.03739   0.00000  Uiso   1.00
C204   C     0.49471   0.33465   0.05516   0.00000  Uiso   1.00
C205   C     0.50784   0.42145   0.89640   0.00000  Uiso   1.00
C206   C     0.58083   0.44956   0.86933   0.00000  Uiso   1.00
C207   C     0.58001   0.41399   0.81024   0.00000  Uiso   1.00
H208   H     0.30821   0.29072   0.87978   0.00000  Uiso   1.00
H209   H     0.20239   0.35581   0.89744   0.00000  Uiso   1.00
H210   H     0.32190   0.22235   0.95066   0.00000  Uiso   1.00
H211   H     0.38041   0.27679   0.78263   0.00000  Uiso   1.00
H212   H     0.11650   0.45508   0.93065   0.00000  Uiso   1.00
H213   H     0.36852   0.17365   0.04285   0.00000  Uiso   1.00
H214   H     0.49190   0.28845   0.68852   0.00000  Uiso   1.00
H215   H     0.55050   0.49960   0.98462   0.00000  Uiso   1.00
H216   H     0.45798   0.57616   0.00803   0.00000  Uiso   1.00
H217   H     0.57749   0.44269   0.06125   0.00000  Uiso   1.00
H218   H     0.63600   0.49713   0.89322   0.00000  Uiso   1.00
H219   H     0.32395   0.63392   0.02041   0.00000  Uiso   1.00
H220   H     0.57597   0.35249   0.13261   0.00000  Uiso   1.00
H221   H     0.69935   0.46729   0.77828   0.00000  Uiso   1.00
O222   O     0.15498   0.59108   0.98906   0.00000  Uiso   1.00
O223   O     0.48563   0.22186   0.13625   0.00000  Uiso   1.00
O224   O     0.64750   0.37247   0.67138   0.00000  Uiso   1.00
N225   N     0.17802   0.48667   0.94855   0.00000  Uiso   1.00
N226   N     0.41364   0.22355   0.05346   0.00000  Uiso   1.00
N227   N     0.52900   0.33087   0.72219   0.00000  Uiso   1.00
N228   N     0.28965   0.58290   0.99685   0.00000  Uiso   1.00
N229   N     0.52526   0.31978   0.10176   0.00000  Uiso   1.00
N230   N     0.64063   0.42710   0.77049   0.00000  Uiso   1.00
C231   C     0.57093   0.72810   0.61968   0.00000  Uiso   1.00
C232   C     0.65491   0.73727   0.59107   0.00000  Uiso   1.00
C233   C     0.66350   0.69277   0.53791   0.00000  Uiso   1.00
C234   C     0.74582   0.71028   0.51928   0.00000  Uiso   1.00
C235   C     0.86539   0.71543   0.46977   0.00000  Uiso   1.00
C236   C     0.55775   0.79712   0.62874   0.00000  Uiso   1.00
C237   C     0.48464   0.80295   0.60726   0.00000  Uiso   1.00
C238   C     0.48517   0.87085   0.62035   0.00000  Uiso   1.00
C239   C     0.45387   0.96891   0.62936   0.00000  Uiso   1.00
C240   C     0.58985   0.72545   0.68132   0.00000  Uiso   1.00
C241   C     0.54372   0.67102   0.70406   0.00000  Uiso   1.00
C242   C     0.57126   0.67858   0.76143   0.00000  Uiso   1.00
C243   C     0.58980   0.66537   0.85208   0.00000  Uiso   1.00
C244   C     0.70184   0.83832   0.68112   0.00000  Uiso   1.00
C245   C     0.72601   0.79713   0.62445   0.00000  Uiso   1.00
C246   C     0.80834   0.81471   0.60589   0.00000  Uiso   1.00
C247   C     0.81706   0.77025   0.55272   0.00000  Uiso   1.00
C248   C     0.62885   0.85699   0.66211   0.00000  Uiso   1.00
C249   C     0.62948   0.92489   0.67524   0.00000  Uiso   1.00
C250   C     0.55641   0.93082   0.65378   0.00000  Uiso   1.00
C251   C     0.66095   0.78531   0.71470   0.00000  Uiso   1.00
C252   C     0.68857   0.79296   0.77204   0.00000  Uiso   1.00
C253   C     0.64250   0.73856   0.79486   0.00000  Uiso   1.00
H254   H     0.51557   0.68150   0.59370   0.00000  Uiso   1.00
H255   H     0.60845   0.64645   0.51210   0.00000  Uiso   1.00
H256   H     0.42962   0.75661   0.58144   0.00000  Uiso   1.00
H257   H     0.48870   0.62471   0.67822   0.00000  Uiso   1.00
H258   H     0.74279   0.63402   0.43634   0.00000  Uiso   1.00
H259   H     0.36570   0.86629   0.58257   0.00000  Uiso   1.00
H260   H     0.49027   0.58814   0.78666   0.00000  Uiso   1.00
H261   H     0.75720   0.88493   0.70710   0.00000  Uiso   1.00
H262   H     0.86336   0.86104   0.63173   0.00000  Uiso   1.00
H263   H     0.68452   0.97120   0.70107   0.00000  Uiso   1.00
H264   H     0.74359   0.83930   0.79785   0.00000  Uiso   1.00
H265   H     0.94968   0.80819   0.53343   0.00000  Uiso   1.00
H266   H     0.57258   0.04046   0.67966   0.00000  Uiso   1.00
H267   H     0.69715   0.76231   0.88375   0.00000  Uiso   1.00
O268   O     0.91170   0.70174   0.43324   0.00000  Uiso   1.00
O269   O     0.41696   0.00647   0.62510   0.00000  Uiso   1.00
O270   O     0.58039   0.64153   0.89286   0.00000  Uiso   1.00
N271   N     0.77692   0.67828   0.46954   0.00000  Uiso   1.00
N272   N     0.42437   0.89544   0.60625   0.00000  Uiso   1.00
N273   N     0.54081   0.63540   0.79706   0.00000  Uiso   1.00
N274   N     0.88824   0.77200   0.52178   0.00000  Uiso   1.00
N275   N     0.53569   0.98916   0.65849   0.00000  Uiso   1.00
N276   N     0.65213   0.72912   0.84930   0.00000  Uiso   1.00
C277   C     0.85297   0.19043   0.02399   0.00000  Uiso   1.00
C278   C     0.79473   0.16231   0.06814   0.00000  Uiso   1.00
C279   C     0.77883   0.20349   0.12040   0.00000  Uiso   1.00
C280   C     0.72359   0.16766   0.15473   0.00000  Uiso   1.00
C281   C     0.63889   0.13530   0.22591   0.00000  Uiso   1.00
C282   C     0.79613   0.15822   0.96481   0.00000  Uiso   1.00
C283   C     0.78144   0.19596   0.93019   0.00000  Uiso   1.00
C284   C     0.72738   0.15668   0.87754   0.00000  Uiso   1.00
C285   C     0.64492   0.11797   0.78828   0.00000  Uiso   1.00
C286   C     0.92017   0.15698   0.01710   0.00000  Uiso   1.00
C287   C     0.00976   0.19368   0.02643   0.00000  Uiso   1.00
C288   C     0.06014   0.15337   0.01779   0.00000  Uiso   1.00
C289   C     0.17026   0.11274   0.00972   0.00000  Uiso   1.00
C290   C     0.78311   0.05358   0.99202   0.00000  Uiso   1.00
C291   C     0.75678   0.08798   0.05078   0.00000  Uiso   1.00
C292   C     0.70155   0.05208   0.08503   0.00000  Uiso   1.00
C293   C     0.68558   0.09320   0.13734   0.00000  Uiso   1.00
C294   C     0.75819   0.08389   0.94745   0.00000  Uiso   1.00
C295   C     0.70415   0.04455   0.89483   0.00000  Uiso   1.00
C296   C     0.68937   0.08222   0.86014   0.00000  Uiso   1.00
C297   C     0.88223   0.08265   0.99974   0.00000  Uiso   1.00
C298   C     0.93247   0.04227   0.99107   0.00000  Uiso   1.00
C299   C     0.02213   0.07890   0.00039   0.00000  Uiso   1.00
H300   H     0.88251   0.24830   0.03750   0.00000  Uiso   1.00
H301   H     0.80820   0.26101   0.13382   0.00000  Uiso   1.00
H302   H     0.81082   0.25348   0.94364   0.00000  Uiso   1.00
H303   H     0.03910   0.25120   0.03987   0.00000  Uiso   1.00
H304   H     0.70907   0.24232   0.23294   0.00000  Uiso   1.00
H305   H     0.71460   0.22644   0.83192   0.00000  Uiso   1.00
H306   H     0.19599   0.22165   0.03484   0.00000  Uiso   1.00
H307   H     0.75357   0.99571   0.97850   0.00000  Uiso   1.00
H308   H     0.67219   0.99456   0.07159   0.00000  Uiso   1.00
H309   H     0.67480   0.98703   0.88140   0.00000  Uiso   1.00
H310   H     0.90309   0.98475   0.97763   0.00000  Uiso   1.00
H311   H     0.59867   0.02606   0.18242   0.00000  Uiso   1.00
H312   H     0.60421   0.01018   0.78141   0.00000  Uiso   1.00
H313   H     0.08559   0.00538   0.98433   0.00000  Uiso   1.00
O314   O     0.60264   0.13799   0.26997   0.00000  Uiso   1.00
O315   O     0.60991   0.11715   0.74385   0.00000  Uiso   1.00
O316   O     0.24148   0.11087   0.01007   0.00000  Uiso   1.00
N317   N     0.69427   0.19158   0.20828   0.00000  Uiso   1.00
N318   N     0.69943   0.17673   0.83336   0.00000  Uiso   1.00
N319   N     0.14949   0.17225   0.02305   0.00000  Uiso   1.00
N320   N     0.63487   0.07521   0.18110   0.00000  Uiso   1.00
N321   N     0.64003   0.06036   0.80618   0.00000  Uiso   1.00
N322   N     0.09008   0.05588   0.99588   0.00000  Uiso   1.00
C323   C     0.06300   0.82104   0.17913   0.00000  Uiso   1.00
C324   C     0.15614   0.83030   0.16771   0.00000  Uiso   1.00
C325   C     0.23037   0.88970   0.19528   0.00000  Uiso   1.00
C326   C     0.30956   0.88782   0.17871   0.00000  Uiso   1.00
C327   C     0.45347   0.91119   0.16749   0.00000  Uiso   1.00
C328   C     0.02442   0.75333   0.19658   0.00000  Uiso   1.00
C329   C     0.98790   0.74802   0.24841   0.00000  Uiso   1.00
C330   C     0.95619   0.68134   0.25613   0.00000  Uiso   1.00
C331   C     0.89555   0.58521   0.28969   0.00000  Uiso   1.00
C332   C     0.01434   0.80479   0.11934   0.00000  Uiso   1.00
C333   C     0.96931   0.84274   0.10623   0.00000  Uiso   1.00
C334   C     0.92909   0.81938   0.04893   0.00000  Uiso   1.00
C335   C     0.85280   0.80316   0.96257   0.00000  Uiso   1.00
C336   C     0.07162   0.71206   0.10067   0.00000  Uiso   1.00
C337   C     0.16082   0.77110   0.12510   0.00000  Uiso   1.00
C338   C     0.23991   0.76913   0.10848   0.00000  Uiso   1.00
C339   C     0.31425   0.82852   0.13602   0.00000  Uiso   1.00
C340   C     0.02910   0.69414   0.15396   0.00000  Uiso   1.00
C341   C     0.99743   0.62745   0.16160   0.00000  Uiso   1.00
C342   C     0.96088   0.62204   0.21344   0.00000  Uiso   1.00
C343   C     0.01902   0.74560   0.07672   0.00000  Uiso   1.00
C344   C     0.97886   0.72217   0.01942   0.00000  Uiso   1.00
C345   C     0.93378   0.76008   0.00623   0.00000  Uiso   1.00
H346   H     0.05935   0.86712   0.21231   0.00000  Uiso   1.00
H347   H     0.22672   0.93549   0.22827   0.00000  Uiso   1.00
H348   H     0.98428   0.79383   0.28138   0.00000  Uiso   1.00
H349   H     0.96570   0.88855   0.13922   0.00000  Uiso   1.00
H350   H     0.41435   0.98519   0.22718   0.00000  Uiso   1.00
H351   H     0.90311   0.68649   0.33916   0.00000  Uiso   1.00
H352   H     0.86394   0.88621   0.03940   0.00000  Uiso   1.00
H353   H     0.07526   0.66597   0.06749   0.00000  Uiso   1.00
H354   H     0.24351   0.72331   0.07549   0.00000  Uiso   1.00
H355   H     0.00106   0.58165   0.12861   0.00000  Uiso   1.00
H356   H     0.98249   0.67637   0.98646   0.00000  Uiso   1.00
H357   H     0.42798   0.81298   0.10318   0.00000  Uiso   1.00
H358   H     0.91674   0.51427   0.21517   0.00000  Uiso   1.00
H359   H     0.87757   0.71399   0.91541   0.00000  Uiso   1.00
O360   O     0.53156   0.94042   0.17308   0.00000  Uiso   1.00
O361   O     0.86082   0.54854   0.31999   0.00000  Uiso   1.00
O362   O     0.80943   0.81057   0.92671   0.00000  Uiso   1.00
N363   N     0.39447   0.93680   0.19689   0.00000  Uiso   1.00
N364   N     0.91650   0.65753   0.30159   0.00000  Uiso   1.00
N365   N     0.87986   0.84424   0.02134   0.00000  Uiso   1.00
N366   N     0.40180   0.84413   0.13017   0.00000  Uiso   1.00
N367   N     0.92384   0.56486   0.23487   0.00000  Uiso   1.00
N368   N     0.88719   0.75157   0.95462   0.00000  Uiso   1.00
C369   C     0.14054   0.03197   0.78855   0.00000  Uiso   1.00
C370   C     0.09554   0.08342   0.81066   0.00000  Uiso   1.00
C371   C     0.12818   0.14610   0.85746   0.00000  Uiso   1.00
C372   C     0.07709   0.18578   0.87077   0.00000  Uiso   1.00
C373   C     0.01954   0.26908   0.91000   0.00000  Uiso   1.00
C374   C     0.14734   0.02445   0.72320   0.00000  Uiso   1.00
C375   C     0.22354   0.03754   0.69647   0.00000  Uiso   1.00
C376   C     0.21606   0.02757   0.63616   0.00000  Uiso   1.00
C377   C     0.23892   0.01927   0.53960   0.00000  Uiso   1.00
C378   C     0.07678   0.95996   0.79096   0.00000  Uiso   1.00
C379   C     0.09365   0.91880   0.82119   0.00000  Uiso   1.00
C380   C     0.02676   0.85452   0.81791   0.00000  Uiso   1.00
C381   C     0.94007   0.74607   0.82656   0.00000  Uiso   1.00
C382   C     0.99177   0.99099   0.72896   0.00000  Uiso   1.00
C383   C     0.01474   0.06117   0.77828   0.00000  Uiso   1.00
C384   C     0.96358   0.10076   0.79153   0.00000  Uiso   1.00
C385   C     0.99614   0.16349   0.83835   0.00000  Uiso   1.00
C386   C     0.06654   0.00220   0.69083   0.00000  Uiso   1.00
C387   C     0.05895   0.99221   0.63054   0.00000  Uiso   1.00
C388   C     0.13511   0.00528   0.60373   0.00000  Uiso   1.00
C389   C     0.99597   0.93770   0.75859   0.00000  Uiso   1.00
C390   C     0.92905   0.87347   0.75526   0.00000  Uiso   1.00
C391   C     0.94581   0.83222   0.78548   0.00000  Uiso   1.00
H392   H     0.20345   0.04929   0.81375   0.00000  Uiso   1.00
H393   H     0.19072   0.16330   0.88250   0.00000  Uiso   1.00
H394   H     0.28606   0.05476   0.72153   0.00000  Uiso   1.00
H395   H     0.15619   0.93604   0.84623   0.00000  Uiso   1.00
H396   H     0.14099   0.27990   0.94443   0.00000  Uiso   1.00
H397   H     0.34202   0.05100   0.60502   0.00000  Uiso   1.00
H398   H     0.06816   0.80066   0.86798   0.00000  Uiso   1.00
H399   H     0.92886   0.97367   0.70376   0.00000  Uiso   1.00
H400   H     0.90106   0.08353   0.76647   0.00000  Uiso   1.00
H401   H     0.99640   0.97498   0.60551   0.00000  Uiso   1.00
H402   H     0.86653   0.85626   0.73021   0.00000  Uiso   1.00
H403   H     0.90589   0.21516   0.85026   0.00000  Uiso   1.00
H404   H     0.10692   0.98625   0.51085   0.00000  Uiso   1.00
H405   H     0.83306   0.73591   0.77381   0.00000  Uiso   1.00
O406   O     0.01012   0.32118   0.94058   0.00000  Uiso   1.00
O407   O     0.27386   0.02085   0.49528   0.00000  Uiso   1.00
O408   O     0.91456   0.69241   0.84028   0.00000  Uiso   1.00
N409   N     0.08946   0.24958   0.91367   0.00000  Uiso   1.00
N410   N     0.27742   0.03558   0.59634   0.00000  Uiso   1.00
N411   N     0.02139   0.80152   0.84217   0.00000  Uiso   1.00
N412   N     0.96296   0.21474   0.86300   0.00000  Uiso   1.00
N413   N     0.15091   0.00074   0.54567   0.00000  Uiso   1.00
N414   N     0.89488   0.76668   0.79150   0.00000  Uiso   1.00
C415   C     0.25432   0.57803   0.80685   0.00000  Uiso   1.00
C416   C     0.30847   0.64506   0.79161   0.00000  Uiso   1.00
C417   C     0.37271   0.70530   0.82955   0.00000  Uiso   1.00
C418   C     0.41478   0.76101   0.80721   0.00000  Uiso   1.00
C419   C     0.50210   0.86578   0.79242   0.00000  Uiso   1.00
C420   C     0.15954   0.56646   0.79426   0.00000  Uiso   1.00
C421   C     0.09855   0.56061   0.83442   0.00000  Uiso   1.00
C422   C     0.01524   0.55014   0.81431   0.00000  Uiso   1.00
C423   C     0.87132   0.53284   0.80361   0.00000  Uiso   1.00
C424   C     0.26787   0.51695   0.76127   0.00000  Uiso   1.00
C425   C     0.29794   0.46946   0.77368   0.00000  Uiso   1.00
C426   C     0.30583   0.41730   0.72578   0.00000  Uiso   1.00
C427   C     0.33011   0.32312   0.66386   0.00000  Uiso   1.00
C428   C     0.21481   0.56983   0.69973   0.00000  Uiso   1.00
C429   C     0.28701   0.64061   0.73343   0.00000  Uiso   1.00
C430   C     0.32900   0.69624   0.71103   0.00000  Uiso   1.00
C431   C     0.39329   0.75655   0.74893   0.00000  Uiso   1.00
C432   C     0.13808   0.56201   0.73608   0.00000  Uiso   1.00
C433   C     0.05484   0.55155   0.71591   0.00000  Uiso   1.00
C434   C     0.99374   0.54569   0.75602   0.00000  Uiso   1.00
C435   C     0.24641   0.51250   0.70308   0.00000  Uiso   1.00
C436   C     0.25424   0.46040   0.65516   0.00000  Uiso   1.00
C437   C     0.28433   0.41284   0.66750   0.00000  Uiso   1.00
H438   H     0.27102   0.58149   0.85215   0.00000  Uiso   1.00
H439   H     0.38929   0.70873   0.87457   0.00000  Uiso   1.00
H440   H     0.11517   0.56405   0.87944   0.00000  Uiso   1.00
H441   H     0.31454   0.47292   0.81870   0.00000  Uiso   1.00
H442   H     0.51093   0.84784   0.87378   0.00000  Uiso   1.00
H443   H     0.93293   0.54275   0.88404   0.00000  Uiso   1.00
H444   H     0.35334   0.35058   0.75597   0.00000  Uiso   1.00
H445   H     0.19811   0.56637   0.65443   0.00000  Uiso   1.00
H446   H     0.31238   0.69278   0.66601   0.00000  Uiso   1.00
H447   H     0.03826   0.54810   0.67088   0.00000  Uiso   1.00
H448   H     0.23763   0.45697   0.61014   0.00000  Uiso   1.00
H449   H     0.44850   0.83490   0.70451   0.00000  Uiso   1.00
H450   H     0.87050   0.52981   0.71476   0.00000  Uiso   1.00
H451   H     0.29091   0.33764   0.58670   0.00000  Uiso   1.00
O452   O     0.55618   0.92481   0.80033   0.00000  Uiso   1.00
O453   O     0.79787   0.52453   0.81379   0.00000  Uiso   1.00
O454   O     0.34944   0.27242   0.64577   0.00000  Uiso   1.00
N455   N     0.48057   0.82744   0.83235   0.00000  Uiso   1.00
N456   N     0.94017   0.54221   0.84194   0.00000  Uiso   1.00
N457   N     0.33320   0.36254   0.72221   0.00000  Uiso   1.00
N458   N     0.44698   0.82048   0.74127   0.00000  Uiso   1.00
N459   N     0.90658   0.53525   0.75086   0.00000  Uiso   1.00
N460   N     0.29961   0.35558   0.63113   0.00000  Uiso   1.00
C461   C     0.53546   0.58835   0.32551   0.00000  Uiso   1.00
C462   C     0.55743   0.52304   0.30131   0.00000  Uiso   1.00
C463   C     0.63909   0.52120   0.30729   0.00000  Uiso   1.00
C464   C     0.64574   0.45627   0.28196   0.00000  Uiso   1.00
C465   C     0.69088   0.36412   0.24894   0.00000  Uiso   1.00
C466   C     0.49435   0.59682   0.27265   0.00000  Uiso   1.00
C467   C     0.52297   0.65702   0.25454   0.00000  Uiso   1.00
C468   C     0.47651   0.65420   0.20510   0.00000  Uiso   1.00
C469   C     0.42368   0.67661   0.12761   0.00000  Uiso   1.00
C470   C     0.46320   0.56840   0.36447   0.00000  Uiso   1.00
C471   C     0.46560   0.60473   0.42356   0.00000  Uiso   1.00
C472   C     0.39291   0.57799   0.45142   0.00000  Uiso   1.00
C473   C     0.29171   0.55629   0.51650   0.00000  Uiso   1.00
C474   C     0.40208   0.47629   0.26990   0.00000  Uiso   1.00
C475   C     0.48498   0.46217   0.27110   0.00000  Uiso   1.00
C476   C     0.49151   0.39722   0.24576   0.00000  Uiso   1.00
C477   C     0.57316   0.39529   0.25170   0.00000  Uiso   1.00
C478   C     0.42190   0.53595   0.24244   0.00000  Uiso   1.00
C479   C     0.37539   0.53304   0.19301   0.00000  Uiso   1.00
C480   C     0.40393   0.59322   0.17483   0.00000  Uiso   1.00
C481   C     0.39075   0.50753   0.33426   0.00000  Uiso   1.00
C482   C     0.31803   0.48074   0.36203   0.00000  Uiso   1.00
C483   C     0.32032   0.51702   0.42116   0.00000  Uiso   1.00
H484   H     0.59187   0.63574   0.34903   0.00000  Uiso   1.00
H485   H     0.69514   0.56832   0.33066   0.00000  Uiso   1.00
H486   H     0.57903   0.70412   0.27793   0.00000  Uiso   1.00
H487   H     0.52168   0.65183   0.44692   0.00000  Uiso   1.00
H488   H     0.77769   0.46674   0.29696   0.00000  Uiso   1.00
H489   H     0.53285   0.75308   0.18578   0.00000  Uiso   1.00
H490   H     0.41192   0.64283   0.54214   0.00000  Uiso   1.00
H491   H     0.34567   0.42890   0.24638   0.00000  Uiso   1.00
H492   H     0.43543   0.35013   0.22238   0.00000  Uiso   1.00
H493   H     0.31932   0.48593   0.16965   0.00000  Uiso   1.00
H494   H     0.26197   0.43364   0.33865   0.00000  Uiso   1.00
H495   H     0.56690   0.28965   0.20907   0.00000  Uiso   1.00
H496   H     0.32206   0.57599   0.09790   0.00000  Uiso   1.00
H497   H     0.20113   0.46573   0.45426   0.00000  Uiso   1.00
O498   O     0.73580   0.33011   0.23906   0.00000  Uiso   1.00
O499   O     0.41457   0.70579   0.09322   0.00000  Uiso   1.00
O500   O     0.25591   0.56113   0.56075   0.00000  Uiso   1.00
N501   N     0.71576   0.43587   0.27958   0.00000  Uiso   1.00
N502   N     0.48686   0.70358   0.17563   0.00000  Uiso   1.00
N503   N     0.37378   0.60051   0.50879   0.00000  Uiso   1.00
N504   N     0.60234   0.34057   0.23229   0.00000  Uiso   1.00
N505   N     0.37344   0.60828   0.12834   0.00000  Uiso   1.00
N506   N     0.26036   0.50521   0.46150   0.00000  Uiso   1.00
C507   C     0.64604   0.19039   0.43639   0.00000  Uiso   1.00
C508   C     0.65608   0.19498   0.50125   0.00000  Uiso   1.00
C509   C     0.73077   0.23634   0.54067   0.00000  Uiso   1.00
C510   C     0.72682   0.23317   0.59811   0.00000  Uiso   1.00
C511   C     0.75398   0.24682   0.69617   0.00000  Uiso   1.00
C512   C     0.61737   0.11194   0.40131   0.00000  Uiso   1.00
C513   C     0.65951   0.08348   0.35671   0.00000  Uiso   1.00
C514   C     0.62296   0.01040   0.33001   0.00000  Uiso   1.00
C515   C     0.58999   0.89514   0.27289   0.00000  Uiso   1.00
C516   C     0.56883   0.20997   0.42845   0.00000  Uiso   1.00
C517   C     0.57013   0.26393   0.40666   0.00000  Uiso   1.00
C518   C     0.49270   0.27337   0.40280   0.00000  Uiso   1.00
C519   C     0.38436   0.31031   0.38783   0.00000  Uiso   1.00
C520   C     0.50620   0.11120   0.46827   0.00000  Uiso   1.00
C521   C     0.58013   0.15197   0.51856   0.00000  Uiso   1.00
C522   C     0.57606   0.14874   0.57595   0.00000  Uiso   1.00
C523   C     0.65072   0.19009   0.61546   0.00000  Uiso   1.00
C524   C     0.54142   0.06893   0.41862   0.00000  Uiso   1.00
C525   C     0.50479   0.99588   0.39198   0.00000  Uiso   1.00
C526   C     0.54686   0.96732   0.34735   0.00000  Uiso   1.00
C527   C     0.49287   0.16696   0.44577   0.00000  Uiso   1.00
C528   C     0.41542   0.17632   0.44194   0.00000  Uiso   1.00
C529   C     0.41661   0.23029   0.42015   0.00000  Uiso   1.00
H530   H     0.70517   0.22386   0.42290   0.00000  Uiso   1.00
H531   H     0.78954   0.26961   0.52725   0.00000  Uiso   1.00
H532   H     0.71828   0.11678   0.34331   0.00000  Uiso   1.00
H533   H     0.62892   0.29720   0.39326   0.00000  Uiso   1.00
H534   H     0.84959   0.30135   0.65058   0.00000  Uiso   1.00
H535   H     0.69932   0.97909   0.26271   0.00000  Uiso   1.00
H536   H     0.51090   0.35954   0.36804   0.00000  Uiso   1.00
H537   H     0.44706   0.07772   0.48175   0.00000  Uiso   1.00
H538   H     0.51727   0.11545   0.58934   0.00000  Uiso   1.00
H539   H     0.44601   0.96261   0.40539   0.00000  Uiso   1.00
H540   H     0.35666   0.14303   0.45535   0.00000  Uiso   1.00
H541   H     0.62861   0.17622   0.70097   0.00000  Uiso   1.00
H542   H     0.47834   0.85396   0.31310   0.00000  Uiso   1.00
H543   H     0.28991   0.23441   0.41843   0.00000  Uiso   1.00
O544   O     0.78995   0.26622   0.74548   0.00000  Uiso   1.00
O545   O     0.59280   0.84344   0.23660   0.00000  Uiso   1.00
O546   O     0.34559   0.34257   0.37480   0.00000  Uiso   1.00
N547   N     0.78795   0.26673   0.64768   0.00000  Uiso   1.00
N548   N     0.64746   0.96544   0.28505   0.00000  Uiso   1.00
N549   N     0.47129   0.32111   0.38351   0.00000  Uiso   1.00
N550   N     0.66904   0.19940   0.67479   0.00000  Uiso   1.00
N551   N     0.52855   0.89811   0.31216   0.00000  Uiso   1.00
N552   N     0.35238   0.25378   0.41062   0.00000  Uiso   1.00
