data_job_02418
_audit_creation_date              2018-12-19
_audit_creation_method            'Materials Studio'
_symmetry_space_group_name_H-M    'P1'
_symmetry_Int_Tables_number       1
_symmetry_cell_setting            triclinic
loop_
_symmetry_equiv_pos_as_xyz
  x,y,z
_cell_length_a                    22.9167
_cell_length_b                    22.9167
_cell_length_c                    9.6003
_cell_angle_alpha                 90.0000
_cell_angle_beta                  90.0000
_cell_angle_gamma                 90.0000
loop_
_atom_site_label
_atom_site_type_symbol
_atom_site_fract_x
_atom_site_fract_y
_atom_site_fract_z
_atom_site_U_iso_or_equiv
_atom_site_adp_type
_atom_site_occupancy
C1     C     0.27124   0.57701   0.71794   0.00000  Uiso   1.00
C2     C     0.25036   0.51554   0.75275   0.00000  Uiso   1.00
C3     C     0.27836   0.47648   0.84070   0.00000  Uiso   1.00
C4     C     0.25225   0.42236   0.85898   0.00000  Uiso   1.00
C5     C     0.22778   0.32910   0.92322   0.00000  Uiso   1.00
C6     C     0.27628   0.57947   0.55966   0.00000  Uiso   1.00
C7     C     0.32608   0.59417   0.48526   0.00000  Uiso   1.00
C8     C     0.32178   0.59386   0.34100   0.00000  Uiso   1.00
C9     C     0.33754   0.59989   0.10546   0.00000  Uiso   1.00
C10    C     0.22118   0.61776   0.75649   0.00000  Uiso   1.00
C11    C     0.22465   0.66466   0.84755   0.00000  Uiso   1.00
C12    C     0.17395   0.69661   0.86898   0.00000  Uiso   1.00
C13    C     0.10416   0.76209   0.93904   0.00000  Uiso   1.00
C14    C     0.17505   0.55035   0.59404   0.00000  Uiso   1.00
C15    C     0.19811   0.50106   0.68545   0.00000  Uiso   1.00
C16    C     0.17194   0.44698   0.70362   0.00000  Uiso   1.00
C17    C     0.19990   0.40785   0.79157   0.00000  Uiso   1.00
C18    C     0.22403   0.56498   0.49236   0.00000  Uiso   1.00
C19    C     0.21966   0.56466   0.34818   0.00000  Uiso   1.00
C20    C     0.26944   0.57935   0.27358   0.00000  Uiso   1.00
C21    C     0.16893   0.60327   0.68919   0.00000  Uiso   1.00
C22    C     0.11822   0.63516   0.71047   0.00000  Uiso   1.00
C23    C     0.12161   0.68210   0.80156   0.00000  Uiso   1.00
H24    H     0.31192   0.58829   0.77032   0.00000  Uiso   1.00
H25    H     0.31880   0.48770   0.89275   0.00000  Uiso   1.00
H26    H     0.36650   0.60538   0.53737   0.00000  Uiso   1.00
H27    H     0.26509   0.67586   0.89960   0.00000  Uiso   1.00
H28    H     0.30340   0.36979   0.99876   0.00000  Uiso   1.00
H29    H     0.40398   0.61793   0.24942   0.00000  Uiso   1.00
H30    H     0.19012   0.76656   0.01327   0.00000  Uiso   1.00
H31    H     0.13437   0.53907   0.54164   0.00000  Uiso   1.00
H32    H     0.13151   0.43578   0.65152   0.00000  Uiso   1.00
H33    H     0.17921   0.55345   0.29614   0.00000  Uiso   1.00
H34    H     0.07780   0.62394   0.65838   0.00000  Uiso   1.00
H35    H     0.15139   0.32765   0.80296   0.00000  Uiso   1.00
H36    H     0.25197   0.57579   0.05362   0.00000  Uiso   1.00
H37    H     0.03811   0.72441   0.81748   0.00000  Uiso   1.00
O38    O     0.22872   0.28165   0.97723   0.00000  Uiso   1.00
O39    O     0.36068   0.60721   0.99414   0.00000  Uiso   1.00
O40    O     0.08010   0.80220   0.99629   0.00000  Uiso   1.00
N41    N     0.26801   0.37405   0.93762   0.00000  Uiso   1.00
N42    N     0.36205   0.60604   0.23703   0.00000  Uiso   1.00
N43    N     0.16211   0.74500   0.95114   0.00000  Uiso   1.00
N44    N     0.18621   0.35137   0.83227   0.00000  Uiso   1.00
N45    N     0.28025   0.58336   0.13168   0.00000  Uiso   1.00
N46    N     0.08031   0.72232   0.84579   0.00000  Uiso   1.00
C47    C     0.72876   0.42299   0.71794   0.00000  Uiso   1.00
C48    C     0.74964   0.48446   0.75275   0.00000  Uiso   1.00
C49    C     0.72164   0.52352   0.84070   0.00000  Uiso   1.00
C50    C     0.74775   0.57764   0.85898   0.00000  Uiso   1.00
C51    C     0.77222   0.67090   0.92322   0.00000  Uiso   1.00
C52    C     0.72372   0.42053   0.55966   0.00000  Uiso   1.00
C53    C     0.67392   0.40583   0.48526   0.00000  Uiso   1.00
C54    C     0.67822   0.40614   0.34100   0.00000  Uiso   1.00
C55    C     0.66246   0.40011   0.10546   0.00000  Uiso   1.00
C56    C     0.77882   0.38224   0.75649   0.00000  Uiso   1.00
C57    C     0.77535   0.33534   0.84755   0.00000  Uiso   1.00
C58    C     0.82605   0.30339   0.86898   0.00000  Uiso   1.00
C59    C     0.89584   0.23791   0.93904   0.00000  Uiso   1.00
C60    C     0.82495   0.44965   0.59404   0.00000  Uiso   1.00
C61    C     0.80189   0.49894   0.68545   0.00000  Uiso   1.00
C62    C     0.82806   0.55302   0.70362   0.00000  Uiso   1.00
C63    C     0.80010   0.59215   0.79157   0.00000  Uiso   1.00
C64    C     0.77597   0.43502   0.49236   0.00000  Uiso   1.00
C65    C     0.78034   0.43534   0.34818   0.00000  Uiso   1.00
C66    C     0.73056   0.42065   0.27358   0.00000  Uiso   1.00
C67    C     0.83107   0.39673   0.68919   0.00000  Uiso   1.00
C68    C     0.88178   0.36484   0.71047   0.00000  Uiso   1.00
C69    C     0.87839   0.31790   0.80156   0.00000  Uiso   1.00
H70    H     0.68808   0.41171   0.77032   0.00000  Uiso   1.00
H71    H     0.68120   0.51230   0.89275   0.00000  Uiso   1.00
H72    H     0.63350   0.39462   0.53737   0.00000  Uiso   1.00
H73    H     0.73491   0.32414   0.89960   0.00000  Uiso   1.00
H74    H     0.69660   0.63021   0.99876   0.00000  Uiso   1.00
H75    H     0.59602   0.38207   0.24942   0.00000  Uiso   1.00
H76    H     0.80988   0.23344   0.01327   0.00000  Uiso   1.00
H77    H     0.86563   0.46093   0.54164   0.00000  Uiso   1.00
H78    H     0.86849   0.56422   0.65152   0.00000  Uiso   1.00
H79    H     0.82079   0.44655   0.29614   0.00000  Uiso   1.00
H80    H     0.92220   0.37606   0.65838   0.00000  Uiso   1.00
H81    H     0.84861   0.67235   0.80296   0.00000  Uiso   1.00
H82    H     0.74803   0.42421   0.05362   0.00000  Uiso   1.00
H83    H     0.96189   0.27559   0.81748   0.00000  Uiso   1.00
O84    O     0.77128   0.71835   0.97723   0.00000  Uiso   1.00
O85    O     0.63932   0.39279   0.99414   0.00000  Uiso   1.00
O86    O     0.91990   0.19780   0.99629   0.00000  Uiso   1.00
N87    N     0.73199   0.62595   0.93762   0.00000  Uiso   1.00
N88    N     0.63795   0.39396   0.23703   0.00000  Uiso   1.00
N89    N     0.83789   0.25500   0.95114   0.00000  Uiso   1.00
N90    N     0.81379   0.64863   0.83227   0.00000  Uiso   1.00
N91    N     0.71975   0.41664   0.13168   0.00000  Uiso   1.00
N92    N     0.91969   0.27768   0.84579   0.00000  Uiso   1.00
C93    C     0.92299   0.77124   0.21794   0.00000  Uiso   1.00
C94    C     0.98446   0.75036   0.25275   0.00000  Uiso   1.00
C95    C     0.02352   0.77836   0.34070   0.00000  Uiso   1.00
C96    C     0.07764   0.75225   0.35898   0.00000  Uiso   1.00
C97    C     0.17090   0.72778   0.42322   0.00000  Uiso   1.00
C98    C     0.92053   0.77628   0.05966   0.00000  Uiso   1.00
C99    C     0.90583   0.82608   0.98526   0.00000  Uiso   1.00
C100   C     0.90614   0.82178   0.84100   0.00000  Uiso   1.00
C101   C     0.90011   0.83754   0.60546   0.00000  Uiso   1.00
C102   C     0.88224   0.72118   0.25649   0.00000  Uiso   1.00
C103   C     0.83534   0.72465   0.34755   0.00000  Uiso   1.00
C104   C     0.80339   0.67395   0.36898   0.00000  Uiso   1.00
C105   C     0.73791   0.60416   0.43904   0.00000  Uiso   1.00
C106   C     0.94965   0.67505   0.09404   0.00000  Uiso   1.00
C107   C     0.99894   0.69811   0.18545   0.00000  Uiso   1.00
C108   C     0.05302   0.67194   0.20362   0.00000  Uiso   1.00
C109   C     0.09215   0.69990   0.29157   0.00000  Uiso   1.00
C110   C     0.93502   0.72403   0.99236   0.00000  Uiso   1.00
C111   C     0.93534   0.71966   0.84818   0.00000  Uiso   1.00
C112   C     0.92065   0.76944   0.77358   0.00000  Uiso   1.00
C113   C     0.89673   0.66893   0.18919   0.00000  Uiso   1.00
C114   C     0.86484   0.61822   0.21047   0.00000  Uiso   1.00
C115   C     0.81790   0.62161   0.30156   0.00000  Uiso   1.00
H116   H     0.91171   0.81192   0.27032   0.00000  Uiso   1.00
H117   H     0.01230   0.81880   0.39275   0.00000  Uiso   1.00
H118   H     0.89462   0.86650   0.03737   0.00000  Uiso   1.00
H119   H     0.82414   0.76509   0.39960   0.00000  Uiso   1.00
H120   H     0.13021   0.80340   0.49876   0.00000  Uiso   1.00
H121   H     0.88207   0.90398   0.74942   0.00000  Uiso   1.00
H122   H     0.73344   0.69012   0.51327   0.00000  Uiso   1.00
H123   H     0.96093   0.63437   0.04164   0.00000  Uiso   1.00
H124   H     0.06422   0.63151   0.15152   0.00000  Uiso   1.00
H125   H     0.94655   0.67921   0.79614   0.00000  Uiso   1.00
H126   H     0.87606   0.57780   0.15838   0.00000  Uiso   1.00
H127   H     0.17235   0.65139   0.30296   0.00000  Uiso   1.00
H128   H     0.92421   0.75197   0.55362   0.00000  Uiso   1.00
H129   H     0.77559   0.53811   0.31748   0.00000  Uiso   1.00
O130   O     0.21835   0.72872   0.47723   0.00000  Uiso   1.00
O131   O     0.89279   0.86068   0.49414   0.00000  Uiso   1.00
O132   O     0.69780   0.58010   0.49629   0.00000  Uiso   1.00
N133   N     0.12595   0.76801   0.43762   0.00000  Uiso   1.00
N134   N     0.89396   0.86205   0.73703   0.00000  Uiso   1.00
N135   N     0.75500   0.66211   0.45114   0.00000  Uiso   1.00
N136   N     0.14863   0.68621   0.33227   0.00000  Uiso   1.00
N137   N     0.91664   0.78025   0.63168   0.00000  Uiso   1.00
N138   N     0.77768   0.58031   0.34579   0.00000  Uiso   1.00
C139   C     0.07701   0.22876   0.21794   0.00000  Uiso   1.00
C140   C     0.01554   0.24964   0.25275   0.00000  Uiso   1.00
C141   C     0.97648   0.22164   0.34070   0.00000  Uiso   1.00
C142   C     0.92236   0.24775   0.35898   0.00000  Uiso   1.00
C143   C     0.82910   0.27222   0.42322   0.00000  Uiso   1.00
C144   C     0.07947   0.22372   0.05966   0.00000  Uiso   1.00
C145   C     0.09417   0.17392   0.98526   0.00000  Uiso   1.00
C146   C     0.09386   0.17822   0.84100   0.00000  Uiso   1.00
C147   C     0.09989   0.16246   0.60546   0.00000  Uiso   1.00
C148   C     0.11776   0.27882   0.25649   0.00000  Uiso   1.00
C149   C     0.16466   0.27535   0.34755   0.00000  Uiso   1.00
C150   C     0.19661   0.32605   0.36898   0.00000  Uiso   1.00
C151   C     0.26209   0.39584   0.43904   0.00000  Uiso   1.00
C152   C     0.05035   0.32495   0.09404   0.00000  Uiso   1.00
C153   C     0.00106   0.30189   0.18545   0.00000  Uiso   1.00
C154   C     0.94698   0.32806   0.20362   0.00000  Uiso   1.00
C155   C     0.90785   0.30010   0.29157   0.00000  Uiso   1.00
C156   C     0.06498   0.27597   0.99236   0.00000  Uiso   1.00
C157   C     0.06466   0.28034   0.84818   0.00000  Uiso   1.00
C158   C     0.07935   0.23056   0.77358   0.00000  Uiso   1.00
C159   C     0.10327   0.33107   0.18919   0.00000  Uiso   1.00
C160   C     0.13516   0.38178   0.21047   0.00000  Uiso   1.00
C161   C     0.18210   0.37839   0.30156   0.00000  Uiso   1.00
H162   H     0.08829   0.18808   0.27032   0.00000  Uiso   1.00
H163   H     0.98770   0.18120   0.39275   0.00000  Uiso   1.00
H164   H     0.10538   0.13350   0.03737   0.00000  Uiso   1.00
H165   H     0.17586   0.23491   0.39960   0.00000  Uiso   1.00
H166   H     0.86979   0.19660   0.49876   0.00000  Uiso   1.00
H167   H     0.11793   0.09602   0.74942   0.00000  Uiso   1.00
H168   H     0.26656   0.30988   0.51327   0.00000  Uiso   1.00
H169   H     0.03907   0.36563   0.04164   0.00000  Uiso   1.00
H170   H     0.93578   0.36849   0.15152   0.00000  Uiso   1.00
H171   H     0.05345   0.32079   0.79614   0.00000  Uiso   1.00
H172   H     0.12394   0.42220   0.15838   0.00000  Uiso   1.00
H173   H     0.82765   0.34861   0.30296   0.00000  Uiso   1.00
H174   H     0.07579   0.24803   0.55362   0.00000  Uiso   1.00
H175   H     0.22441   0.46189   0.31748   0.00000  Uiso   1.00
O176   O     0.78165   0.27128   0.47723   0.00000  Uiso   1.00
O177   O     0.10721   0.13932   0.49414   0.00000  Uiso   1.00
O178   O     0.30220   0.41990   0.49629   0.00000  Uiso   1.00
N179   N     0.87405   0.23199   0.43762   0.00000  Uiso   1.00
N180   N     0.10604   0.13795   0.73703   0.00000  Uiso   1.00
N181   N     0.24500   0.33789   0.45114   0.00000  Uiso   1.00
N182   N     0.85137   0.31379   0.33227   0.00000  Uiso   1.00
N183   N     0.08336   0.21975   0.63168   0.00000  Uiso   1.00
N184   N     0.22232   0.41969   0.34579   0.00000  Uiso   1.00
C185   C     0.22876   0.92299   0.78206   0.00000  Uiso   1.00
C186   C     0.24964   0.98446   0.74725   0.00000  Uiso   1.00
C187   C     0.22164   0.02352   0.65930   0.00000  Uiso   1.00
C188   C     0.24775   0.07764   0.64102   0.00000  Uiso   1.00
C189   C     0.27222   0.17090   0.57678   0.00000  Uiso   1.00
C190   C     0.22372   0.92053   0.94034   0.00000  Uiso   1.00
C191   C     0.17392   0.90583   0.01474   0.00000  Uiso   1.00
C192   C     0.17822   0.90614   0.15900   0.00000  Uiso   1.00
C193   C     0.16246   0.90011   0.39454   0.00000  Uiso   1.00
C194   C     0.27882   0.88224   0.74351   0.00000  Uiso   1.00
C195   C     0.27535   0.83534   0.65245   0.00000  Uiso   1.00
C196   C     0.32605   0.80339   0.63102   0.00000  Uiso   1.00
C197   C     0.39584   0.73791   0.56096   0.00000  Uiso   1.00
C198   C     0.32495   0.94965   0.90596   0.00000  Uiso   1.00
C199   C     0.30189   0.99894   0.81455   0.00000  Uiso   1.00
C200   C     0.32806   0.05302   0.79638   0.00000  Uiso   1.00
C201   C     0.30010   0.09215   0.70843   0.00000  Uiso   1.00
C202   C     0.27597   0.93502   0.00764   0.00000  Uiso   1.00
C203   C     0.28034   0.93534   0.15182   0.00000  Uiso   1.00
C204   C     0.23056   0.92065   0.22642   0.00000  Uiso   1.00
C205   C     0.33107   0.89673   0.81081   0.00000  Uiso   1.00
C206   C     0.38178   0.86484   0.78953   0.00000  Uiso   1.00
C207   C     0.37839   0.81790   0.69844   0.00000  Uiso   1.00
H208   H     0.18808   0.91171   0.72968   0.00000  Uiso   1.00
H209   H     0.18120   0.01230   0.60725   0.00000  Uiso   1.00
H210   H     0.13350   0.89462   0.96263   0.00000  Uiso   1.00
H211   H     0.23491   0.82414   0.60040   0.00000  Uiso   1.00
H212   H     0.19660   0.13021   0.50124   0.00000  Uiso   1.00
H213   H     0.09602   0.88207   0.25058   0.00000  Uiso   1.00
H214   H     0.30988   0.73344   0.48673   0.00000  Uiso   1.00
H215   H     0.36563   0.96093   0.95836   0.00000  Uiso   1.00
H216   H     0.36849   0.06422   0.84848   0.00000  Uiso   1.00
H217   H     0.32079   0.94655   0.20386   0.00000  Uiso   1.00
H218   H     0.42220   0.87606   0.84162   0.00000  Uiso   1.00
H219   H     0.34861   0.17235   0.69704   0.00000  Uiso   1.00
H220   H     0.24803   0.92421   0.44638   0.00000  Uiso   1.00
H221   H     0.46189   0.77559   0.68252   0.00000  Uiso   1.00
O222   O     0.27128   0.21835   0.52277   0.00000  Uiso   1.00
O223   O     0.13932   0.89279   0.50586   0.00000  Uiso   1.00
O224   O     0.41990   0.69780   0.50371   0.00000  Uiso   1.00
N225   N     0.23199   0.12595   0.56238   0.00000  Uiso   1.00
N226   N     0.13795   0.89396   0.26297   0.00000  Uiso   1.00
N227   N     0.33789   0.75500   0.54886   0.00000  Uiso   1.00
N228   N     0.31379   0.14863   0.66773   0.00000  Uiso   1.00
N229   N     0.21975   0.91664   0.36832   0.00000  Uiso   1.00
N230   N     0.41969   0.77768   0.65421   0.00000  Uiso   1.00
C231   C     0.77124   0.07701   0.78206   0.00000  Uiso   1.00
C232   C     0.75036   0.01554   0.74725   0.00000  Uiso   1.00
C233   C     0.77836   0.97648   0.65930   0.00000  Uiso   1.00
C234   C     0.75225   0.92236   0.64102   0.00000  Uiso   1.00
C235   C     0.72778   0.82910   0.57678   0.00000  Uiso   1.00
C236   C     0.77628   0.07947   0.94034   0.00000  Uiso   1.00
C237   C     0.82608   0.09417   0.01474   0.00000  Uiso   1.00
C238   C     0.82178   0.09386   0.15900   0.00000  Uiso   1.00
C239   C     0.83754   0.09989   0.39454   0.00000  Uiso   1.00
C240   C     0.72118   0.11776   0.74351   0.00000  Uiso   1.00
C241   C     0.72465   0.16466   0.65245   0.00000  Uiso   1.00
C242   C     0.67395   0.19661   0.63102   0.00000  Uiso   1.00
C243   C     0.60416   0.26209   0.56096   0.00000  Uiso   1.00
C244   C     0.67505   0.05035   0.90596   0.00000  Uiso   1.00
C245   C     0.69811   0.00106   0.81455   0.00000  Uiso   1.00
C246   C     0.67194   0.94698   0.79638   0.00000  Uiso   1.00
C247   C     0.69990   0.90785   0.70843   0.00000  Uiso   1.00
C248   C     0.72403   0.06498   0.00764   0.00000  Uiso   1.00
C249   C     0.71966   0.06466   0.15182   0.00000  Uiso   1.00
C250   C     0.76944   0.07935   0.22642   0.00000  Uiso   1.00
C251   C     0.66893   0.10327   0.81081   0.00000  Uiso   1.00
C252   C     0.61822   0.13516   0.78953   0.00000  Uiso   1.00
C253   C     0.62161   0.18210   0.69844   0.00000  Uiso   1.00
H254   H     0.81192   0.08829   0.72968   0.00000  Uiso   1.00
H255   H     0.81880   0.98770   0.60725   0.00000  Uiso   1.00
H256   H     0.86650   0.10538   0.96263   0.00000  Uiso   1.00
H257   H     0.76509   0.17586   0.60040   0.00000  Uiso   1.00
H258   H     0.80340   0.86979   0.50124   0.00000  Uiso   1.00
H259   H     0.90398   0.11793   0.25058   0.00000  Uiso   1.00
H260   H     0.69012   0.26656   0.48673   0.00000  Uiso   1.00
H261   H     0.63437   0.03907   0.95836   0.00000  Uiso   1.00
H262   H     0.63151   0.93578   0.84848   0.00000  Uiso   1.00
H263   H     0.67921   0.05345   0.20386   0.00000  Uiso   1.00
H264   H     0.57780   0.12394   0.84162   0.00000  Uiso   1.00
H265   H     0.65139   0.82765   0.69704   0.00000  Uiso   1.00
H266   H     0.75197   0.07579   0.44638   0.00000  Uiso   1.00
H267   H     0.53811   0.22441   0.68252   0.00000  Uiso   1.00
O268   O     0.72872   0.78165   0.52277   0.00000  Uiso   1.00
O269   O     0.86068   0.10721   0.50586   0.00000  Uiso   1.00
O270   O     0.58010   0.30220   0.50371   0.00000  Uiso   1.00
N271   N     0.76801   0.87405   0.56238   0.00000  Uiso   1.00
N272   N     0.86205   0.10604   0.26297   0.00000  Uiso   1.00
N273   N     0.66211   0.24500   0.54886   0.00000  Uiso   1.00
N274   N     0.68621   0.85137   0.66773   0.00000  Uiso   1.00
N275   N     0.78025   0.08336   0.36832   0.00000  Uiso   1.00
N276   N     0.58031   0.22232   0.65421   0.00000  Uiso   1.00
C277   C     0.57701   0.72876   0.28206   0.00000  Uiso   1.00
C278   C     0.51554   0.74964   0.24725   0.00000  Uiso   1.00
C279   C     0.47648   0.72164   0.15930   0.00000  Uiso   1.00
C280   C     0.42236   0.74775   0.14102   0.00000  Uiso   1.00
C281   C     0.32910   0.77222   0.07678   0.00000  Uiso   1.00
C282   C     0.57947   0.72372   0.44034   0.00000  Uiso   1.00
C283   C     0.59417   0.67392   0.51474   0.00000  Uiso   1.00
C284   C     0.59386   0.67822   0.65900   0.00000  Uiso   1.00
C285   C     0.59989   0.66246   0.89454   0.00000  Uiso   1.00
C286   C     0.61776   0.77882   0.24351   0.00000  Uiso   1.00
C287   C     0.66466   0.77535   0.15245   0.00000  Uiso   1.00
C288   C     0.69661   0.82605   0.13102   0.00000  Uiso   1.00
C289   C     0.76209   0.89584   0.06096   0.00000  Uiso   1.00
C290   C     0.55035   0.82495   0.40596   0.00000  Uiso   1.00
C291   C     0.50106   0.80189   0.31455   0.00000  Uiso   1.00
C292   C     0.44698   0.82806   0.29638   0.00000  Uiso   1.00
C293   C     0.40785   0.80010   0.20843   0.00000  Uiso   1.00
C294   C     0.56498   0.77597   0.50764   0.00000  Uiso   1.00
C295   C     0.56466   0.78034   0.65182   0.00000  Uiso   1.00
C296   C     0.57935   0.73056   0.72642   0.00000  Uiso   1.00
C297   C     0.60327   0.83107   0.31081   0.00000  Uiso   1.00
C298   C     0.63516   0.88178   0.28953   0.00000  Uiso   1.00
C299   C     0.68210   0.87839   0.19844   0.00000  Uiso   1.00
H300   H     0.58829   0.68808   0.22968   0.00000  Uiso   1.00
H301   H     0.48770   0.68120   0.10725   0.00000  Uiso   1.00
H302   H     0.60538   0.63350   0.46263   0.00000  Uiso   1.00
H303   H     0.67586   0.73491   0.10040   0.00000  Uiso   1.00
H304   H     0.36979   0.69660   0.00124   0.00000  Uiso   1.00
H305   H     0.61793   0.59602   0.75058   0.00000  Uiso   1.00
H306   H     0.76656   0.80988   0.98673   0.00000  Uiso   1.00
H307   H     0.53907   0.86563   0.45836   0.00000  Uiso   1.00
H308   H     0.43578   0.86849   0.34848   0.00000  Uiso   1.00
H309   H     0.55345   0.82079   0.70386   0.00000  Uiso   1.00
H310   H     0.62394   0.92220   0.34162   0.00000  Uiso   1.00
H311   H     0.32765   0.84861   0.19704   0.00000  Uiso   1.00
H312   H     0.57579   0.74803   0.94638   0.00000  Uiso   1.00
H313   H     0.72441   0.96189   0.18252   0.00000  Uiso   1.00
O314   O     0.28165   0.77128   0.02277   0.00000  Uiso   1.00
O315   O     0.60721   0.63932   0.00586   0.00000  Uiso   1.00
O316   O     0.80220   0.91990   0.00371   0.00000  Uiso   1.00
N317   N     0.37405   0.73199   0.06238   0.00000  Uiso   1.00
N318   N     0.60604   0.63795   0.76297   0.00000  Uiso   1.00
N319   N     0.74500   0.83789   0.04886   0.00000  Uiso   1.00
N320   N     0.35137   0.81379   0.16773   0.00000  Uiso   1.00
N321   N     0.58336   0.71975   0.86832   0.00000  Uiso   1.00
N322   N     0.72232   0.91969   0.15421   0.00000  Uiso   1.00
C323   C     0.42299   0.27124   0.28206   0.00000  Uiso   1.00
C324   C     0.48446   0.25036   0.24725   0.00000  Uiso   1.00
C325   C     0.52352   0.27836   0.15930   0.00000  Uiso   1.00
C326   C     0.57764   0.25225   0.14102   0.00000  Uiso   1.00
C327   C     0.67090   0.22778   0.07678   0.00000  Uiso   1.00
C328   C     0.42053   0.27628   0.44034   0.00000  Uiso   1.00
C329   C     0.40583   0.32608   0.51474   0.00000  Uiso   1.00
C330   C     0.40614   0.32178   0.65900   0.00000  Uiso   1.00
C331   C     0.40011   0.33754   0.89454   0.00000  Uiso   1.00
C332   C     0.38224   0.22118   0.24351   0.00000  Uiso   1.00
C333   C     0.33534   0.22465   0.15245   0.00000  Uiso   1.00
C334   C     0.30339   0.17395   0.13102   0.00000  Uiso   1.00
C335   C     0.23791   0.10416   0.06096   0.00000  Uiso   1.00
C336   C     0.44965   0.17505   0.40596   0.00000  Uiso   1.00
C337   C     0.49894   0.19811   0.31455   0.00000  Uiso   1.00
C338   C     0.55302   0.17194   0.29638   0.00000  Uiso   1.00
C339   C     0.59215   0.19990   0.20843   0.00000  Uiso   1.00
C340   C     0.43502   0.22403   0.50764   0.00000  Uiso   1.00
C341   C     0.43534   0.21966   0.65182   0.00000  Uiso   1.00
C342   C     0.42065   0.26944   0.72642   0.00000  Uiso   1.00
C343   C     0.39673   0.16893   0.31081   0.00000  Uiso   1.00
C344   C     0.36484   0.11822   0.28953   0.00000  Uiso   1.00
C345   C     0.31790   0.12161   0.19844   0.00000  Uiso   1.00
H346   H     0.41171   0.31192   0.22968   0.00000  Uiso   1.00
H347   H     0.51230   0.31880   0.10725   0.00000  Uiso   1.00
H348   H     0.39462   0.36650   0.46263   0.00000  Uiso   1.00
H349   H     0.32414   0.26509   0.10040   0.00000  Uiso   1.00
H350   H     0.63021   0.30340   0.00124   0.00000  Uiso   1.00
H351   H     0.38207   0.40398   0.75058   0.00000  Uiso   1.00
H352   H     0.23344   0.19012   0.98673   0.00000  Uiso   1.00
H353   H     0.46093   0.13437   0.45836   0.00000  Uiso   1.00
H354   H     0.56422   0.13151   0.34848   0.00000  Uiso   1.00
H355   H     0.44655   0.17921   0.70386   0.00000  Uiso   1.00
H356   H     0.37606   0.07780   0.34162   0.00000  Uiso   1.00
H357   H     0.67235   0.15139   0.19704   0.00000  Uiso   1.00
H358   H     0.42421   0.25197   0.94638   0.00000  Uiso   1.00
H359   H     0.27559   0.03811   0.18252   0.00000  Uiso   1.00
O360   O     0.71835   0.22872   0.02277   0.00000  Uiso   1.00
O361   O     0.39279   0.36068   0.00586   0.00000  Uiso   1.00
O362   O     0.19780   0.08010   0.00371   0.00000  Uiso   1.00
N363   N     0.62595   0.26801   0.06238   0.00000  Uiso   1.00
N364   N     0.39396   0.36205   0.76297   0.00000  Uiso   1.00
N365   N     0.25500   0.16211   0.04886   0.00000  Uiso   1.00
N366   N     0.64863   0.18621   0.16773   0.00000  Uiso   1.00
N367   N     0.41664   0.28025   0.86832   0.00000  Uiso   1.00
N368   N     0.27768   0.08031   0.15421   0.00000  Uiso   1.00
