data_job_03525
_audit_creation_date              2018-12-19
_audit_creation_method            'Materials Studio'
_symmetry_space_group_name_H-M    'P1'
_symmetry_Int_Tables_number       1
_symmetry_cell_setting            triclinic
loop_
_symmetry_equiv_pos_as_xyz
  x,y,z
_cell_length_a                    39.1768
_cell_length_b                    14.4009
_cell_length_c                    12.2698
_cell_angle_alpha                 90.0000
_cell_angle_beta                  105.8535
_cell_angle_gamma                 90.0000
loop_
_atom_site_label
_atom_site_type_symbol
_atom_site_fract_x
_atom_site_fract_y
_atom_site_fract_z
_atom_site_U_iso_or_equiv
_atom_site_adp_type
_atom_site_occupancy
C1     C     0.33633   0.49357   0.49774   0.00000  Uiso   1.00
C2     C     0.36842   0.49820   0.60122   0.00000  Uiso   1.00
C3     C     0.39870   0.55105   0.61048   0.00000  Uiso   1.00
C4     C     0.42511   0.54575   0.71217   0.00000  Uiso   1.00
C5     C     0.47552   0.56144   0.85928   0.00000  Uiso   1.00
C6     C     0.33143   0.39125   0.46522   0.00000  Uiso   1.00
C7     C     0.33061   0.35418   0.36012   0.00000  Uiso   1.00
C8     C     0.32587   0.25886   0.34733   0.00000  Uiso   1.00
C9     C     0.31883   0.10852   0.28327   0.00000  Uiso   1.00
C10    C     0.30436   0.52041   0.53925   0.00000  Uiso   1.00
C11    C     0.28077   0.59193   0.49636   0.00000  Uiso   1.00
C12    C     0.25324   0.60533   0.54588   0.00000  Uiso   1.00
C13    C     0.20418   0.65553   0.59675   0.00000  Uiso   1.00
C14    C     0.32937   0.39018   0.66189   0.00000  Uiso   1.00
C15    C     0.36464   0.44203   0.69038   0.00000  Uiso   1.00
C16    C     0.39101   0.43666   0.79209   0.00000  Uiso   1.00
C17    C     0.42132   0.48949   0.80150   0.00000  Uiso   1.00
C18    C     0.32765   0.33509   0.55438   0.00000  Uiso   1.00
C19    C     0.32291   0.23980   0.54174   0.00000  Uiso   1.00
C20    C     0.32208   0.20260   0.43665   0.00000  Uiso   1.00
C21    C     0.30059   0.46425   0.62841   0.00000  Uiso   1.00
C22    C     0.27308   0.47754   0.67799   0.00000  Uiso   1.00
C23    C     0.24946   0.54907   0.63520   0.00000  Uiso   1.00
H24    H     0.33927   0.53728   0.42831   0.00000  Uiso   1.00
H25    H     0.40162   0.59449   0.54145   0.00000  Uiso   1.00
H26    H     0.33353   0.39766   0.29114   0.00000  Uiso   1.00
H27    H     0.28371   0.63537   0.42737   0.00000  Uiso   1.00
H28    H     0.46908   0.63312   0.70619   0.00000  Uiso   1.00
H29    H     0.32550   0.21810   0.17838   0.00000  Uiso   1.00
H30    H     0.22044   0.71935   0.46563   0.00000  Uiso   1.00
H31    H     0.32643   0.34646   0.73131   0.00000  Uiso   1.00
H32    H     0.38808   0.39319   0.86108   0.00000  Uiso   1.00
H33    H     0.31999   0.19636   0.61076   0.00000  Uiso   1.00
H34    H     0.27017   0.43407   0.74699   0.00000  Uiso   1.00
H35    H     0.45810   0.46974   0.96561   0.00000  Uiso   1.00
H36    H     0.31451   0.05471   0.43779   0.00000  Uiso   1.00
H37    H     0.20945   0.55597   0.72505   0.00000  Uiso   1.00
O38    O     0.50438   0.58559   0.91578   0.00000  Uiso   1.00
O39    O     0.31600   0.04110   0.22331   0.00000  Uiso   1.00
O40    O     0.17816   0.69874   0.60019   0.00000  Uiso   1.00
N41    N     0.45803   0.58827   0.74944   0.00000  Uiso   1.00
N42    N     0.32380   0.20024   0.25597   0.00000  Uiso   1.00
N43    N     0.22557   0.66886   0.52452   0.00000  Uiso   1.00
N44    N     0.45212   0.50036   0.88903   0.00000  Uiso   1.00
N45    N     0.31788   0.11233   0.39557   0.00000  Uiso   1.00
N46    N     0.21966   0.58094   0.66411   0.00000  Uiso   1.00
C47    C     0.83633   0.99357   0.49774   0.00000  Uiso   1.00
C48    C     0.86842   0.99820   0.60122   0.00000  Uiso   1.00
C49    C     0.89870   0.05105   0.61048   0.00000  Uiso   1.00
C50    C     0.92511   0.04575   0.71217   0.00000  Uiso   1.00
C51    C     0.97552   0.06144   0.85928   0.00000  Uiso   1.00
C52    C     0.83143   0.89125   0.46522   0.00000  Uiso   1.00
C53    C     0.83061   0.85418   0.36012   0.00000  Uiso   1.00
C54    C     0.82587   0.75886   0.34733   0.00000  Uiso   1.00
C55    C     0.81883   0.60852   0.28327   0.00000  Uiso   1.00
C56    C     0.80436   0.02041   0.53925   0.00000  Uiso   1.00
C57    C     0.78077   0.09193   0.49636   0.00000  Uiso   1.00
C58    C     0.75324   0.10533   0.54588   0.00000  Uiso   1.00
C59    C     0.70418   0.15553   0.59675   0.00000  Uiso   1.00
C60    C     0.82937   0.89018   0.66189   0.00000  Uiso   1.00
C61    C     0.86464   0.94203   0.69038   0.00000  Uiso   1.00
C62    C     0.89101   0.93666   0.79209   0.00000  Uiso   1.00
C63    C     0.92132   0.98949   0.80150   0.00000  Uiso   1.00
C64    C     0.82765   0.83509   0.55438   0.00000  Uiso   1.00
C65    C     0.82291   0.73980   0.54174   0.00000  Uiso   1.00
C66    C     0.82208   0.70260   0.43665   0.00000  Uiso   1.00
C67    C     0.80059   0.96425   0.62841   0.00000  Uiso   1.00
C68    C     0.77308   0.97754   0.67799   0.00000  Uiso   1.00
C69    C     0.74946   0.04907   0.63520   0.00000  Uiso   1.00
H70    H     0.83927   0.03728   0.42831   0.00000  Uiso   1.00
H71    H     0.90162   0.09449   0.54145   0.00000  Uiso   1.00
H72    H     0.83353   0.89766   0.29114   0.00000  Uiso   1.00
H73    H     0.78371   0.13537   0.42737   0.00000  Uiso   1.00
H74    H     0.96908   0.13312   0.70619   0.00000  Uiso   1.00
H75    H     0.82550   0.71810   0.17838   0.00000  Uiso   1.00
H76    H     0.72044   0.21935   0.46563   0.00000  Uiso   1.00
H77    H     0.82643   0.84646   0.73131   0.00000  Uiso   1.00
H78    H     0.88808   0.89319   0.86108   0.00000  Uiso   1.00
H79    H     0.81999   0.69636   0.61076   0.00000  Uiso   1.00
H80    H     0.77017   0.93407   0.74699   0.00000  Uiso   1.00
H81    H     0.95810   0.96974   0.96561   0.00000  Uiso   1.00
H82    H     0.81451   0.55471   0.43779   0.00000  Uiso   1.00
H83    H     0.70945   0.05597   0.72505   0.00000  Uiso   1.00
O84    O     0.00438   0.08559   0.91578   0.00000  Uiso   1.00
O85    O     0.81600   0.54110   0.22331   0.00000  Uiso   1.00
O86    O     0.67816   0.19874   0.60019   0.00000  Uiso   1.00
N87    N     0.95803   0.08827   0.74944   0.00000  Uiso   1.00
N88    N     0.82380   0.70024   0.25597   0.00000  Uiso   1.00
N89    N     0.72557   0.16886   0.52452   0.00000  Uiso   1.00
N90    N     0.95212   0.00036   0.88903   0.00000  Uiso   1.00
N91    N     0.81788   0.61233   0.39557   0.00000  Uiso   1.00
N92    N     0.71966   0.08094   0.66411   0.00000  Uiso   1.00
C93    C     0.66367   0.49357   0.00226   0.00000  Uiso   1.00
C94    C     0.63158   0.49820   0.89878   0.00000  Uiso   1.00
C95    C     0.60130   0.55105   0.88952   0.00000  Uiso   1.00
C96    C     0.57489   0.54575   0.78783   0.00000  Uiso   1.00
C97    C     0.52448   0.56144   0.64072   0.00000  Uiso   1.00
C98    C     0.66857   0.39125   0.03478   0.00000  Uiso   1.00
C99    C     0.66939   0.35418   0.13988   0.00000  Uiso   1.00
C100   C     0.67413   0.25886   0.15267   0.00000  Uiso   1.00
C101   C     0.68117   0.10852   0.21673   0.00000  Uiso   1.00
C102   C     0.69564   0.52041   0.96075   0.00000  Uiso   1.00
C103   C     0.71923   0.59193   0.00364   0.00000  Uiso   1.00
C104   C     0.74676   0.60533   0.95412   0.00000  Uiso   1.00
C105   C     0.79582   0.65553   0.90325   0.00000  Uiso   1.00
C106   C     0.67063   0.39018   0.83811   0.00000  Uiso   1.00
C107   C     0.63536   0.44203   0.80962   0.00000  Uiso   1.00
C108   C     0.60899   0.43666   0.70791   0.00000  Uiso   1.00
C109   C     0.57868   0.48949   0.69850   0.00000  Uiso   1.00
C110   C     0.67235   0.33509   0.94562   0.00000  Uiso   1.00
C111   C     0.67709   0.23980   0.95826   0.00000  Uiso   1.00
C112   C     0.67792   0.20260   0.06335   0.00000  Uiso   1.00
C113   C     0.69941   0.46425   0.87159   0.00000  Uiso   1.00
C114   C     0.72692   0.47754   0.82201   0.00000  Uiso   1.00
C115   C     0.75054   0.54907   0.86480   0.00000  Uiso   1.00
H116   H     0.66073   0.53728   0.07169   0.00000  Uiso   1.00
H117   H     0.59838   0.59449   0.95855   0.00000  Uiso   1.00
H118   H     0.66647   0.39766   0.20886   0.00000  Uiso   1.00
H119   H     0.71629   0.63537   0.07263   0.00000  Uiso   1.00
H120   H     0.53092   0.63312   0.79381   0.00000  Uiso   1.00
H121   H     0.67450   0.21810   0.32162   0.00000  Uiso   1.00
H122   H     0.77956   0.71935   0.03437   0.00000  Uiso   1.00
H123   H     0.67357   0.34646   0.76869   0.00000  Uiso   1.00
H124   H     0.61192   0.39319   0.63892   0.00000  Uiso   1.00
H125   H     0.68001   0.19636   0.88924   0.00000  Uiso   1.00
H126   H     0.72983   0.43407   0.75301   0.00000  Uiso   1.00
H127   H     0.54190   0.46974   0.53439   0.00000  Uiso   1.00
H128   H     0.68549   0.05471   0.06221   0.00000  Uiso   1.00
H129   H     0.79055   0.55597   0.77495   0.00000  Uiso   1.00
O130   O     0.49562   0.58559   0.58422   0.00000  Uiso   1.00
O131   O     0.68400   0.04110   0.27669   0.00000  Uiso   1.00
O132   O     0.82184   0.69874   0.89981   0.00000  Uiso   1.00
N133   N     0.54197   0.58827   0.75056   0.00000  Uiso   1.00
N134   N     0.67620   0.20024   0.24403   0.00000  Uiso   1.00
N135   N     0.77443   0.66886   0.97548   0.00000  Uiso   1.00
N136   N     0.54788   0.50036   0.61097   0.00000  Uiso   1.00
N137   N     0.68212   0.11233   0.10443   0.00000  Uiso   1.00
N138   N     0.78034   0.58094   0.83589   0.00000  Uiso   1.00
C139   C     0.16367   0.99357   0.00226   0.00000  Uiso   1.00
C140   C     0.13158   0.99820   0.89878   0.00000  Uiso   1.00
C141   C     0.10130   0.05105   0.88952   0.00000  Uiso   1.00
C142   C     0.07489   0.04575   0.78783   0.00000  Uiso   1.00
C143   C     0.02448   0.06144   0.64072   0.00000  Uiso   1.00
C144   C     0.16857   0.89125   0.03478   0.00000  Uiso   1.00
C145   C     0.16939   0.85418   0.13988   0.00000  Uiso   1.00
C146   C     0.17413   0.75886   0.15267   0.00000  Uiso   1.00
C147   C     0.18117   0.60852   0.21673   0.00000  Uiso   1.00
C148   C     0.19564   0.02041   0.96075   0.00000  Uiso   1.00
C149   C     0.21923   0.09193   0.00364   0.00000  Uiso   1.00
C150   C     0.24676   0.10533   0.95412   0.00000  Uiso   1.00
C151   C     0.29582   0.15553   0.90325   0.00000  Uiso   1.00
C152   C     0.17063   0.89018   0.83811   0.00000  Uiso   1.00
C153   C     0.13536   0.94203   0.80962   0.00000  Uiso   1.00
C154   C     0.10899   0.93666   0.70791   0.00000  Uiso   1.00
C155   C     0.07868   0.98949   0.69850   0.00000  Uiso   1.00
C156   C     0.17235   0.83509   0.94562   0.00000  Uiso   1.00
C157   C     0.17709   0.73980   0.95826   0.00000  Uiso   1.00
C158   C     0.17792   0.70260   0.06335   0.00000  Uiso   1.00
C159   C     0.19941   0.96425   0.87159   0.00000  Uiso   1.00
C160   C     0.22692   0.97754   0.82201   0.00000  Uiso   1.00
C161   C     0.25054   0.04907   0.86480   0.00000  Uiso   1.00
H162   H     0.16073   0.03728   0.07169   0.00000  Uiso   1.00
H163   H     0.09838   0.09449   0.95855   0.00000  Uiso   1.00
H164   H     0.16647   0.89766   0.20886   0.00000  Uiso   1.00
H165   H     0.21629   0.13537   0.07263   0.00000  Uiso   1.00
H166   H     0.03092   0.13312   0.79381   0.00000  Uiso   1.00
H167   H     0.17450   0.71810   0.32162   0.00000  Uiso   1.00
H168   H     0.27956   0.21935   0.03437   0.00000  Uiso   1.00
H169   H     0.17357   0.84646   0.76869   0.00000  Uiso   1.00
H170   H     0.11192   0.89319   0.63892   0.00000  Uiso   1.00
H171   H     0.18001   0.69636   0.88924   0.00000  Uiso   1.00
H172   H     0.22983   0.93407   0.75301   0.00000  Uiso   1.00
H173   H     0.04190   0.96974   0.53439   0.00000  Uiso   1.00
H174   H     0.18549   0.55471   0.06221   0.00000  Uiso   1.00
H175   H     0.29055   0.05597   0.77495   0.00000  Uiso   1.00
O176   O     0.99562   0.08559   0.58422   0.00000  Uiso   1.00
O177   O     0.18400   0.54110   0.27669   0.00000  Uiso   1.00
O178   O     0.32184   0.19874   0.89981   0.00000  Uiso   1.00
N179   N     0.04197   0.08827   0.75056   0.00000  Uiso   1.00
N180   N     0.17620   0.70024   0.24403   0.00000  Uiso   1.00
N181   N     0.27443   0.16886   0.97548   0.00000  Uiso   1.00
N182   N     0.04788   0.00036   0.61097   0.00000  Uiso   1.00
N183   N     0.18212   0.61233   0.10443   0.00000  Uiso   1.00
N184   N     0.28034   0.08094   0.83589   0.00000  Uiso   1.00
C185   C     0.66367   0.50643   0.50226   0.00000  Uiso   1.00
C186   C     0.63158   0.50180   0.39878   0.00000  Uiso   1.00
C187   C     0.60130   0.44895   0.38952   0.00000  Uiso   1.00
C188   C     0.57489   0.45425   0.28783   0.00000  Uiso   1.00
C189   C     0.52448   0.43856   0.14072   0.00000  Uiso   1.00
C190   C     0.66857   0.60875   0.53478   0.00000  Uiso   1.00
C191   C     0.66939   0.64582   0.63988   0.00000  Uiso   1.00
C192   C     0.67413   0.74114   0.65267   0.00000  Uiso   1.00
C193   C     0.68117   0.89148   0.71673   0.00000  Uiso   1.00
C194   C     0.69564   0.47959   0.46075   0.00000  Uiso   1.00
C195   C     0.71923   0.40807   0.50364   0.00000  Uiso   1.00
C196   C     0.74676   0.39467   0.45412   0.00000  Uiso   1.00
C197   C     0.79582   0.34447   0.40325   0.00000  Uiso   1.00
C198   C     0.67063   0.60982   0.33811   0.00000  Uiso   1.00
C199   C     0.63536   0.55797   0.30962   0.00000  Uiso   1.00
C200   C     0.60899   0.56334   0.20791   0.00000  Uiso   1.00
C201   C     0.57868   0.51051   0.19850   0.00000  Uiso   1.00
C202   C     0.67235   0.66491   0.44562   0.00000  Uiso   1.00
C203   C     0.67709   0.76020   0.45826   0.00000  Uiso   1.00
C204   C     0.67792   0.79740   0.56335   0.00000  Uiso   1.00
C205   C     0.69941   0.53575   0.37159   0.00000  Uiso   1.00
C206   C     0.72692   0.52246   0.32201   0.00000  Uiso   1.00
C207   C     0.75054   0.45093   0.36480   0.00000  Uiso   1.00
H208   H     0.66073   0.46272   0.57169   0.00000  Uiso   1.00
H209   H     0.59838   0.40551   0.45855   0.00000  Uiso   1.00
H210   H     0.66647   0.60234   0.70886   0.00000  Uiso   1.00
H211   H     0.71629   0.36463   0.57263   0.00000  Uiso   1.00
H212   H     0.53092   0.36688   0.29381   0.00000  Uiso   1.00
H213   H     0.67450   0.78190   0.82162   0.00000  Uiso   1.00
H214   H     0.77956   0.28065   0.53437   0.00000  Uiso   1.00
H215   H     0.67357   0.65354   0.26869   0.00000  Uiso   1.00
H216   H     0.61192   0.60681   0.13892   0.00000  Uiso   1.00
H217   H     0.68001   0.80364   0.38924   0.00000  Uiso   1.00
H218   H     0.72983   0.56593   0.25301   0.00000  Uiso   1.00
H219   H     0.54190   0.53026   0.03439   0.00000  Uiso   1.00
H220   H     0.68549   0.94529   0.56221   0.00000  Uiso   1.00
H221   H     0.79055   0.44403   0.27495   0.00000  Uiso   1.00
O222   O     0.49562   0.41441   0.08422   0.00000  Uiso   1.00
O223   O     0.68400   0.95890   0.77669   0.00000  Uiso   1.00
O224   O     0.82184   0.30126   0.39981   0.00000  Uiso   1.00
N225   N     0.54197   0.41173   0.25056   0.00000  Uiso   1.00
N226   N     0.67620   0.79976   0.74403   0.00000  Uiso   1.00
N227   N     0.77443   0.33114   0.47548   0.00000  Uiso   1.00
N228   N     0.54788   0.49964   0.11097   0.00000  Uiso   1.00
N229   N     0.68212   0.88767   0.60443   0.00000  Uiso   1.00
N230   N     0.78034   0.41906   0.33589   0.00000  Uiso   1.00
C231   C     0.16367   0.00643   0.50226   0.00000  Uiso   1.00
C232   C     0.13158   0.00180   0.39878   0.00000  Uiso   1.00
C233   C     0.10130   0.94895   0.38952   0.00000  Uiso   1.00
C234   C     0.07489   0.95425   0.28783   0.00000  Uiso   1.00
C235   C     0.02448   0.93856   0.14072   0.00000  Uiso   1.00
C236   C     0.16857   0.10875   0.53478   0.00000  Uiso   1.00
C237   C     0.16939   0.14582   0.63988   0.00000  Uiso   1.00
C238   C     0.17413   0.24114   0.65267   0.00000  Uiso   1.00
C239   C     0.18117   0.39148   0.71673   0.00000  Uiso   1.00
C240   C     0.19564   0.97959   0.46075   0.00000  Uiso   1.00
C241   C     0.21923   0.90807   0.50364   0.00000  Uiso   1.00
C242   C     0.24676   0.89467   0.45412   0.00000  Uiso   1.00
C243   C     0.29582   0.84447   0.40325   0.00000  Uiso   1.00
C244   C     0.17063   0.10982   0.33811   0.00000  Uiso   1.00
C245   C     0.13536   0.05797   0.30962   0.00000  Uiso   1.00
C246   C     0.10899   0.06334   0.20791   0.00000  Uiso   1.00
C247   C     0.07868   0.01051   0.19850   0.00000  Uiso   1.00
C248   C     0.17235   0.16491   0.44562   0.00000  Uiso   1.00
C249   C     0.17709   0.26020   0.45826   0.00000  Uiso   1.00
C250   C     0.17792   0.29740   0.56335   0.00000  Uiso   1.00
C251   C     0.19941   0.03575   0.37159   0.00000  Uiso   1.00
C252   C     0.22692   0.02246   0.32201   0.00000  Uiso   1.00
C253   C     0.25054   0.95093   0.36480   0.00000  Uiso   1.00
H254   H     0.16073   0.96272   0.57169   0.00000  Uiso   1.00
H255   H     0.09838   0.90551   0.45855   0.00000  Uiso   1.00
H256   H     0.16647   0.10234   0.70886   0.00000  Uiso   1.00
H257   H     0.21629   0.86463   0.57263   0.00000  Uiso   1.00
H258   H     0.03092   0.86688   0.29381   0.00000  Uiso   1.00
H259   H     0.17450   0.28190   0.82162   0.00000  Uiso   1.00
H260   H     0.27956   0.78065   0.53437   0.00000  Uiso   1.00
H261   H     0.17357   0.15354   0.26869   0.00000  Uiso   1.00
H262   H     0.11192   0.10681   0.13892   0.00000  Uiso   1.00
H263   H     0.18001   0.30364   0.38924   0.00000  Uiso   1.00
H264   H     0.22983   0.06593   0.25301   0.00000  Uiso   1.00
H265   H     0.04190   0.03026   0.03439   0.00000  Uiso   1.00
H266   H     0.18549   0.44529   0.56221   0.00000  Uiso   1.00
H267   H     0.29055   0.94403   0.27495   0.00000  Uiso   1.00
O268   O     0.99562   0.91441   0.08422   0.00000  Uiso   1.00
O269   O     0.18400   0.45890   0.77669   0.00000  Uiso   1.00
O270   O     0.32184   0.80126   0.39981   0.00000  Uiso   1.00
N271   N     0.04197   0.91173   0.25056   0.00000  Uiso   1.00
N272   N     0.17620   0.29976   0.74403   0.00000  Uiso   1.00
N273   N     0.27443   0.83114   0.47548   0.00000  Uiso   1.00
N274   N     0.04788   0.99964   0.11097   0.00000  Uiso   1.00
N275   N     0.18212   0.38767   0.60443   0.00000  Uiso   1.00
N276   N     0.28034   0.91906   0.33589   0.00000  Uiso   1.00
C277   C     0.33633   0.50643   0.99774   0.00000  Uiso   1.00
C278   C     0.36842   0.50180   0.10122   0.00000  Uiso   1.00
C279   C     0.39870   0.44895   0.11048   0.00000  Uiso   1.00
C280   C     0.42511   0.45425   0.21217   0.00000  Uiso   1.00
C281   C     0.47552   0.43856   0.35928   0.00000  Uiso   1.00
C282   C     0.33143   0.60875   0.96522   0.00000  Uiso   1.00
C283   C     0.33061   0.64582   0.86012   0.00000  Uiso   1.00
C284   C     0.32587   0.74114   0.84733   0.00000  Uiso   1.00
C285   C     0.31883   0.89148   0.78327   0.00000  Uiso   1.00
C286   C     0.30436   0.47959   0.03925   0.00000  Uiso   1.00
C287   C     0.28077   0.40807   0.99636   0.00000  Uiso   1.00
C288   C     0.25324   0.39467   0.04588   0.00000  Uiso   1.00
C289   C     0.20418   0.34447   0.09675   0.00000  Uiso   1.00
C290   C     0.32937   0.60982   0.16189   0.00000  Uiso   1.00
C291   C     0.36464   0.55797   0.19038   0.00000  Uiso   1.00
C292   C     0.39101   0.56334   0.29209   0.00000  Uiso   1.00
C293   C     0.42132   0.51051   0.30150   0.00000  Uiso   1.00
C294   C     0.32765   0.66491   0.05438   0.00000  Uiso   1.00
C295   C     0.32291   0.76020   0.04174   0.00000  Uiso   1.00
C296   C     0.32208   0.79740   0.93665   0.00000  Uiso   1.00
C297   C     0.30059   0.53575   0.12841   0.00000  Uiso   1.00
C298   C     0.27308   0.52246   0.17799   0.00000  Uiso   1.00
C299   C     0.24946   0.45093   0.13520   0.00000  Uiso   1.00
H300   H     0.33927   0.46272   0.92831   0.00000  Uiso   1.00
H301   H     0.40162   0.40551   0.04145   0.00000  Uiso   1.00
H302   H     0.33353   0.60234   0.79114   0.00000  Uiso   1.00
H303   H     0.28371   0.36463   0.92737   0.00000  Uiso   1.00
H304   H     0.46908   0.36688   0.20619   0.00000  Uiso   1.00
H305   H     0.32550   0.78190   0.67838   0.00000  Uiso   1.00
H306   H     0.22044   0.28065   0.96563   0.00000  Uiso   1.00
H307   H     0.32643   0.65354   0.23131   0.00000  Uiso   1.00
H308   H     0.38808   0.60681   0.36108   0.00000  Uiso   1.00
H309   H     0.31999   0.80364   0.11076   0.00000  Uiso   1.00
H310   H     0.27017   0.56593   0.24699   0.00000  Uiso   1.00
H311   H     0.45810   0.53026   0.46561   0.00000  Uiso   1.00
H312   H     0.31451   0.94529   0.93779   0.00000  Uiso   1.00
H313   H     0.20945   0.44403   0.22505   0.00000  Uiso   1.00
O314   O     0.50438   0.41441   0.41578   0.00000  Uiso   1.00
O315   O     0.31600   0.95890   0.72331   0.00000  Uiso   1.00
O316   O     0.17816   0.30126   0.10019   0.00000  Uiso   1.00
N317   N     0.45803   0.41173   0.24944   0.00000  Uiso   1.00
N318   N     0.32380   0.79976   0.75597   0.00000  Uiso   1.00
N319   N     0.22557   0.33114   0.02452   0.00000  Uiso   1.00
N320   N     0.45212   0.49964   0.38903   0.00000  Uiso   1.00
N321   N     0.31788   0.88767   0.89557   0.00000  Uiso   1.00
N322   N     0.21966   0.41906   0.16411   0.00000  Uiso   1.00
C323   C     0.83633   0.00643   0.99774   0.00000  Uiso   1.00
C324   C     0.86842   0.00180   0.10122   0.00000  Uiso   1.00
C325   C     0.89870   0.94895   0.11048   0.00000  Uiso   1.00
C326   C     0.92511   0.95425   0.21217   0.00000  Uiso   1.00
C327   C     0.97552   0.93856   0.35928   0.00000  Uiso   1.00
C328   C     0.83143   0.10875   0.96522   0.00000  Uiso   1.00
C329   C     0.83061   0.14582   0.86012   0.00000  Uiso   1.00
C330   C     0.82587   0.24114   0.84733   0.00000  Uiso   1.00
C331   C     0.81883   0.39148   0.78327   0.00000  Uiso   1.00
C332   C     0.80436   0.97959   0.03925   0.00000  Uiso   1.00
C333   C     0.78077   0.90807   0.99636   0.00000  Uiso   1.00
C334   C     0.75324   0.89467   0.04588   0.00000  Uiso   1.00
C335   C     0.70418   0.84447   0.09675   0.00000  Uiso   1.00
C336   C     0.82937   0.10982   0.16189   0.00000  Uiso   1.00
C337   C     0.86464   0.05797   0.19038   0.00000  Uiso   1.00
C338   C     0.89101   0.06334   0.29209   0.00000  Uiso   1.00
C339   C     0.92132   0.01051   0.30150   0.00000  Uiso   1.00
C340   C     0.82765   0.16491   0.05438   0.00000  Uiso   1.00
C341   C     0.82291   0.26020   0.04174   0.00000  Uiso   1.00
C342   C     0.82208   0.29740   0.93665   0.00000  Uiso   1.00
C343   C     0.80059   0.03575   0.12841   0.00000  Uiso   1.00
C344   C     0.77308   0.02246   0.17799   0.00000  Uiso   1.00
C345   C     0.74946   0.95093   0.13520   0.00000  Uiso   1.00
H346   H     0.83927   0.96272   0.92831   0.00000  Uiso   1.00
H347   H     0.90162   0.90551   0.04145   0.00000  Uiso   1.00
H348   H     0.83353   0.10234   0.79114   0.00000  Uiso   1.00
H349   H     0.78371   0.86463   0.92737   0.00000  Uiso   1.00
H350   H     0.96908   0.86688   0.20619   0.00000  Uiso   1.00
H351   H     0.82550   0.28190   0.67838   0.00000  Uiso   1.00
H352   H     0.72044   0.78065   0.96563   0.00000  Uiso   1.00
H353   H     0.82643   0.15354   0.23131   0.00000  Uiso   1.00
H354   H     0.88808   0.10681   0.36108   0.00000  Uiso   1.00
H355   H     0.81999   0.30364   0.11076   0.00000  Uiso   1.00
H356   H     0.77017   0.06593   0.24699   0.00000  Uiso   1.00
H357   H     0.95810   0.03026   0.46561   0.00000  Uiso   1.00
H358   H     0.81451   0.44529   0.93779   0.00000  Uiso   1.00
H359   H     0.70945   0.94403   0.22505   0.00000  Uiso   1.00
O360   O     0.00438   0.91441   0.41578   0.00000  Uiso   1.00
O361   O     0.81600   0.45890   0.72331   0.00000  Uiso   1.00
O362   O     0.67816   0.80126   0.10019   0.00000  Uiso   1.00
N363   N     0.95803   0.91173   0.24944   0.00000  Uiso   1.00
N364   N     0.82380   0.29976   0.75597   0.00000  Uiso   1.00
N365   N     0.72557   0.83114   0.02452   0.00000  Uiso   1.00
N366   N     0.95212   0.99964   0.38903   0.00000  Uiso   1.00
N367   N     0.81788   0.38767   0.89557   0.00000  Uiso   1.00
N368   N     0.71966   0.91906   0.16411   0.00000  Uiso   1.00
