data_job_02923
_audit_creation_date              2018-12-19
_audit_creation_method            'Materials Studio'
_symmetry_space_group_name_H-M    'P1'
_symmetry_Int_Tables_number       1
_symmetry_cell_setting            triclinic
loop_
_symmetry_equiv_pos_as_xyz
  x,y,z
_cell_length_a                    11.0832
_cell_length_b                    23.9837
_cell_length_c                    10.9646
_cell_angle_alpha                 90.0000
_cell_angle_beta                  96.9327
_cell_angle_gamma                 90.0000
loop_
_atom_site_label
_atom_site_type_symbol
_atom_site_fract_x
_atom_site_fract_y
_atom_site_fract_z
_atom_site_U_iso_or_equiv
_atom_site_adp_type
_atom_site_occupancy
C1     C     0.75672   0.89867   0.03867   0.00000  Uiso   1.00
C2     C     0.62070   0.88841   0.00762   0.00000  Uiso   1.00
C3     C     0.53091   0.90583   0.07697   0.00000  Uiso   1.00
C4     C     0.41178   0.89231   0.03292   0.00000  Uiso   1.00
C5     C     0.20486   0.88094   0.00132   0.00000  Uiso   1.00
C6     C     0.79723   0.92856   0.92778   0.00000  Uiso   1.00
C7     C     0.85589   0.97974   0.93003   0.00000  Uiso   1.00
C8     C     0.88539   0.00002   0.81877   0.00000  Uiso   1.00
C9     C     0.95263   0.05097   0.66325   0.00000  Uiso   1.00
C10    C     0.81667   0.84137   0.04247   0.00000  Uiso   1.00
C11    C     0.89169   0.81925   0.14113   0.00000  Uiso   1.00
C12    C     0.93757   0.76612   0.12642   0.00000  Uiso   1.00
C13    C     0.03498   0.68169   0.14898   0.00000  Uiso   1.00
C14    C     0.70483   0.84368   0.83711   0.00000  Uiso   1.00
C15    C     0.59252   0.85854   0.89813   0.00000  Uiso   1.00
C16    C     0.47350   0.84499   0.85397   0.00000  Uiso   1.00
C17    C     0.38355   0.86239   0.92325   0.00000  Uiso   1.00
C18    C     0.76905   0.89869   0.81831   0.00000  Uiso   1.00
C19    C     0.79848   0.91890   0.70703   0.00000  Uiso   1.00
C20    C     0.85716   0.97010   0.70909   0.00000  Uiso   1.00
C21    C     0.78848   0.81150   0.93300   0.00000  Uiso   1.00
C22    C     0.83427   0.75840   0.91813   0.00000  Uiso   1.00
C23    C     0.90934   0.73620   0.01675   0.00000  Uiso   1.00
H24    H     0.77867   0.92193   0.12390   0.00000  Uiso   1.00
H25    H     0.55275   0.92895   0.16168   0.00000  Uiso   1.00
H26    H     0.87770   0.00284   0.01476   0.00000  Uiso   1.00
H27    H     0.91348   0.84237   0.22583   0.00000  Uiso   1.00
H28    H     0.28986   0.92358   0.15527   0.00000  Uiso   1.00
H29    H     0.97506   0.07938   0.84549   0.00000  Uiso   1.00
H30    H     0.05052   0.74099   0.29058   0.00000  Uiso   1.00
H31    H     0.68289   0.82043   0.75187   0.00000  Uiso   1.00
H32    H     0.45171   0.82187   0.76924   0.00000  Uiso   1.00
H33    H     0.77666   0.89577   0.62233   0.00000  Uiso   1.00
H34    H     0.81244   0.73530   0.83340   0.00000  Uiso   1.00
H35    H     0.20785   0.83667   0.83675   0.00000  Uiso   1.00
H36    H     0.89306   0.99247   0.52697   0.00000  Uiso   1.00
H37    H     0.96851   0.65409   0.97206   0.00000  Uiso   1.00
O38    O     0.09850   0.88293   0.01413   0.00000  Uiso   1.00
O39    O     0.99748   0.08732   0.60772   0.00000  Uiso   1.00
O40    O     0.09647   0.64337   0.19166   0.00000  Uiso   1.00
N41    N     0.30228   0.90292   0.07794   0.00000  Uiso   1.00
N42    N     0.94289   0.04859   0.78831   0.00000  Uiso   1.00
N43    N     0.01346   0.73223   0.20441   0.00000  Uiso   1.00
N44    N     0.25816   0.85615   0.90654   0.00000  Uiso   1.00
N45    N     0.89876   0.00182   0.61691   0.00000  Uiso   1.00
N46    N     0.96933   0.68547   0.03302   0.00000  Uiso   1.00
C47    C     0.24328   0.39867   0.46133   0.00000  Uiso   1.00
C48    C     0.37930   0.38841   0.49238   0.00000  Uiso   1.00
C49    C     0.46909   0.40583   0.42303   0.00000  Uiso   1.00
C50    C     0.58822   0.39231   0.46708   0.00000  Uiso   1.00
C51    C     0.79514   0.38094   0.49868   0.00000  Uiso   1.00
C52    C     0.20277   0.42856   0.57222   0.00000  Uiso   1.00
C53    C     0.14411   0.47974   0.56997   0.00000  Uiso   1.00
C54    C     0.11461   0.50002   0.68123   0.00000  Uiso   1.00
C55    C     0.04737   0.55097   0.83675   0.00000  Uiso   1.00
C56    C     0.18333   0.34137   0.45753   0.00000  Uiso   1.00
C57    C     0.10831   0.31925   0.35887   0.00000  Uiso   1.00
C58    C     0.06243   0.26612   0.37358   0.00000  Uiso   1.00
C59    C     0.96502   0.18169   0.35102   0.00000  Uiso   1.00
C60    C     0.29517   0.34368   0.66289   0.00000  Uiso   1.00
C61    C     0.40748   0.35854   0.60187   0.00000  Uiso   1.00
C62    C     0.52650   0.34499   0.64603   0.00000  Uiso   1.00
C63    C     0.61645   0.36239   0.57675   0.00000  Uiso   1.00
C64    C     0.23095   0.39869   0.68169   0.00000  Uiso   1.00
C65    C     0.20152   0.41890   0.79297   0.00000  Uiso   1.00
C66    C     0.14284   0.47010   0.79091   0.00000  Uiso   1.00
C67    C     0.21152   0.31150   0.56700   0.00000  Uiso   1.00
C68    C     0.16573   0.25840   0.58187   0.00000  Uiso   1.00
C69    C     0.09066   0.23620   0.48325   0.00000  Uiso   1.00
H70    H     0.22133   0.42193   0.37610   0.00000  Uiso   1.00
H71    H     0.44725   0.42895   0.33832   0.00000  Uiso   1.00
H72    H     0.12230   0.50284   0.48524   0.00000  Uiso   1.00
H73    H     0.08652   0.34237   0.27417   0.00000  Uiso   1.00
H74    H     0.71014   0.42358   0.34473   0.00000  Uiso   1.00
H75    H     0.02494   0.57938   0.65451   0.00000  Uiso   1.00
H76    H     0.94948   0.24099   0.20942   0.00000  Uiso   1.00
H77    H     0.31711   0.32043   0.74813   0.00000  Uiso   1.00
H78    H     0.54829   0.32187   0.73076   0.00000  Uiso   1.00
H79    H     0.22334   0.39577   0.87767   0.00000  Uiso   1.00
H80    H     0.18756   0.23530   0.66660   0.00000  Uiso   1.00
H81    H     0.79215   0.33667   0.66325   0.00000  Uiso   1.00
H82    H     0.10694   0.49247   0.97303   0.00000  Uiso   1.00
H83    H     0.03149   0.15409   0.52794   0.00000  Uiso   1.00
O84    O     0.90150   0.38293   0.48587   0.00000  Uiso   1.00
O85    O     0.00252   0.58732   0.89228   0.00000  Uiso   1.00
O86    O     0.90353   0.14337   0.30834   0.00000  Uiso   1.00
N87    N     0.69772   0.40292   0.42206   0.00000  Uiso   1.00
N88    N     0.05711   0.54859   0.71169   0.00000  Uiso   1.00
N89    N     0.98654   0.23223   0.29559   0.00000  Uiso   1.00
N90    N     0.74184   0.35615   0.59346   0.00000  Uiso   1.00
N91    N     0.10124   0.50182   0.88309   0.00000  Uiso   1.00
N92    N     0.03067   0.18547   0.46698   0.00000  Uiso   1.00
C93    C     0.24328   0.10133   0.96133   0.00000  Uiso   1.00
C94    C     0.37930   0.11159   0.99238   0.00000  Uiso   1.00
C95    C     0.46909   0.09417   0.92303   0.00000  Uiso   1.00
C96    C     0.58822   0.10769   0.96708   0.00000  Uiso   1.00
C97    C     0.79514   0.11906   0.99868   0.00000  Uiso   1.00
C98    C     0.20277   0.07144   0.07222   0.00000  Uiso   1.00
C99    C     0.14411   0.02026   0.06997   0.00000  Uiso   1.00
C100   C     0.11461   0.99998   0.18123   0.00000  Uiso   1.00
C101   C     0.04737   0.94903   0.33675   0.00000  Uiso   1.00
C102   C     0.18333   0.15863   0.95753   0.00000  Uiso   1.00
C103   C     0.10831   0.18075   0.85887   0.00000  Uiso   1.00
C104   C     0.06243   0.23388   0.87358   0.00000  Uiso   1.00
C105   C     0.96502   0.31831   0.85102   0.00000  Uiso   1.00
C106   C     0.29517   0.15632   0.16289   0.00000  Uiso   1.00
C107   C     0.40748   0.14146   0.10187   0.00000  Uiso   1.00
C108   C     0.52650   0.15501   0.14603   0.00000  Uiso   1.00
C109   C     0.61645   0.13761   0.07675   0.00000  Uiso   1.00
C110   C     0.23095   0.10131   0.18169   0.00000  Uiso   1.00
C111   C     0.20152   0.08110   0.29297   0.00000  Uiso   1.00
C112   C     0.14284   0.02990   0.29091   0.00000  Uiso   1.00
C113   C     0.21152   0.18850   0.06700   0.00000  Uiso   1.00
C114   C     0.16573   0.24160   0.08187   0.00000  Uiso   1.00
C115   C     0.09066   0.26380   0.98325   0.00000  Uiso   1.00
H116   H     0.22133   0.07807   0.87610   0.00000  Uiso   1.00
H117   H     0.44725   0.07105   0.83832   0.00000  Uiso   1.00
H118   H     0.12230   0.99716   0.98524   0.00000  Uiso   1.00
H119   H     0.08652   0.15763   0.77417   0.00000  Uiso   1.00
H120   H     0.71014   0.07642   0.84473   0.00000  Uiso   1.00
H121   H     0.02494   0.92062   0.15451   0.00000  Uiso   1.00
H122   H     0.94948   0.25901   0.70942   0.00000  Uiso   1.00
H123   H     0.31711   0.17957   0.24813   0.00000  Uiso   1.00
H124   H     0.54829   0.17813   0.23076   0.00000  Uiso   1.00
H125   H     0.22334   0.10423   0.37767   0.00000  Uiso   1.00
H126   H     0.18756   0.26470   0.16660   0.00000  Uiso   1.00
H127   H     0.79215   0.16333   0.16325   0.00000  Uiso   1.00
H128   H     0.10694   0.00753   0.47303   0.00000  Uiso   1.00
H129   H     0.03149   0.34591   0.02794   0.00000  Uiso   1.00
O130   O     0.90150   0.11707   0.98587   0.00000  Uiso   1.00
O131   O     0.00252   0.91268   0.39228   0.00000  Uiso   1.00
O132   O     0.90353   0.35663   0.80834   0.00000  Uiso   1.00
N133   N     0.69772   0.09708   0.92206   0.00000  Uiso   1.00
N134   N     0.05711   0.95141   0.21169   0.00000  Uiso   1.00
N135   N     0.98654   0.26777   0.79559   0.00000  Uiso   1.00
N136   N     0.74184   0.14385   0.09346   0.00000  Uiso   1.00
N137   N     0.10124   0.99818   0.38309   0.00000  Uiso   1.00
N138   N     0.03067   0.31453   0.96698   0.00000  Uiso   1.00
C139   C     0.75672   0.60133   0.53867   0.00000  Uiso   1.00
C140   C     0.62070   0.61159   0.50762   0.00000  Uiso   1.00
C141   C     0.53091   0.59417   0.57697   0.00000  Uiso   1.00
C142   C     0.41178   0.60769   0.53292   0.00000  Uiso   1.00
C143   C     0.20486   0.61906   0.50132   0.00000  Uiso   1.00
C144   C     0.79723   0.57144   0.42778   0.00000  Uiso   1.00
C145   C     0.85589   0.52026   0.43003   0.00000  Uiso   1.00
C146   C     0.88539   0.49998   0.31877   0.00000  Uiso   1.00
C147   C     0.95263   0.44903   0.16325   0.00000  Uiso   1.00
C148   C     0.81667   0.65863   0.54247   0.00000  Uiso   1.00
C149   C     0.89169   0.68075   0.64113   0.00000  Uiso   1.00
C150   C     0.93757   0.73388   0.62642   0.00000  Uiso   1.00
C151   C     0.03498   0.81831   0.64898   0.00000  Uiso   1.00
C152   C     0.70483   0.65632   0.33711   0.00000  Uiso   1.00
C153   C     0.59252   0.64146   0.39813   0.00000  Uiso   1.00
C154   C     0.47350   0.65501   0.35397   0.00000  Uiso   1.00
C155   C     0.38355   0.63761   0.42325   0.00000  Uiso   1.00
C156   C     0.76905   0.60131   0.31831   0.00000  Uiso   1.00
C157   C     0.79848   0.58110   0.20703   0.00000  Uiso   1.00
C158   C     0.85716   0.52990   0.20909   0.00000  Uiso   1.00
C159   C     0.78848   0.68850   0.43300   0.00000  Uiso   1.00
C160   C     0.83427   0.74160   0.41813   0.00000  Uiso   1.00
C161   C     0.90934   0.76380   0.51675   0.00000  Uiso   1.00
H162   H     0.77867   0.57807   0.62390   0.00000  Uiso   1.00
H163   H     0.55275   0.57105   0.66168   0.00000  Uiso   1.00
H164   H     0.87770   0.49716   0.51476   0.00000  Uiso   1.00
H165   H     0.91348   0.65763   0.72583   0.00000  Uiso   1.00
H166   H     0.28986   0.57642   0.65527   0.00000  Uiso   1.00
H167   H     0.97506   0.42062   0.34549   0.00000  Uiso   1.00
H168   H     0.05052   0.75901   0.79058   0.00000  Uiso   1.00
H169   H     0.68289   0.67957   0.25187   0.00000  Uiso   1.00
H170   H     0.45171   0.67813   0.26924   0.00000  Uiso   1.00
H171   H     0.77666   0.60423   0.12233   0.00000  Uiso   1.00
H172   H     0.81244   0.76470   0.33340   0.00000  Uiso   1.00
H173   H     0.20785   0.66333   0.33675   0.00000  Uiso   1.00
H174   H     0.89306   0.50753   0.02697   0.00000  Uiso   1.00
H175   H     0.96851   0.84591   0.47206   0.00000  Uiso   1.00
O176   O     0.09850   0.61707   0.51413   0.00000  Uiso   1.00
O177   O     0.99748   0.41268   0.10772   0.00000  Uiso   1.00
O178   O     0.09647   0.85663   0.69166   0.00000  Uiso   1.00
N179   N     0.30228   0.59708   0.57794   0.00000  Uiso   1.00
N180   N     0.94289   0.45141   0.28831   0.00000  Uiso   1.00
N181   N     0.01346   0.76777   0.70441   0.00000  Uiso   1.00
N182   N     0.25816   0.64385   0.40654   0.00000  Uiso   1.00
N183   N     0.89876   0.49818   0.11691   0.00000  Uiso   1.00
N184   N     0.96933   0.81453   0.53302   0.00000  Uiso   1.00
