data_job_04006
_audit_creation_date              2018-12-19
_audit_creation_method            'Materials Studio'
_symmetry_space_group_name_H-M    'P1'
_symmetry_Int_Tables_number       1
_symmetry_cell_setting            triclinic
loop_
_symmetry_equiv_pos_as_xyz
  x,y,z
_cell_length_a                    30.0234
_cell_length_b                    14.0887
_cell_length_c                    12.0476
_cell_angle_alpha                 90.0000
_cell_angle_beta                  91.6121
_cell_angle_gamma                 90.0000
loop_
_atom_site_label
_atom_site_type_symbol
_atom_site_fract_x
_atom_site_fract_y
_atom_site_fract_z
_atom_site_U_iso_or_equiv
_atom_site_adp_type
_atom_site_occupancy
C1     C     0.37674   0.75682   0.49222   0.00000  Uiso   1.00
C2     C     0.34864   0.67144   0.45631   0.00000  Uiso   1.00
C3     C     0.31741   0.66985   0.36918   0.00000  Uiso   1.00
C4     C     0.29516   0.58482   0.34964   0.00000  Uiso   1.00
C5     C     0.25018   0.46451   0.28398   0.00000  Uiso   1.00
C6     C     0.36742   0.77289   0.61456   0.00000  Uiso   1.00
C7     C     0.35199   0.85660   0.66050   0.00000  Uiso   1.00
C8     C     0.34556   0.85697   0.77417   0.00000  Uiso   1.00
C9     C     0.32977   0.89419   0.95422   0.00000  Uiso   1.00
C10    C     0.42515   0.72458   0.48817   0.00000  Uiso   1.00
C11    C     0.45827   0.76768   0.42786   0.00000  Uiso   1.00
C12    C     0.50046   0.72739   0.43515   0.00000  Uiso   1.00
C13    C     0.57431   0.68960   0.41895   0.00000  Uiso   1.00
C14    C     0.39277   0.60865   0.61243   0.00000  Uiso   1.00
C15    C     0.35734   0.59096   0.52161   0.00000  Uiso   1.00
C16    C     0.33514   0.50591   0.50218   0.00000  Uiso   1.00
C17    C     0.30389   0.50419   0.41504   0.00000  Uiso   1.00
C18    C     0.37612   0.69242   0.67986   0.00000  Uiso   1.00
C19    C     0.36972   0.69267   0.79349   0.00000  Uiso   1.00
C20    C     0.35428   0.77635   0.83959   0.00000  Uiso   1.00
C21    C     0.43386   0.64410   0.55346   0.00000  Uiso   1.00
C22    C     0.47601   0.60374   0.56085   0.00000  Uiso   1.00
C23    C     0.50918   0.64677   0.50056   0.00000  Uiso   1.00
H24    H     0.36996   0.81948   0.44139   0.00000  Uiso   1.00
H25    H     0.31068   0.73215   0.31868   0.00000  Uiso   1.00
H26    H     0.34526   0.91887   0.60995   0.00000  Uiso   1.00
H27    H     0.45152   0.82996   0.37734   0.00000  Uiso   1.00
H28    H     0.24877   0.59985   0.21145   0.00000  Uiso   1.00
H29    H     0.32170   0.99357   0.82561   0.00000  Uiso   1.00
H30    H     0.54578   0.80609   0.33512   0.00000  Uiso   1.00
H31    H     0.39955   0.54599   0.66327   0.00000  Uiso   1.00
H32    H     0.34189   0.44365   0.55272   0.00000  Uiso   1.00
H33    H     0.37647   0.63037   0.84399   0.00000  Uiso   1.00
H34    H     0.48273   0.54146   0.61139   0.00000  Uiso   1.00
H35    H     0.27411   0.36569   0.40142   0.00000  Uiso   1.00
H36    H     0.34703   0.75942   0.01558   0.00000  Uiso   1.00
H37    H     0.57112   0.57193   0.52508   0.00000  Uiso   1.00
O38    O     0.22296   0.42039   0.22974   0.00000  Uiso   1.00
O39    O     0.31865   0.93695   0.03549   0.00000  Uiso   1.00
O40    O     0.61264   0.69098   0.39197   0.00000  Uiso   1.00
N41    N     0.26266   0.55878   0.27132   0.00000  Uiso   1.00
N42    N     0.33083   0.92688   0.84552   0.00000  Uiso   1.00
N43    N     0.54033   0.75162   0.38697   0.00000  Uiso   1.00
N44    N     0.27629   0.43278   0.37353   0.00000  Uiso   1.00
N45    N     0.34446   0.80088   0.94773   0.00000  Uiso   1.00
N46    N     0.55396   0.62562   0.48919   0.00000  Uiso   1.00
C47    C     0.87674   0.25682   0.49222   0.00000  Uiso   1.00
C48    C     0.84864   0.17144   0.45631   0.00000  Uiso   1.00
C49    C     0.81741   0.16985   0.36918   0.00000  Uiso   1.00
C50    C     0.79516   0.08482   0.34964   0.00000  Uiso   1.00
C51    C     0.75018   0.96451   0.28398   0.00000  Uiso   1.00
C52    C     0.86742   0.27289   0.61456   0.00000  Uiso   1.00
C53    C     0.85199   0.35660   0.66050   0.00000  Uiso   1.00
C54    C     0.84556   0.35697   0.77417   0.00000  Uiso   1.00
C55    C     0.82977   0.39419   0.95422   0.00000  Uiso   1.00
C56    C     0.92515   0.22458   0.48817   0.00000  Uiso   1.00
C57    C     0.95827   0.26768   0.42786   0.00000  Uiso   1.00
C58    C     0.00046   0.22739   0.43515   0.00000  Uiso   1.00
C59    C     0.07431   0.18960   0.41895   0.00000  Uiso   1.00
C60    C     0.89277   0.10865   0.61243   0.00000  Uiso   1.00
C61    C     0.85734   0.09096   0.52161   0.00000  Uiso   1.00
C62    C     0.83514   0.00591   0.50218   0.00000  Uiso   1.00
C63    C     0.80389   0.00419   0.41504   0.00000  Uiso   1.00
C64    C     0.87612   0.19242   0.67986   0.00000  Uiso   1.00
C65    C     0.86972   0.19267   0.79349   0.00000  Uiso   1.00
C66    C     0.85428   0.27635   0.83959   0.00000  Uiso   1.00
C67    C     0.93386   0.14410   0.55346   0.00000  Uiso   1.00
C68    C     0.97601   0.10374   0.56085   0.00000  Uiso   1.00
C69    C     0.00918   0.14677   0.50056   0.00000  Uiso   1.00
H70    H     0.86996   0.31948   0.44139   0.00000  Uiso   1.00
H71    H     0.81068   0.23215   0.31868   0.00000  Uiso   1.00
H72    H     0.84526   0.41887   0.60995   0.00000  Uiso   1.00
H73    H     0.95152   0.32996   0.37734   0.00000  Uiso   1.00
H74    H     0.74877   0.09985   0.21145   0.00000  Uiso   1.00
H75    H     0.82170   0.49357   0.82561   0.00000  Uiso   1.00
H76    H     0.04578   0.30609   0.33512   0.00000  Uiso   1.00
H77    H     0.89955   0.04599   0.66327   0.00000  Uiso   1.00
H78    H     0.84189   0.94365   0.55272   0.00000  Uiso   1.00
H79    H     0.87647   0.13037   0.84399   0.00000  Uiso   1.00
H80    H     0.98273   0.04146   0.61139   0.00000  Uiso   1.00
H81    H     0.77411   0.86569   0.40142   0.00000  Uiso   1.00
H82    H     0.84703   0.25942   0.01558   0.00000  Uiso   1.00
H83    H     0.07112   0.07193   0.52508   0.00000  Uiso   1.00
O84    O     0.72296   0.92039   0.22974   0.00000  Uiso   1.00
O85    O     0.81865   0.43695   0.03549   0.00000  Uiso   1.00
O86    O     0.11264   0.19098   0.39197   0.00000  Uiso   1.00
N87    N     0.76266   0.05878   0.27132   0.00000  Uiso   1.00
N88    N     0.83083   0.42688   0.84552   0.00000  Uiso   1.00
N89    N     0.04033   0.25162   0.38697   0.00000  Uiso   1.00
N90    N     0.77629   0.93278   0.37353   0.00000  Uiso   1.00
N91    N     0.84446   0.30088   0.94773   0.00000  Uiso   1.00
N92    N     0.05396   0.12562   0.48919   0.00000  Uiso   1.00
C93    C     0.62326   0.75682   0.00778   0.00000  Uiso   1.00
C94    C     0.65136   0.67144   0.04369   0.00000  Uiso   1.00
C95    C     0.68259   0.66985   0.13082   0.00000  Uiso   1.00
C96    C     0.70484   0.58482   0.15036   0.00000  Uiso   1.00
C97    C     0.74982   0.46451   0.21602   0.00000  Uiso   1.00
C98    C     0.63258   0.77289   0.88544   0.00000  Uiso   1.00
C99    C     0.64801   0.85660   0.83950   0.00000  Uiso   1.00
C100   C     0.65444   0.85697   0.72583   0.00000  Uiso   1.00
C101   C     0.67023   0.89419   0.54578   0.00000  Uiso   1.00
C102   C     0.57485   0.72458   0.01183   0.00000  Uiso   1.00
C103   C     0.54173   0.76768   0.07214   0.00000  Uiso   1.00
C104   C     0.49954   0.72739   0.06485   0.00000  Uiso   1.00
C105   C     0.42569   0.68960   0.08105   0.00000  Uiso   1.00
C106   C     0.60723   0.60865   0.88757   0.00000  Uiso   1.00
C107   C     0.64266   0.59096   0.97839   0.00000  Uiso   1.00
C108   C     0.66486   0.50591   0.99782   0.00000  Uiso   1.00
C109   C     0.69611   0.50419   0.08496   0.00000  Uiso   1.00
C110   C     0.62388   0.69242   0.82014   0.00000  Uiso   1.00
C111   C     0.63028   0.69267   0.70651   0.00000  Uiso   1.00
C112   C     0.64572   0.77635   0.66041   0.00000  Uiso   1.00
C113   C     0.56614   0.64410   0.94654   0.00000  Uiso   1.00
C114   C     0.52399   0.60374   0.93915   0.00000  Uiso   1.00
C115   C     0.49082   0.64677   0.99944   0.00000  Uiso   1.00
H116   H     0.63004   0.81948   0.05861   0.00000  Uiso   1.00
H117   H     0.68932   0.73215   0.18132   0.00000  Uiso   1.00
H118   H     0.65474   0.91887   0.89005   0.00000  Uiso   1.00
H119   H     0.54848   0.82996   0.12266   0.00000  Uiso   1.00
H120   H     0.75123   0.59985   0.28855   0.00000  Uiso   1.00
H121   H     0.67830   0.99357   0.67439   0.00000  Uiso   1.00
H122   H     0.45422   0.80609   0.16488   0.00000  Uiso   1.00
H123   H     0.60045   0.54599   0.83673   0.00000  Uiso   1.00
H124   H     0.65811   0.44365   0.94728   0.00000  Uiso   1.00
H125   H     0.62353   0.63037   0.65601   0.00000  Uiso   1.00
H126   H     0.51727   0.54146   0.88861   0.00000  Uiso   1.00
H127   H     0.72589   0.36569   0.09858   0.00000  Uiso   1.00
H128   H     0.65297   0.75942   0.48442   0.00000  Uiso   1.00
H129   H     0.42888   0.57193   0.97492   0.00000  Uiso   1.00
O130   O     0.77704   0.42039   0.27026   0.00000  Uiso   1.00
O131   O     0.68135   0.93695   0.46451   0.00000  Uiso   1.00
O132   O     0.38736   0.69098   0.10803   0.00000  Uiso   1.00
N133   N     0.73734   0.55878   0.22868   0.00000  Uiso   1.00
N134   N     0.66917   0.92688   0.65448   0.00000  Uiso   1.00
N135   N     0.45967   0.75162   0.11303   0.00000  Uiso   1.00
N136   N     0.72371   0.43278   0.12647   0.00000  Uiso   1.00
N137   N     0.65554   0.80088   0.55227   0.00000  Uiso   1.00
N138   N     0.44604   0.62562   0.01081   0.00000  Uiso   1.00
C139   C     0.12326   0.25682   0.00778   0.00000  Uiso   1.00
C140   C     0.15136   0.17144   0.04369   0.00000  Uiso   1.00
C141   C     0.18259   0.16985   0.13082   0.00000  Uiso   1.00
C142   C     0.20484   0.08482   0.15036   0.00000  Uiso   1.00
C143   C     0.24982   0.96451   0.21602   0.00000  Uiso   1.00
C144   C     0.13258   0.27289   0.88544   0.00000  Uiso   1.00
C145   C     0.14801   0.35660   0.83950   0.00000  Uiso   1.00
C146   C     0.15444   0.35697   0.72583   0.00000  Uiso   1.00
C147   C     0.17023   0.39419   0.54578   0.00000  Uiso   1.00
C148   C     0.07485   0.22458   0.01183   0.00000  Uiso   1.00
C149   C     0.04173   0.26768   0.07214   0.00000  Uiso   1.00
C150   C     0.99954   0.22739   0.06485   0.00000  Uiso   1.00
C151   C     0.92569   0.18960   0.08105   0.00000  Uiso   1.00
C152   C     0.10723   0.10865   0.88757   0.00000  Uiso   1.00
C153   C     0.14266   0.09096   0.97839   0.00000  Uiso   1.00
C154   C     0.16486   0.00591   0.99782   0.00000  Uiso   1.00
C155   C     0.19611   0.00419   0.08496   0.00000  Uiso   1.00
C156   C     0.12388   0.19242   0.82014   0.00000  Uiso   1.00
C157   C     0.13028   0.19267   0.70651   0.00000  Uiso   1.00
C158   C     0.14572   0.27635   0.66041   0.00000  Uiso   1.00
C159   C     0.06614   0.14410   0.94654   0.00000  Uiso   1.00
C160   C     0.02399   0.10374   0.93915   0.00000  Uiso   1.00
C161   C     0.99082   0.14677   0.99944   0.00000  Uiso   1.00
H162   H     0.13004   0.31948   0.05861   0.00000  Uiso   1.00
H163   H     0.18932   0.23215   0.18132   0.00000  Uiso   1.00
H164   H     0.15474   0.41887   0.89005   0.00000  Uiso   1.00
H165   H     0.04848   0.32996   0.12266   0.00000  Uiso   1.00
H166   H     0.25123   0.09985   0.28855   0.00000  Uiso   1.00
H167   H     0.17830   0.49357   0.67439   0.00000  Uiso   1.00
H168   H     0.95422   0.30609   0.16488   0.00000  Uiso   1.00
H169   H     0.10045   0.04599   0.83673   0.00000  Uiso   1.00
H170   H     0.15811   0.94365   0.94728   0.00000  Uiso   1.00
H171   H     0.12353   0.13037   0.65601   0.00000  Uiso   1.00
H172   H     0.01727   0.04146   0.88861   0.00000  Uiso   1.00
H173   H     0.22589   0.86569   0.09858   0.00000  Uiso   1.00
H174   H     0.15297   0.25942   0.48442   0.00000  Uiso   1.00
H175   H     0.92888   0.07193   0.97492   0.00000  Uiso   1.00
O176   O     0.27704   0.92039   0.27026   0.00000  Uiso   1.00
O177   O     0.18135   0.43695   0.46451   0.00000  Uiso   1.00
O178   O     0.88736   0.19098   0.10803   0.00000  Uiso   1.00
N179   N     0.23734   0.05878   0.22868   0.00000  Uiso   1.00
N180   N     0.16917   0.42688   0.65448   0.00000  Uiso   1.00
N181   N     0.95967   0.25162   0.11303   0.00000  Uiso   1.00
N182   N     0.22371   0.93278   0.12647   0.00000  Uiso   1.00
N183   N     0.15554   0.30088   0.55227   0.00000  Uiso   1.00
N184   N     0.94604   0.12562   0.01081   0.00000  Uiso   1.00
C185   C     0.62326   0.24318   0.50778   0.00000  Uiso   1.00
C186   C     0.65136   0.32856   0.54369   0.00000  Uiso   1.00
C187   C     0.68259   0.33015   0.63082   0.00000  Uiso   1.00
C188   C     0.70484   0.41518   0.65036   0.00000  Uiso   1.00
C189   C     0.74982   0.53549   0.71602   0.00000  Uiso   1.00
C190   C     0.63258   0.22711   0.38544   0.00000  Uiso   1.00
C191   C     0.64801   0.14340   0.33950   0.00000  Uiso   1.00
C192   C     0.65444   0.14303   0.22583   0.00000  Uiso   1.00
C193   C     0.67023   0.10581   0.04578   0.00000  Uiso   1.00
C194   C     0.57485   0.27542   0.51183   0.00000  Uiso   1.00
C195   C     0.54173   0.23232   0.57214   0.00000  Uiso   1.00
C196   C     0.49954   0.27261   0.56485   0.00000  Uiso   1.00
C197   C     0.42569   0.31040   0.58105   0.00000  Uiso   1.00
C198   C     0.60723   0.39135   0.38757   0.00000  Uiso   1.00
C199   C     0.64266   0.40904   0.47839   0.00000  Uiso   1.00
C200   C     0.66486   0.49409   0.49782   0.00000  Uiso   1.00
C201   C     0.69611   0.49581   0.58496   0.00000  Uiso   1.00
C202   C     0.62388   0.30758   0.32014   0.00000  Uiso   1.00
C203   C     0.63028   0.30733   0.20651   0.00000  Uiso   1.00
C204   C     0.64572   0.22365   0.16041   0.00000  Uiso   1.00
C205   C     0.56614   0.35590   0.44654   0.00000  Uiso   1.00
C206   C     0.52399   0.39626   0.43915   0.00000  Uiso   1.00
C207   C     0.49082   0.35323   0.49944   0.00000  Uiso   1.00
H208   H     0.63004   0.18052   0.55861   0.00000  Uiso   1.00
H209   H     0.68932   0.26785   0.68132   0.00000  Uiso   1.00
H210   H     0.65474   0.08113   0.39005   0.00000  Uiso   1.00
H211   H     0.54848   0.17004   0.62266   0.00000  Uiso   1.00
H212   H     0.75123   0.40015   0.78855   0.00000  Uiso   1.00
H213   H     0.67830   0.00643   0.17439   0.00000  Uiso   1.00
H214   H     0.45422   0.19391   0.66488   0.00000  Uiso   1.00
H215   H     0.60045   0.45401   0.33673   0.00000  Uiso   1.00
H216   H     0.65811   0.55635   0.44728   0.00000  Uiso   1.00
H217   H     0.62353   0.36963   0.15601   0.00000  Uiso   1.00
H218   H     0.51727   0.45854   0.38861   0.00000  Uiso   1.00
H219   H     0.72589   0.63431   0.59858   0.00000  Uiso   1.00
H220   H     0.65297   0.24058   0.98442   0.00000  Uiso   1.00
H221   H     0.42888   0.42807   0.47492   0.00000  Uiso   1.00
O222   O     0.77704   0.57961   0.77026   0.00000  Uiso   1.00
O223   O     0.68135   0.06305   0.96451   0.00000  Uiso   1.00
O224   O     0.38736   0.30902   0.60803   0.00000  Uiso   1.00
N225   N     0.73734   0.44122   0.72868   0.00000  Uiso   1.00
N226   N     0.66917   0.07312   0.15448   0.00000  Uiso   1.00
N227   N     0.45967   0.24838   0.61303   0.00000  Uiso   1.00
N228   N     0.72371   0.56722   0.62647   0.00000  Uiso   1.00
N229   N     0.65554   0.19912   0.05227   0.00000  Uiso   1.00
N230   N     0.44604   0.37438   0.51081   0.00000  Uiso   1.00
C231   C     0.12326   0.74318   0.50778   0.00000  Uiso   1.00
C232   C     0.15136   0.82856   0.54369   0.00000  Uiso   1.00
C233   C     0.18259   0.83015   0.63082   0.00000  Uiso   1.00
C234   C     0.20484   0.91518   0.65036   0.00000  Uiso   1.00
C235   C     0.24982   0.03549   0.71602   0.00000  Uiso   1.00
C236   C     0.13258   0.72711   0.38544   0.00000  Uiso   1.00
C237   C     0.14801   0.64340   0.33950   0.00000  Uiso   1.00
C238   C     0.15444   0.64303   0.22583   0.00000  Uiso   1.00
C239   C     0.17023   0.60581   0.04578   0.00000  Uiso   1.00
C240   C     0.07485   0.77542   0.51183   0.00000  Uiso   1.00
C241   C     0.04173   0.73232   0.57214   0.00000  Uiso   1.00
C242   C     0.99954   0.77261   0.56485   0.00000  Uiso   1.00
C243   C     0.92569   0.81040   0.58105   0.00000  Uiso   1.00
C244   C     0.10723   0.89135   0.38757   0.00000  Uiso   1.00
C245   C     0.14266   0.90904   0.47839   0.00000  Uiso   1.00
C246   C     0.16486   0.99409   0.49782   0.00000  Uiso   1.00
C247   C     0.19611   0.99581   0.58496   0.00000  Uiso   1.00
C248   C     0.12388   0.80758   0.32014   0.00000  Uiso   1.00
C249   C     0.13028   0.80733   0.20651   0.00000  Uiso   1.00
C250   C     0.14572   0.72365   0.16041   0.00000  Uiso   1.00
C251   C     0.06614   0.85590   0.44654   0.00000  Uiso   1.00
C252   C     0.02399   0.89626   0.43915   0.00000  Uiso   1.00
C253   C     0.99082   0.85323   0.49944   0.00000  Uiso   1.00
H254   H     0.13004   0.68052   0.55861   0.00000  Uiso   1.00
H255   H     0.18932   0.76785   0.68132   0.00000  Uiso   1.00
H256   H     0.15474   0.58113   0.39005   0.00000  Uiso   1.00
H257   H     0.04848   0.67004   0.62266   0.00000  Uiso   1.00
H258   H     0.25123   0.90015   0.78855   0.00000  Uiso   1.00
H259   H     0.17830   0.50643   0.17439   0.00000  Uiso   1.00
H260   H     0.95422   0.69391   0.66488   0.00000  Uiso   1.00
H261   H     0.10045   0.95401   0.33673   0.00000  Uiso   1.00
H262   H     0.15811   0.05635   0.44728   0.00000  Uiso   1.00
H263   H     0.12353   0.86963   0.15601   0.00000  Uiso   1.00
H264   H     0.01727   0.95854   0.38861   0.00000  Uiso   1.00
H265   H     0.22589   0.13431   0.59858   0.00000  Uiso   1.00
H266   H     0.15297   0.74058   0.98442   0.00000  Uiso   1.00
H267   H     0.92888   0.92807   0.47492   0.00000  Uiso   1.00
O268   O     0.27704   0.07961   0.77026   0.00000  Uiso   1.00
O269   O     0.18135   0.56305   0.96451   0.00000  Uiso   1.00
O270   O     0.88736   0.80902   0.60803   0.00000  Uiso   1.00
N271   N     0.23734   0.94122   0.72868   0.00000  Uiso   1.00
N272   N     0.16917   0.57312   0.15448   0.00000  Uiso   1.00
N273   N     0.95967   0.74838   0.61303   0.00000  Uiso   1.00
N274   N     0.22371   0.06722   0.62647   0.00000  Uiso   1.00
N275   N     0.15554   0.69912   0.05227   0.00000  Uiso   1.00
N276   N     0.94604   0.87438   0.51081   0.00000  Uiso   1.00
C277   C     0.37674   0.24318   0.99222   0.00000  Uiso   1.00
C278   C     0.34864   0.32856   0.95631   0.00000  Uiso   1.00
C279   C     0.31741   0.33015   0.86918   0.00000  Uiso   1.00
C280   C     0.29516   0.41518   0.84964   0.00000  Uiso   1.00
C281   C     0.25018   0.53549   0.78398   0.00000  Uiso   1.00
C282   C     0.36742   0.22711   0.11456   0.00000  Uiso   1.00
C283   C     0.35199   0.14340   0.16050   0.00000  Uiso   1.00
C284   C     0.34556   0.14303   0.27417   0.00000  Uiso   1.00
C285   C     0.32977   0.10581   0.45422   0.00000  Uiso   1.00
C286   C     0.42515   0.27542   0.98817   0.00000  Uiso   1.00
C287   C     0.45827   0.23232   0.92786   0.00000  Uiso   1.00
C288   C     0.50046   0.27261   0.93515   0.00000  Uiso   1.00
C289   C     0.57431   0.31040   0.91895   0.00000  Uiso   1.00
C290   C     0.39277   0.39135   0.11243   0.00000  Uiso   1.00
C291   C     0.35734   0.40904   0.02161   0.00000  Uiso   1.00
C292   C     0.33514   0.49409   0.00218   0.00000  Uiso   1.00
C293   C     0.30389   0.49581   0.91504   0.00000  Uiso   1.00
C294   C     0.37612   0.30758   0.17986   0.00000  Uiso   1.00
C295   C     0.36972   0.30733   0.29349   0.00000  Uiso   1.00
C296   C     0.35428   0.22365   0.33959   0.00000  Uiso   1.00
C297   C     0.43386   0.35590   0.05346   0.00000  Uiso   1.00
C298   C     0.47601   0.39626   0.06085   0.00000  Uiso   1.00
C299   C     0.50918   0.35323   0.00056   0.00000  Uiso   1.00
H300   H     0.36996   0.18052   0.94139   0.00000  Uiso   1.00
H301   H     0.31068   0.26785   0.81868   0.00000  Uiso   1.00
H302   H     0.34526   0.08113   0.10995   0.00000  Uiso   1.00
H303   H     0.45152   0.17004   0.87734   0.00000  Uiso   1.00
H304   H     0.24877   0.40015   0.71145   0.00000  Uiso   1.00
H305   H     0.32170   0.00643   0.32561   0.00000  Uiso   1.00
H306   H     0.54578   0.19391   0.83512   0.00000  Uiso   1.00
H307   H     0.39955   0.45401   0.16327   0.00000  Uiso   1.00
H308   H     0.34189   0.55635   0.05272   0.00000  Uiso   1.00
H309   H     0.37647   0.36963   0.34399   0.00000  Uiso   1.00
H310   H     0.48273   0.45854   0.11139   0.00000  Uiso   1.00
H311   H     0.27411   0.63431   0.90142   0.00000  Uiso   1.00
H312   H     0.34703   0.24058   0.51558   0.00000  Uiso   1.00
H313   H     0.57112   0.42807   0.02508   0.00000  Uiso   1.00
O314   O     0.22296   0.57961   0.72974   0.00000  Uiso   1.00
O315   O     0.31865   0.06305   0.53549   0.00000  Uiso   1.00
O316   O     0.61264   0.30902   0.89197   0.00000  Uiso   1.00
N317   N     0.26266   0.44122   0.77132   0.00000  Uiso   1.00
N318   N     0.33083   0.07312   0.34552   0.00000  Uiso   1.00
N319   N     0.54033   0.24838   0.88697   0.00000  Uiso   1.00
N320   N     0.27629   0.56722   0.87353   0.00000  Uiso   1.00
N321   N     0.34446   0.19912   0.44773   0.00000  Uiso   1.00
N322   N     0.55396   0.37438   0.98919   0.00000  Uiso   1.00
C323   C     0.87674   0.74318   0.99222   0.00000  Uiso   1.00
C324   C     0.84864   0.82856   0.95631   0.00000  Uiso   1.00
C325   C     0.81741   0.83015   0.86918   0.00000  Uiso   1.00
C326   C     0.79516   0.91518   0.84964   0.00000  Uiso   1.00
C327   C     0.75018   0.03549   0.78398   0.00000  Uiso   1.00
C328   C     0.86742   0.72711   0.11456   0.00000  Uiso   1.00
C329   C     0.85199   0.64340   0.16050   0.00000  Uiso   1.00
C330   C     0.84556   0.64303   0.27417   0.00000  Uiso   1.00
C331   C     0.82977   0.60581   0.45422   0.00000  Uiso   1.00
C332   C     0.92515   0.77542   0.98817   0.00000  Uiso   1.00
C333   C     0.95827   0.73232   0.92786   0.00000  Uiso   1.00
C334   C     0.00046   0.77261   0.93515   0.00000  Uiso   1.00
C335   C     0.07431   0.81040   0.91895   0.00000  Uiso   1.00
C336   C     0.89277   0.89135   0.11243   0.00000  Uiso   1.00
C337   C     0.85734   0.90904   0.02161   0.00000  Uiso   1.00
C338   C     0.83514   0.99409   0.00218   0.00000  Uiso   1.00
C339   C     0.80389   0.99581   0.91504   0.00000  Uiso   1.00
C340   C     0.87612   0.80758   0.17986   0.00000  Uiso   1.00
C341   C     0.86972   0.80733   0.29349   0.00000  Uiso   1.00
C342   C     0.85428   0.72365   0.33959   0.00000  Uiso   1.00
C343   C     0.93386   0.85590   0.05346   0.00000  Uiso   1.00
C344   C     0.97601   0.89626   0.06085   0.00000  Uiso   1.00
C345   C     0.00918   0.85323   0.00056   0.00000  Uiso   1.00
H346   H     0.86996   0.68052   0.94139   0.00000  Uiso   1.00
H347   H     0.81068   0.76785   0.81868   0.00000  Uiso   1.00
H348   H     0.84526   0.58113   0.10995   0.00000  Uiso   1.00
H349   H     0.95152   0.67004   0.87734   0.00000  Uiso   1.00
H350   H     0.74877   0.90015   0.71145   0.00000  Uiso   1.00
H351   H     0.82170   0.50643   0.32561   0.00000  Uiso   1.00
H352   H     0.04578   0.69391   0.83512   0.00000  Uiso   1.00
H353   H     0.89955   0.95401   0.16327   0.00000  Uiso   1.00
H354   H     0.84189   0.05635   0.05272   0.00000  Uiso   1.00
H355   H     0.87647   0.86963   0.34399   0.00000  Uiso   1.00
H356   H     0.98273   0.95854   0.11139   0.00000  Uiso   1.00
H357   H     0.77411   0.13431   0.90142   0.00000  Uiso   1.00
H358   H     0.84703   0.74058   0.51558   0.00000  Uiso   1.00
H359   H     0.07112   0.92807   0.02508   0.00000  Uiso   1.00
O360   O     0.72296   0.07961   0.72974   0.00000  Uiso   1.00
O361   O     0.81865   0.56305   0.53549   0.00000  Uiso   1.00
O362   O     0.11264   0.80902   0.89197   0.00000  Uiso   1.00
N363   N     0.76266   0.94122   0.77132   0.00000  Uiso   1.00
N364   N     0.83083   0.57312   0.34552   0.00000  Uiso   1.00
N365   N     0.04033   0.74838   0.88697   0.00000  Uiso   1.00
N366   N     0.77629   0.06722   0.87353   0.00000  Uiso   1.00
N367   N     0.84446   0.69912   0.44773   0.00000  Uiso   1.00
N368   N     0.05396   0.87438   0.98919   0.00000  Uiso   1.00
