data_job_00180
_audit_creation_date              2018-12-19
_audit_creation_method            'Materials Studio'
_symmetry_space_group_name_H-M    'P1'
_symmetry_Int_Tables_number       1
_symmetry_cell_setting            triclinic
loop_
_symmetry_equiv_pos_as_xyz
  x,y,z
_cell_length_a                    19.3583
_cell_length_b                    23.8269
_cell_length_c                    12.8561
_cell_angle_alpha                 90.0000
_cell_angle_beta                  83.3229
_cell_angle_gamma                 90.0000
loop_
_atom_site_label
_atom_site_type_symbol
_atom_site_fract_x
_atom_site_fract_y
_atom_site_fract_z
_atom_site_U_iso_or_equiv
_atom_site_adp_type
_atom_site_occupancy
C1     C     0.19537   0.64007   0.81767   0.00000  Uiso   1.00
C2     C     0.18357   0.61055   0.71598   0.00000  Uiso   1.00
C3     C     0.12191   0.58573   0.69464   0.00000  Uiso   1.00
C4     C     0.12168   0.56087   0.59701   0.00000  Uiso   1.00
C5     C     0.09435   0.51502   0.45032   0.00000  Uiso   1.00
C6     C     0.25707   0.61055   0.85748   0.00000  Uiso   1.00
C7     C     0.25721   0.58573   0.95512   0.00000  Uiso   1.00
C8     C     0.31885   0.56087   0.97660   0.00000  Uiso   1.00
C9     C     0.40564   0.51504   0.04962   0.00000  Uiso   1.00
C10    C     0.22033   0.69910   0.78674   0.00000  Uiso   1.00
C11    C     0.18959   0.74874   0.82493   0.00000  Uiso   1.00
C12    C     0.22031   0.79844   0.78687   0.00000  Uiso   1.00
C13    C     0.25005   0.89011   0.75006   0.00000  Uiso   1.00
C14    C     0.30461   0.64007   0.68223   0.00000  Uiso   1.00
C15    C     0.24291   0.61055   0.64241   0.00000  Uiso   1.00
C16    C     0.24277   0.58573   0.54478   0.00000  Uiso   1.00
C17    C     0.18112   0.56087   0.52330   0.00000  Uiso   1.00
C18    C     0.31640   0.61055   0.78391   0.00000  Uiso   1.00
C19    C     0.37806   0.58573   0.80526   0.00000  Uiso   1.00
C20    C     0.37829   0.56087   0.90290   0.00000  Uiso   1.00
C21    C     0.27966   0.69910   0.71317   0.00000  Uiso   1.00
C22    C     0.31044   0.74874   0.67506   0.00000  Uiso   1.00
C23    C     0.27975   0.79844   0.71317   0.00000  Uiso   1.00
H24    H     0.14918   0.64007   0.87495   0.00000  Uiso   1.00
H25    H     0.07601   0.58574   0.75160   0.00000  Uiso   1.00
H26    H     0.21129   0.58574   0.01204   0.00000  Uiso   1.00
H27    H     0.14367   0.74872   0.88186   0.00000  Uiso   1.00
H28    H     0.02106   0.52548   0.58241   0.00000  Uiso   1.00
H29    H     0.30630   0.52550   0.13157   0.00000  Uiso   1.00
H30    H     0.16373   0.86919   0.85706   0.00000  Uiso   1.00
H31    H     0.35080   0.64007   0.62495   0.00000  Uiso   1.00
H32    H     0.28869   0.58573   0.48787   0.00000  Uiso   1.00
H33    H     0.42397   0.58573   0.74831   0.00000  Uiso   1.00
H34    H     0.35636   0.74872   0.61813   0.00000  Uiso   1.00
H35    H     0.19368   0.52547   0.36836   0.00000  Uiso   1.00
H36    H     0.47893   0.52550   0.91752   0.00000  Uiso   1.00
H37    H     0.33636   0.86918   0.64301   0.00000  Uiso   1.00
O38    O     0.06288   0.48972   0.38974   0.00000  Uiso   1.00
O39    O     0.43712   0.48976   0.11021   0.00000  Uiso   1.00
O40    O     0.25006   0.94067   0.75007   0.00000  Uiso   1.00
N41    N     0.07020   0.53294   0.55084   0.00000  Uiso   1.00
N42    N     0.33689   0.53296   0.06426   0.00000  Uiso   1.00
N43    N     0.20361   0.85428   0.80764   0.00000  Uiso   1.00
N44    N     0.16309   0.53294   0.43566   0.00000  Uiso   1.00
N45    N     0.42978   0.53296   0.94908   0.00000  Uiso   1.00
N46    N     0.29650   0.85427   0.69246   0.00000  Uiso   1.00
C47    C     0.69537   0.14007   0.81767   0.00000  Uiso   1.00
C48    C     0.68357   0.11055   0.71598   0.00000  Uiso   1.00
C49    C     0.62191   0.08573   0.69464   0.00000  Uiso   1.00
C50    C     0.62168   0.06087   0.59701   0.00000  Uiso   1.00
C51    C     0.59435   0.01502   0.45032   0.00000  Uiso   1.00
C52    C     0.75707   0.11055   0.85748   0.00000  Uiso   1.00
C53    C     0.75721   0.08573   0.95512   0.00000  Uiso   1.00
C54    C     0.81885   0.06087   0.97660   0.00000  Uiso   1.00
C55    C     0.90564   0.01504   0.04962   0.00000  Uiso   1.00
C56    C     0.72033   0.19910   0.78674   0.00000  Uiso   1.00
C57    C     0.68959   0.24874   0.82493   0.00000  Uiso   1.00
C58    C     0.72031   0.29844   0.78687   0.00000  Uiso   1.00
C59    C     0.75005   0.39011   0.75006   0.00000  Uiso   1.00
C60    C     0.80461   0.14007   0.68223   0.00000  Uiso   1.00
C61    C     0.74291   0.11055   0.64241   0.00000  Uiso   1.00
C62    C     0.74277   0.08573   0.54478   0.00000  Uiso   1.00
C63    C     0.68112   0.06087   0.52330   0.00000  Uiso   1.00
C64    C     0.81640   0.11055   0.78391   0.00000  Uiso   1.00
C65    C     0.87806   0.08573   0.80526   0.00000  Uiso   1.00
C66    C     0.87829   0.06087   0.90290   0.00000  Uiso   1.00
C67    C     0.77966   0.19910   0.71317   0.00000  Uiso   1.00
C68    C     0.81044   0.24874   0.67506   0.00000  Uiso   1.00
C69    C     0.77975   0.29844   0.71317   0.00000  Uiso   1.00
H70    H     0.64918   0.14007   0.87495   0.00000  Uiso   1.00
H71    H     0.57601   0.08574   0.75160   0.00000  Uiso   1.00
H72    H     0.71129   0.08574   0.01204   0.00000  Uiso   1.00
H73    H     0.64367   0.24872   0.88186   0.00000  Uiso   1.00
H74    H     0.52106   0.02548   0.58241   0.00000  Uiso   1.00
H75    H     0.80630   0.02550   0.13157   0.00000  Uiso   1.00
H76    H     0.66373   0.36919   0.85706   0.00000  Uiso   1.00
H77    H     0.85080   0.14007   0.62495   0.00000  Uiso   1.00
H78    H     0.78869   0.08573   0.48787   0.00000  Uiso   1.00
H79    H     0.92397   0.08573   0.74831   0.00000  Uiso   1.00
H80    H     0.85636   0.24872   0.61813   0.00000  Uiso   1.00
H81    H     0.69368   0.02547   0.36836   0.00000  Uiso   1.00
H82    H     0.97893   0.02550   0.91752   0.00000  Uiso   1.00
H83    H     0.83636   0.36918   0.64301   0.00000  Uiso   1.00
O84    O     0.56288   0.98972   0.38974   0.00000  Uiso   1.00
O85    O     0.93712   0.98976   0.11021   0.00000  Uiso   1.00
O86    O     0.75006   0.44067   0.75007   0.00000  Uiso   1.00
N87    N     0.57020   0.03294   0.55084   0.00000  Uiso   1.00
N88    N     0.83689   0.03296   0.06426   0.00000  Uiso   1.00
N89    N     0.70361   0.35428   0.80764   0.00000  Uiso   1.00
N90    N     0.66309   0.03294   0.43566   0.00000  Uiso   1.00
N91    N     0.92978   0.03296   0.94908   0.00000  Uiso   1.00
N92    N     0.79650   0.35427   0.69246   0.00000  Uiso   1.00
C93    C     0.80463   0.64007   0.68233   0.00000  Uiso   1.00
C94    C     0.81643   0.61055   0.78402   0.00000  Uiso   1.00
C95    C     0.87809   0.58573   0.80536   0.00000  Uiso   1.00
C96    C     0.87832   0.56087   0.90299   0.00000  Uiso   1.00
C97    C     0.90565   0.51502   0.04968   0.00000  Uiso   1.00
C98    C     0.74293   0.61055   0.64252   0.00000  Uiso   1.00
C99    C     0.74279   0.58573   0.54488   0.00000  Uiso   1.00
C100   C     0.68115   0.56087   0.52340   0.00000  Uiso   1.00
C101   C     0.59436   0.51504   0.45038   0.00000  Uiso   1.00
C102   C     0.77967   0.69910   0.71326   0.00000  Uiso   1.00
C103   C     0.81041   0.74874   0.67507   0.00000  Uiso   1.00
C104   C     0.77969   0.79844   0.71313   0.00000  Uiso   1.00
C105   C     0.74995   0.89011   0.74994   0.00000  Uiso   1.00
C106   C     0.69539   0.64007   0.81777   0.00000  Uiso   1.00
C107   C     0.75709   0.61055   0.85759   0.00000  Uiso   1.00
C108   C     0.75723   0.58573   0.95522   0.00000  Uiso   1.00
C109   C     0.81888   0.56087   0.97670   0.00000  Uiso   1.00
C110   C     0.68360   0.61055   0.71609   0.00000  Uiso   1.00
C111   C     0.62194   0.58573   0.69474   0.00000  Uiso   1.00
C112   C     0.62171   0.56087   0.59710   0.00000  Uiso   1.00
C113   C     0.72034   0.69910   0.78683   0.00000  Uiso   1.00
C114   C     0.68956   0.74874   0.82494   0.00000  Uiso   1.00
C115   C     0.72025   0.79844   0.78683   0.00000  Uiso   1.00
H116   H     0.85082   0.64007   0.62505   0.00000  Uiso   1.00
H117   H     0.92399   0.58574   0.74840   0.00000  Uiso   1.00
H118   H     0.78871   0.58574   0.48796   0.00000  Uiso   1.00
H119   H     0.85633   0.74872   0.61814   0.00000  Uiso   1.00
H120   H     0.97894   0.52548   0.91759   0.00000  Uiso   1.00
H121   H     0.69370   0.52550   0.36843   0.00000  Uiso   1.00
H122   H     0.83627   0.86919   0.64294   0.00000  Uiso   1.00
H123   H     0.64920   0.64007   0.87505   0.00000  Uiso   1.00
H124   H     0.71131   0.58573   0.01213   0.00000  Uiso   1.00
H125   H     0.57603   0.58573   0.75169   0.00000  Uiso   1.00
H126   H     0.64364   0.74872   0.88187   0.00000  Uiso   1.00
H127   H     0.80632   0.52547   0.13164   0.00000  Uiso   1.00
H128   H     0.52107   0.52550   0.58248   0.00000  Uiso   1.00
H129   H     0.66364   0.86918   0.85699   0.00000  Uiso   1.00
O130   O     0.93712   0.48972   0.11026   0.00000  Uiso   1.00
O131   O     0.56288   0.48976   0.38979   0.00000  Uiso   1.00
O132   O     0.74994   0.94067   0.74993   0.00000  Uiso   1.00
N133   N     0.92980   0.53294   0.94916   0.00000  Uiso   1.00
N134   N     0.66311   0.53296   0.43574   0.00000  Uiso   1.00
N135   N     0.79639   0.85428   0.69236   0.00000  Uiso   1.00
N136   N     0.83691   0.53294   0.06434   0.00000  Uiso   1.00
N137   N     0.57022   0.53296   0.55092   0.00000  Uiso   1.00
N138   N     0.70350   0.85427   0.80754   0.00000  Uiso   1.00
C139   C     0.30463   0.14007   0.68233   0.00000  Uiso   1.00
C140   C     0.31643   0.11055   0.78402   0.00000  Uiso   1.00
C141   C     0.37809   0.08573   0.80536   0.00000  Uiso   1.00
C142   C     0.37832   0.06087   0.90299   0.00000  Uiso   1.00
C143   C     0.40565   0.01502   0.04968   0.00000  Uiso   1.00
C144   C     0.24293   0.11055   0.64252   0.00000  Uiso   1.00
C145   C     0.24279   0.08573   0.54488   0.00000  Uiso   1.00
C146   C     0.18115   0.06087   0.52340   0.00000  Uiso   1.00
C147   C     0.09436   0.01504   0.45038   0.00000  Uiso   1.00
C148   C     0.27967   0.19910   0.71326   0.00000  Uiso   1.00
C149   C     0.31041   0.24874   0.67507   0.00000  Uiso   1.00
C150   C     0.27969   0.29844   0.71313   0.00000  Uiso   1.00
C151   C     0.24995   0.39011   0.74994   0.00000  Uiso   1.00
C152   C     0.19539   0.14007   0.81777   0.00000  Uiso   1.00
C153   C     0.25709   0.11055   0.85759   0.00000  Uiso   1.00
C154   C     0.25723   0.08573   0.95522   0.00000  Uiso   1.00
C155   C     0.31888   0.06087   0.97670   0.00000  Uiso   1.00
C156   C     0.18360   0.11055   0.71609   0.00000  Uiso   1.00
C157   C     0.12194   0.08573   0.69474   0.00000  Uiso   1.00
C158   C     0.12171   0.06087   0.59710   0.00000  Uiso   1.00
C159   C     0.22034   0.19910   0.78683   0.00000  Uiso   1.00
C160   C     0.18956   0.24874   0.82494   0.00000  Uiso   1.00
C161   C     0.22025   0.29844   0.78683   0.00000  Uiso   1.00
H162   H     0.35082   0.14007   0.62505   0.00000  Uiso   1.00
H163   H     0.42399   0.08574   0.74840   0.00000  Uiso   1.00
H164   H     0.28871   0.08574   0.48796   0.00000  Uiso   1.00
H165   H     0.35633   0.24872   0.61814   0.00000  Uiso   1.00
H166   H     0.47894   0.02548   0.91759   0.00000  Uiso   1.00
H167   H     0.19370   0.02550   0.36843   0.00000  Uiso   1.00
H168   H     0.33627   0.36919   0.64294   0.00000  Uiso   1.00
H169   H     0.14920   0.14007   0.87505   0.00000  Uiso   1.00
H170   H     0.21131   0.08573   0.01213   0.00000  Uiso   1.00
H171   H     0.07603   0.08573   0.75169   0.00000  Uiso   1.00
H172   H     0.14364   0.24872   0.88187   0.00000  Uiso   1.00
H173   H     0.30632   0.02547   0.13164   0.00000  Uiso   1.00
H174   H     0.02107   0.02550   0.58248   0.00000  Uiso   1.00
H175   H     0.16364   0.36918   0.85699   0.00000  Uiso   1.00
O176   O     0.43712   0.98972   0.11026   0.00000  Uiso   1.00
O177   O     0.06288   0.98976   0.38979   0.00000  Uiso   1.00
O178   O     0.24994   0.44067   0.74993   0.00000  Uiso   1.00
N179   N     0.42980   0.03294   0.94916   0.00000  Uiso   1.00
N180   N     0.16311   0.03296   0.43574   0.00000  Uiso   1.00
N181   N     0.29639   0.35428   0.69236   0.00000  Uiso   1.00
N182   N     0.33691   0.03294   0.06434   0.00000  Uiso   1.00
N183   N     0.07022   0.03296   0.55092   0.00000  Uiso   1.00
N184   N     0.20350   0.35427   0.80754   0.00000  Uiso   1.00
C185   C     0.80463   0.35993   0.18233   0.00000  Uiso   1.00
C186   C     0.81643   0.38945   0.28402   0.00000  Uiso   1.00
C187   C     0.87809   0.41427   0.30536   0.00000  Uiso   1.00
C188   C     0.87832   0.43913   0.40299   0.00000  Uiso   1.00
C189   C     0.90565   0.48498   0.54968   0.00000  Uiso   1.00
C190   C     0.74293   0.38945   0.14252   0.00000  Uiso   1.00
C191   C     0.74279   0.41427   0.04488   0.00000  Uiso   1.00
C192   C     0.68115   0.43913   0.02340   0.00000  Uiso   1.00
C193   C     0.59436   0.48496   0.95038   0.00000  Uiso   1.00
C194   C     0.77967   0.30090   0.21326   0.00000  Uiso   1.00
C195   C     0.81041   0.25126   0.17507   0.00000  Uiso   1.00
C196   C     0.77969   0.20156   0.21313   0.00000  Uiso   1.00
C197   C     0.74995   0.10989   0.24994   0.00000  Uiso   1.00
C198   C     0.69539   0.35993   0.31777   0.00000  Uiso   1.00
C199   C     0.75709   0.38945   0.35759   0.00000  Uiso   1.00
C200   C     0.75723   0.41427   0.45522   0.00000  Uiso   1.00
C201   C     0.81888   0.43913   0.47670   0.00000  Uiso   1.00
C202   C     0.68360   0.38945   0.21609   0.00000  Uiso   1.00
C203   C     0.62194   0.41427   0.19474   0.00000  Uiso   1.00
C204   C     0.62171   0.43913   0.09710   0.00000  Uiso   1.00
C205   C     0.72034   0.30090   0.28683   0.00000  Uiso   1.00
C206   C     0.68956   0.25126   0.32494   0.00000  Uiso   1.00
C207   C     0.72025   0.20156   0.28683   0.00000  Uiso   1.00
H208   H     0.85082   0.35993   0.12505   0.00000  Uiso   1.00
H209   H     0.92399   0.41426   0.24840   0.00000  Uiso   1.00
H210   H     0.78871   0.41426   0.98796   0.00000  Uiso   1.00
H211   H     0.85633   0.25128   0.11814   0.00000  Uiso   1.00
H212   H     0.97894   0.47452   0.41759   0.00000  Uiso   1.00
H213   H     0.69370   0.47450   0.86843   0.00000  Uiso   1.00
H214   H     0.83627   0.13081   0.14294   0.00000  Uiso   1.00
H215   H     0.64920   0.35993   0.37505   0.00000  Uiso   1.00
H216   H     0.71131   0.41427   0.51213   0.00000  Uiso   1.00
H217   H     0.57603   0.41427   0.25169   0.00000  Uiso   1.00
H218   H     0.64364   0.25128   0.38187   0.00000  Uiso   1.00
H219   H     0.80632   0.47453   0.63164   0.00000  Uiso   1.00
H220   H     0.52107   0.47450   0.08248   0.00000  Uiso   1.00
H221   H     0.66364   0.13082   0.35699   0.00000  Uiso   1.00
O222   O     0.93712   0.51028   0.61026   0.00000  Uiso   1.00
O223   O     0.56288   0.51024   0.88979   0.00000  Uiso   1.00
O224   O     0.74994   0.05933   0.24993   0.00000  Uiso   1.00
N225   N     0.92980   0.46706   0.44916   0.00000  Uiso   1.00
N226   N     0.66311   0.46704   0.93574   0.00000  Uiso   1.00
N227   N     0.79639   0.14572   0.19236   0.00000  Uiso   1.00
N228   N     0.83691   0.46706   0.56434   0.00000  Uiso   1.00
N229   N     0.57022   0.46704   0.05092   0.00000  Uiso   1.00
N230   N     0.70350   0.14573   0.30754   0.00000  Uiso   1.00
C231   C     0.30463   0.85993   0.18233   0.00000  Uiso   1.00
C232   C     0.31643   0.88945   0.28402   0.00000  Uiso   1.00
C233   C     0.37809   0.91427   0.30536   0.00000  Uiso   1.00
C234   C     0.37832   0.93913   0.40299   0.00000  Uiso   1.00
C235   C     0.40565   0.98498   0.54968   0.00000  Uiso   1.00
C236   C     0.24293   0.88945   0.14252   0.00000  Uiso   1.00
C237   C     0.24279   0.91427   0.04488   0.00000  Uiso   1.00
C238   C     0.18115   0.93913   0.02340   0.00000  Uiso   1.00
C239   C     0.09436   0.98496   0.95038   0.00000  Uiso   1.00
C240   C     0.27967   0.80090   0.21326   0.00000  Uiso   1.00
C241   C     0.31041   0.75126   0.17507   0.00000  Uiso   1.00
C242   C     0.27969   0.70156   0.21313   0.00000  Uiso   1.00
C243   C     0.24995   0.60989   0.24994   0.00000  Uiso   1.00
C244   C     0.19539   0.85993   0.31777   0.00000  Uiso   1.00
C245   C     0.25709   0.88945   0.35759   0.00000  Uiso   1.00
C246   C     0.25723   0.91427   0.45522   0.00000  Uiso   1.00
C247   C     0.31888   0.93913   0.47670   0.00000  Uiso   1.00
C248   C     0.18360   0.88945   0.21609   0.00000  Uiso   1.00
C249   C     0.12194   0.91427   0.19474   0.00000  Uiso   1.00
C250   C     0.12171   0.93913   0.09710   0.00000  Uiso   1.00
C251   C     0.22034   0.80090   0.28683   0.00000  Uiso   1.00
C252   C     0.18956   0.75126   0.32494   0.00000  Uiso   1.00
C253   C     0.22025   0.70156   0.28683   0.00000  Uiso   1.00
H254   H     0.35082   0.85993   0.12505   0.00000  Uiso   1.00
H255   H     0.42399   0.91426   0.24840   0.00000  Uiso   1.00
H256   H     0.28871   0.91426   0.98796   0.00000  Uiso   1.00
H257   H     0.35633   0.75128   0.11814   0.00000  Uiso   1.00
H258   H     0.47894   0.97452   0.41759   0.00000  Uiso   1.00
H259   H     0.19370   0.97450   0.86843   0.00000  Uiso   1.00
H260   H     0.33627   0.63081   0.14294   0.00000  Uiso   1.00
H261   H     0.14920   0.85993   0.37505   0.00000  Uiso   1.00
H262   H     0.21131   0.91427   0.51213   0.00000  Uiso   1.00
H263   H     0.07603   0.91427   0.25169   0.00000  Uiso   1.00
H264   H     0.14364   0.75128   0.38187   0.00000  Uiso   1.00
H265   H     0.30632   0.97453   0.63164   0.00000  Uiso   1.00
H266   H     0.02107   0.97450   0.08248   0.00000  Uiso   1.00
H267   H     0.16364   0.63082   0.35699   0.00000  Uiso   1.00
O268   O     0.43712   0.01028   0.61026   0.00000  Uiso   1.00
O269   O     0.06288   0.01024   0.88979   0.00000  Uiso   1.00
O270   O     0.24994   0.55933   0.24993   0.00000  Uiso   1.00
N271   N     0.42980   0.96706   0.44916   0.00000  Uiso   1.00
N272   N     0.16311   0.96704   0.93574   0.00000  Uiso   1.00
N273   N     0.29639   0.64572   0.19236   0.00000  Uiso   1.00
N274   N     0.33691   0.96706   0.56434   0.00000  Uiso   1.00
N275   N     0.07022   0.96704   0.05092   0.00000  Uiso   1.00
N276   N     0.20350   0.64573   0.30754   0.00000  Uiso   1.00
C277   C     0.19537   0.35993   0.31767   0.00000  Uiso   1.00
C278   C     0.18357   0.38945   0.21598   0.00000  Uiso   1.00
C279   C     0.12191   0.41427   0.19464   0.00000  Uiso   1.00
C280   C     0.12168   0.43913   0.09701   0.00000  Uiso   1.00
C281   C     0.09435   0.48498   0.95032   0.00000  Uiso   1.00
C282   C     0.25707   0.38945   0.35748   0.00000  Uiso   1.00
C283   C     0.25721   0.41427   0.45512   0.00000  Uiso   1.00
C284   C     0.31885   0.43913   0.47660   0.00000  Uiso   1.00
C285   C     0.40564   0.48496   0.54962   0.00000  Uiso   1.00
C286   C     0.22033   0.30090   0.28674   0.00000  Uiso   1.00
C287   C     0.18959   0.25126   0.32493   0.00000  Uiso   1.00
C288   C     0.22031   0.20156   0.28687   0.00000  Uiso   1.00
C289   C     0.25005   0.10989   0.25006   0.00000  Uiso   1.00
C290   C     0.30461   0.35993   0.18223   0.00000  Uiso   1.00
C291   C     0.24291   0.38945   0.14241   0.00000  Uiso   1.00
C292   C     0.24277   0.41427   0.04478   0.00000  Uiso   1.00
C293   C     0.18112   0.43913   0.02330   0.00000  Uiso   1.00
C294   C     0.31640   0.38945   0.28391   0.00000  Uiso   1.00
C295   C     0.37806   0.41427   0.30526   0.00000  Uiso   1.00
C296   C     0.37829   0.43913   0.40290   0.00000  Uiso   1.00
C297   C     0.27966   0.30090   0.21317   0.00000  Uiso   1.00
C298   C     0.31044   0.25126   0.17506   0.00000  Uiso   1.00
C299   C     0.27975   0.20156   0.21317   0.00000  Uiso   1.00
H300   H     0.14918   0.35993   0.37495   0.00000  Uiso   1.00
H301   H     0.07601   0.41426   0.25160   0.00000  Uiso   1.00
H302   H     0.21129   0.41426   0.51204   0.00000  Uiso   1.00
H303   H     0.14367   0.25128   0.38186   0.00000  Uiso   1.00
H304   H     0.02106   0.47452   0.08241   0.00000  Uiso   1.00
H305   H     0.30630   0.47450   0.63157   0.00000  Uiso   1.00
H306   H     0.16373   0.13081   0.35706   0.00000  Uiso   1.00
H307   H     0.35080   0.35993   0.12495   0.00000  Uiso   1.00
H308   H     0.28869   0.41427   0.98787   0.00000  Uiso   1.00
H309   H     0.42397   0.41427   0.24831   0.00000  Uiso   1.00
H310   H     0.35636   0.25128   0.11813   0.00000  Uiso   1.00
H311   H     0.19368   0.47453   0.86836   0.00000  Uiso   1.00
H312   H     0.47893   0.47450   0.41752   0.00000  Uiso   1.00
H313   H     0.33636   0.13082   0.14301   0.00000  Uiso   1.00
O314   O     0.06288   0.51028   0.88974   0.00000  Uiso   1.00
O315   O     0.43712   0.51024   0.61021   0.00000  Uiso   1.00
O316   O     0.25006   0.05933   0.25007   0.00000  Uiso   1.00
N317   N     0.07020   0.46706   0.05084   0.00000  Uiso   1.00
N318   N     0.33689   0.46704   0.56426   0.00000  Uiso   1.00
N319   N     0.20361   0.14572   0.30764   0.00000  Uiso   1.00
N320   N     0.16309   0.46706   0.93566   0.00000  Uiso   1.00
N321   N     0.42978   0.46704   0.44908   0.00000  Uiso   1.00
N322   N     0.29650   0.14573   0.19246   0.00000  Uiso   1.00
C323   C     0.69537   0.85993   0.31767   0.00000  Uiso   1.00
C324   C     0.68357   0.88945   0.21598   0.00000  Uiso   1.00
C325   C     0.62191   0.91427   0.19464   0.00000  Uiso   1.00
C326   C     0.62168   0.93913   0.09701   0.00000  Uiso   1.00
C327   C     0.59435   0.98498   0.95032   0.00000  Uiso   1.00
C328   C     0.75707   0.88945   0.35748   0.00000  Uiso   1.00
C329   C     0.75721   0.91427   0.45512   0.00000  Uiso   1.00
C330   C     0.81885   0.93913   0.47660   0.00000  Uiso   1.00
C331   C     0.90564   0.98496   0.54962   0.00000  Uiso   1.00
C332   C     0.72033   0.80090   0.28674   0.00000  Uiso   1.00
C333   C     0.68959   0.75126   0.32493   0.00000  Uiso   1.00
C334   C     0.72031   0.70156   0.28687   0.00000  Uiso   1.00
C335   C     0.75005   0.60989   0.25006   0.00000  Uiso   1.00
C336   C     0.80461   0.85993   0.18223   0.00000  Uiso   1.00
C337   C     0.74291   0.88945   0.14241   0.00000  Uiso   1.00
C338   C     0.74277   0.91427   0.04478   0.00000  Uiso   1.00
C339   C     0.68112   0.93913   0.02330   0.00000  Uiso   1.00
C340   C     0.81640   0.88945   0.28391   0.00000  Uiso   1.00
C341   C     0.87806   0.91427   0.30526   0.00000  Uiso   1.00
C342   C     0.87829   0.93913   0.40290   0.00000  Uiso   1.00
C343   C     0.77966   0.80090   0.21317   0.00000  Uiso   1.00
C344   C     0.81044   0.75126   0.17506   0.00000  Uiso   1.00
C345   C     0.77975   0.70156   0.21317   0.00000  Uiso   1.00
H346   H     0.64918   0.85993   0.37495   0.00000  Uiso   1.00
H347   H     0.57601   0.91426   0.25160   0.00000  Uiso   1.00
H348   H     0.71129   0.91426   0.51204   0.00000  Uiso   1.00
H349   H     0.64367   0.75128   0.38186   0.00000  Uiso   1.00
H350   H     0.52106   0.97452   0.08241   0.00000  Uiso   1.00
H351   H     0.80630   0.97450   0.63157   0.00000  Uiso   1.00
H352   H     0.66373   0.63081   0.35706   0.00000  Uiso   1.00
H353   H     0.85080   0.85993   0.12495   0.00000  Uiso   1.00
H354   H     0.78869   0.91427   0.98787   0.00000  Uiso   1.00
H355   H     0.92397   0.91427   0.24831   0.00000  Uiso   1.00
H356   H     0.85636   0.75128   0.11813   0.00000  Uiso   1.00
H357   H     0.69368   0.97453   0.86836   0.00000  Uiso   1.00
H358   H     0.97893   0.97450   0.41752   0.00000  Uiso   1.00
H359   H     0.83636   0.63082   0.14301   0.00000  Uiso   1.00
O360   O     0.56288   0.01028   0.88974   0.00000  Uiso   1.00
O361   O     0.93712   0.01024   0.61021   0.00000  Uiso   1.00
O362   O     0.75006   0.55933   0.25007   0.00000  Uiso   1.00
N363   N     0.57020   0.96706   0.05084   0.00000  Uiso   1.00
N364   N     0.83689   0.96704   0.56426   0.00000  Uiso   1.00
N365   N     0.70361   0.64572   0.30764   0.00000  Uiso   1.00
N366   N     0.66309   0.96706   0.93566   0.00000  Uiso   1.00
N367   N     0.92978   0.96704   0.44908   0.00000  Uiso   1.00
N368   N     0.79650   0.64573   0.19246   0.00000  Uiso   1.00
