data_job_06135
_audit_creation_date              2018-12-19
_audit_creation_method            'Materials Studio'
_symmetry_space_group_name_H-M    'P1'
_symmetry_Int_Tables_number       1
_symmetry_cell_setting            triclinic
loop_
_symmetry_equiv_pos_as_xyz
  x,y,z
_cell_length_a                    16.5714
_cell_length_b                    16.2008
_cell_length_c                    15.3674
_cell_angle_alpha                 96.4345
_cell_angle_beta                  96.6022
_cell_angle_gamma                 95.4325
loop_
_atom_site_label
_atom_site_type_symbol
_atom_site_fract_x
_atom_site_fract_y
_atom_site_fract_z
_atom_site_U_iso_or_equiv
_atom_site_adp_type
_atom_site_occupancy
C1     C     0.72154   0.59023   0.02000   0.00000  Uiso   1.00
C2     C     0.73415   0.50817   0.05683   0.00000  Uiso   1.00
C3     C     0.71939   0.48989   0.14004   0.00000  Uiso   1.00
C4     C     0.73478   0.41131   0.16127   0.00000  Uiso   1.00
C5     C     0.74998   0.29275   0.22758   0.00000  Uiso   1.00
C6     C     0.80360   0.62192   0.99325   0.00000  Uiso   1.00
C7     C     0.84722   0.69928   0.02300   0.00000  Uiso   1.00
C8     C     0.92106   0.71644   0.99068   0.00000  Uiso   1.00
C9     C     0.04405   0.77450   0.95824   0.00000  Uiso   1.00
C10    C     0.66359   0.56724   0.93434   0.00000  Uiso   1.00
C11    C     0.58950   0.59865   0.91454   0.00000  Uiso   1.00
C12    C     0.54548   0.56980   0.83262   0.00000  Uiso   1.00
C13    C     0.45108   0.54298   0.70872   0.00000  Uiso   1.00
C14    C     0.77512   0.48318   0.90971   0.00000  Uiso   1.00
C15    C     0.76326   0.45003   0.99693   0.00000  Uiso   1.00
C16    C     0.77867   0.37145   0.01803   0.00000  Uiso   1.00
C17    C     0.76393   0.35305   0.10125   0.00000  Uiso   1.00
C18    C     0.83271   0.56377   0.93335   0.00000  Uiso   1.00
C19    C     0.90650   0.58084   0.90098   0.00000  Uiso   1.00
C20    C     0.95022   0.65819   0.93067   0.00000  Uiso   1.00
C21    C     0.69269   0.50910   0.87444   0.00000  Uiso   1.00
C22    C     0.64878   0.48020   0.79253   0.00000  Uiso   1.00
C23    C     0.57464   0.51155   0.77261   0.00000  Uiso   1.00
H24    H     0.69888   0.63550   0.06664   0.00000  Uiso   1.00
H25    H     0.69687   0.53491   0.18639   0.00000  Uiso   1.00
H26    H     0.82468   0.74426   0.06935   0.00000  Uiso   1.00
H27    H     0.56700   0.64364   0.96092   0.00000  Uiso   1.00
H28    H     0.70750   0.39775   0.29275   0.00000  Uiso   1.00
H29    H     0.97697   0.83919   0.04594   0.00000  Uiso   1.00
H30    H     0.43361   0.62703   0.81729   0.00000  Uiso   1.00
H31    H     0.79778   0.43791   0.86307   0.00000  Uiso   1.00
H32    H     0.80120   0.32647   0.97165   0.00000  Uiso   1.00
H33    H     0.92900   0.53582   0.85462   0.00000  Uiso   1.00
H34    H     0.67133   0.43521   0.74619   0.00000  Uiso   1.00
H35    H     0.79218   0.22857   0.11846   0.00000  Uiso   1.00
H36    H     0.06165   0.67002   0.87166   0.00000  Uiso   1.00
H37    H     0.51829   0.45785   0.64301   0.00000  Uiso   1.00
O38    O     0.75033   0.24343   0.28072   0.00000  Uiso   1.00
O39    O     0.10385   0.82259   0.95690   0.00000  Uiso   1.00
O40    O     0.39097   0.54423   0.65693   0.00000  Uiso   1.00
N41    N     0.72695   0.37322   0.23682   0.00000  Uiso   1.00
N42    N     0.97889   0.78594   0.00608   0.00000  Uiso   1.00
N43    N     0.47090   0.58760   0.79231   0.00000  Uiso   1.00
N44    N     0.77251   0.28219   0.14304   0.00000  Uiso   1.00
N45    N     0.02446   0.69491   0.91230   0.00000  Uiso   1.00
N46    N     0.51647   0.49657   0.69853   0.00000  Uiso   1.00
C47    C     0.01336   0.72158   0.59480   0.00000  Uiso   1.00
C48    C     0.04769   0.73378   0.50867   0.00000  Uiso   1.00
C49    C     0.12515   0.71817   0.48984   0.00000  Uiso   1.00
C50    C     0.14495   0.73331   0.40728   0.00000  Uiso   1.00
C51    C     0.20675   0.74779   0.28290   0.00000  Uiso   1.00
C52    C     0.98732   0.80581   0.62884   0.00000  Uiso   1.00
C53    C     0.01402   0.85074   0.71105   0.00000  Uiso   1.00
C54    C     0.98299   0.92651   0.72965   0.00000  Uiso   1.00
C55    C     0.95102   0.05278   0.79186   0.00000  Uiso   1.00
C56    C     0.93477   0.66261   0.56938   0.00000  Uiso   1.00
C57    C     0.91726   0.58714   0.60162   0.00000  Uiso   1.00
C58    C     0.84198   0.54235   0.57017   0.00000  Uiso   1.00
C59    C     0.72841   0.44628   0.54006   0.00000  Uiso   1.00
C60    C     0.91078   0.77624   0.48167   0.00000  Uiso   1.00
C61    C     0.99197   0.76348   0.44722   0.00000  Uiso   1.00
C62    C     0.01165   0.77865   0.36467   0.00000  Uiso   1.00
C63    C     0.08913   0.76306   0.34572   0.00000  Uiso   1.00
C64    C     0.93161   0.83550   0.56739   0.00000  Uiso   1.00
C65    C     0.90052   0.91123   0.58588   0.00000  Uiso   1.00
C66    C     0.92717   0.95626   0.66809   0.00000  Uiso   1.00
C67    C     0.87905   0.69230   0.50792   0.00000  Uiso   1.00
C68    C     0.80377   0.64762   0.47644   0.00000  Uiso   1.00
C69    C     0.78616   0.57210   0.50862   0.00000  Uiso   1.00
H70    H     0.05674   0.69846   0.64265   0.00000  Uiso   1.00
H71    H     0.16826   0.69519   0.53742   0.00000  Uiso   1.00
H72    H     0.05714   0.82774   0.75859   0.00000  Uiso   1.00
H73    H     0.96040   0.56418   0.64917   0.00000  Uiso   1.00
H74    H     0.26733   0.70469   0.39366   0.00000  Uiso   1.00
H75    H     0.03301   0.98417   0.86003   0.00000  Uiso   1.00
H76    H     0.82902   0.42839   0.62929   0.00000  Uiso   1.00
H77    H     0.86739   0.79937   0.43383   0.00000  Uiso   1.00
H78    H     0.96852   0.80163   0.31713   0.00000  Uiso   1.00
H79    H     0.85740   0.93418   0.53831   0.00000  Uiso   1.00
H80    H     0.76067   0.67062   0.42889   0.00000  Uiso   1.00
H81    H     0.10522   0.79109   0.21487   0.00000  Uiso   1.00
H82    H     0.87089   0.07056   0.68125   0.00000  Uiso   1.00
H83    H     0.66691   0.51479   0.45050   0.00000  Uiso   1.00
O84    O     0.25623   0.74759   0.23128   0.00000  Uiso   1.00
O85    O     0.94879   0.11423   0.84315   0.00000  Uiso   1.00
O86    O     0.68116   0.38508   0.54042   0.00000  Uiso   1.00
N87    N     0.21530   0.72470   0.36759   0.00000  Uiso   1.00
N88    N     0.99622   0.98600   0.80362   0.00000  Uiso   1.00
N89    N     0.80550   0.46641   0.58791   0.00000  Uiso   1.00
N90    N     0.12807   0.77119   0.27138   0.00000  Uiso   1.00
N91    N     0.90899   0.03248   0.70741   0.00000  Uiso   1.00
N92    N     0.71827   0.51289   0.49171   0.00000  Uiso   1.00
C93    C     0.58806   0.01475   0.72276   0.00000  Uiso   1.00
C94    C     0.50765   0.05035   0.73535   0.00000  Uiso   1.00
C95    C     0.48922   0.12955   0.71952   0.00000  Uiso   1.00
C96    C     0.41231   0.15029   0.73510   0.00000  Uiso   1.00
C97    C     0.29605   0.21418   0.75009   0.00000  Uiso   1.00
C98    C     0.61964   0.98848   0.81156   0.00000  Uiso   1.00
C99    C     0.69536   0.01565   0.85979   0.00000  Uiso   1.00
C100   C     0.71272   0.98430   0.93951   0.00000  Uiso   1.00
C101   C     0.77034   0.95209   0.07278   0.00000  Uiso   1.00
C102   C     0.56576   0.93415   0.65962   0.00000  Uiso   1.00
C103   C     0.59621   0.91563   0.58010   0.00000  Uiso   1.00
C104   C     0.56823   0.83852   0.53190   0.00000  Uiso   1.00
C105   C     0.54220   0.72196   0.42926   0.00000  Uiso   1.00
C106   C     0.48426   0.91075   0.77858   0.00000  Uiso   1.00
C107   C     0.45127   0.99386   0.76568   0.00000  Uiso   1.00
C108   C     0.37437   0.01449   0.78128   0.00000  Uiso   1.00
C109   C     0.35583   0.09370   0.76546   0.00000  Uiso   1.00
C110   C     0.56326   0.93200   0.84188   0.00000  Uiso   1.00
C111   C     0.58052   0.90059   0.92155   0.00000  Uiso   1.00
C112   C     0.65624   0.92771   0.96989   0.00000  Uiso   1.00
C113   C     0.50938   0.87766   0.68993   0.00000  Uiso   1.00
C114   C     0.48136   0.80057   0.64186   0.00000  Uiso   1.00
C115   C     0.51175   0.78194   0.56228   0.00000  Uiso   1.00
H116   H     0.63196   0.05872   0.69916   0.00000  Uiso   1.00
H117   H     0.53287   0.17325   0.69606   0.00000  Uiso   1.00
H118   H     0.73898   0.05936   0.83631   0.00000  Uiso   1.00
H119   H     0.63983   0.95935   0.55666   0.00000  Uiso   1.00
H120   H     0.39816   0.27532   0.70604   0.00000  Uiso   1.00
H121   H     0.83276   0.03515   0.00173   0.00000  Uiso   1.00
H122   H     0.62371   0.82428   0.41204   0.00000  Uiso   1.00
H123   H     0.44037   0.86677   0.80218   0.00000  Uiso   1.00
H124   H     0.33076   0.97076   0.80474   0.00000  Uiso   1.00
H125   H     0.53687   0.85687   0.94498   0.00000  Uiso   1.00
H126   H     0.43773   0.75687   0.66534   0.00000  Uiso   1.00
H127   H     0.23412   0.11098   0.79424   0.00000  Uiso   1.00
H128   H     0.66873   0.87081   0.08994   0.00000  Uiso   1.00
H129   H     0.45967   0.65993   0.50025   0.00000  Uiso   1.00
O130   O     0.24750   0.26503   0.74999   0.00000  Uiso   1.00
O131   O     0.81770   0.94993   0.13792   0.00000  Uiso   1.00
O132   O     0.54341   0.67327   0.36426   0.00000  Uiso   1.00
N133   N     0.37459   0.22236   0.72643   0.00000  Uiso   1.00
N134   N     0.78091   0.99783   0.00289   0.00000  Uiso   1.00
N135   N     0.58548   0.80067   0.45159   0.00000  Uiso   1.00
N136   N     0.28632   0.13393   0.77389   0.00000  Uiso   1.00
N137   N     0.69265   0.90940   0.05036   0.00000  Uiso   1.00
N138   N     0.49721   0.71224   0.49905   0.00000  Uiso   1.00
C139   C     0.27846   0.40977   0.98000   0.00000  Uiso   1.00
C140   C     0.26585   0.49183   0.94317   0.00000  Uiso   1.00
C141   C     0.28061   0.51011   0.85996   0.00000  Uiso   1.00
C142   C     0.26522   0.58869   0.83873   0.00000  Uiso   1.00
C143   C     0.25002   0.70725   0.77242   0.00000  Uiso   1.00
C144   C     0.19640   0.37808   0.00675   0.00000  Uiso   1.00
C145   C     0.15278   0.30072   0.97700   0.00000  Uiso   1.00
C146   C     0.07894   0.28356   0.00932   0.00000  Uiso   1.00
C147   C     0.95595   0.22550   0.04176   0.00000  Uiso   1.00
C148   C     0.33641   0.43276   0.06566   0.00000  Uiso   1.00
C149   C     0.41050   0.40135   0.08546   0.00000  Uiso   1.00
C150   C     0.45452   0.43020   0.16738   0.00000  Uiso   1.00
C151   C     0.54892   0.45702   0.29128   0.00000  Uiso   1.00
C152   C     0.22488   0.51682   0.09029   0.00000  Uiso   1.00
C153   C     0.23674   0.54997   0.00307   0.00000  Uiso   1.00
C154   C     0.22133   0.62855   0.98197   0.00000  Uiso   1.00
C155   C     0.23607   0.64695   0.89875   0.00000  Uiso   1.00
C156   C     0.16729   0.43622   0.06665   0.00000  Uiso   1.00
C157   C     0.09350   0.41916   0.09902   0.00000  Uiso   1.00
C158   C     0.04978   0.34181   0.06933   0.00000  Uiso   1.00
C159   C     0.30730   0.49090   0.12556   0.00000  Uiso   1.00
C160   C     0.35122   0.51980   0.20747   0.00000  Uiso   1.00
C161   C     0.42536   0.48845   0.22739   0.00000  Uiso   1.00
H162   H     0.30112   0.36450   0.93336   0.00000  Uiso   1.00
H163   H     0.30313   0.46509   0.81361   0.00000  Uiso   1.00
H164   H     0.17532   0.25574   0.93065   0.00000  Uiso   1.00
H165   H     0.43300   0.35636   0.03908   0.00000  Uiso   1.00
H166   H     0.29250   0.60225   0.70725   0.00000  Uiso   1.00
H167   H     0.02303   0.16081   0.95406   0.00000  Uiso   1.00
H168   H     0.56639   0.37297   0.18271   0.00000  Uiso   1.00
H169   H     0.20222   0.56209   0.13693   0.00000  Uiso   1.00
H170   H     0.19880   0.67353   0.02835   0.00000  Uiso   1.00
H171   H     0.07100   0.46418   0.14538   0.00000  Uiso   1.00
H172   H     0.32867   0.56479   0.25381   0.00000  Uiso   1.00
H173   H     0.20782   0.77143   0.88154   0.00000  Uiso   1.00
H174   H     0.93835   0.32998   0.12834   0.00000  Uiso   1.00
H175   H     0.48171   0.54215   0.35699   0.00000  Uiso   1.00
O176   O     0.24967   0.75657   0.71928   0.00000  Uiso   1.00
O177   O     0.89615   0.17741   0.04310   0.00000  Uiso   1.00
O178   O     0.60903   0.45577   0.34307   0.00000  Uiso   1.00
N179   N     0.27305   0.62678   0.76318   0.00000  Uiso   1.00
N180   N     0.02111   0.21406   0.99392   0.00000  Uiso   1.00
N181   N     0.52910   0.41240   0.20769   0.00000  Uiso   1.00
N182   N     0.22749   0.71781   0.85696   0.00000  Uiso   1.00
N183   N     0.97554   0.30509   0.08770   0.00000  Uiso   1.00
N184   N     0.48353   0.50343   0.30147   0.00000  Uiso   1.00
C185   C     0.98664   0.27842   0.40520   0.00000  Uiso   1.00
C186   C     0.95231   0.26622   0.49133   0.00000  Uiso   1.00
C187   C     0.87485   0.28183   0.51016   0.00000  Uiso   1.00
C188   C     0.85505   0.26669   0.59272   0.00000  Uiso   1.00
C189   C     0.79325   0.25221   0.71710   0.00000  Uiso   1.00
C190   C     0.01268   0.19419   0.37116   0.00000  Uiso   1.00
C191   C     0.98598   0.14926   0.28895   0.00000  Uiso   1.00
C192   C     0.01701   0.07349   0.27035   0.00000  Uiso   1.00
C193   C     0.04898   0.94722   0.20814   0.00000  Uiso   1.00
C194   C     0.06523   0.33739   0.43062   0.00000  Uiso   1.00
C195   C     0.08274   0.41286   0.39838   0.00000  Uiso   1.00
C196   C     0.15802   0.45765   0.42983   0.00000  Uiso   1.00
C197   C     0.27159   0.55372   0.45994   0.00000  Uiso   1.00
C198   C     0.08922   0.22375   0.51833   0.00000  Uiso   1.00
C199   C     0.00803   0.23652   0.55278   0.00000  Uiso   1.00
C200   C     0.98835   0.22135   0.63533   0.00000  Uiso   1.00
C201   C     0.91087   0.23694   0.65428   0.00000  Uiso   1.00
C202   C     0.06839   0.16450   0.43261   0.00000  Uiso   1.00
C203   C     0.09948   0.08877   0.41412   0.00000  Uiso   1.00
C204   C     0.07283   0.04374   0.33191   0.00000  Uiso   1.00
C205   C     0.12095   0.30770   0.49207   0.00000  Uiso   1.00
C206   C     0.19623   0.35238   0.52356   0.00000  Uiso   1.00
C207   C     0.21384   0.42790   0.49138   0.00000  Uiso   1.00
H208   H     0.94326   0.30154   0.35735   0.00000  Uiso   1.00
H209   H     0.83174   0.30481   0.46258   0.00000  Uiso   1.00
H210   H     0.94286   0.17226   0.24141   0.00000  Uiso   1.00
H211   H     0.03960   0.43582   0.35083   0.00000  Uiso   1.00
H212   H     0.73267   0.29531   0.60634   0.00000  Uiso   1.00
H213   H     0.96699   0.01583   0.13997   0.00000  Uiso   1.00
H214   H     0.17098   0.57161   0.37071   0.00000  Uiso   1.00
H215   H     0.13261   0.20063   0.56617   0.00000  Uiso   1.00
H216   H     0.03148   0.19837   0.68287   0.00000  Uiso   1.00
H217   H     0.14260   0.06582   0.46169   0.00000  Uiso   1.00
H218   H     0.23933   0.32938   0.57111   0.00000  Uiso   1.00
H219   H     0.89478   0.20891   0.78513   0.00000  Uiso   1.00
H220   H     0.12911   0.92944   0.31875   0.00000  Uiso   1.00
H221   H     0.33309   0.48521   0.54950   0.00000  Uiso   1.00
O222   O     0.74377   0.25241   0.76872   0.00000  Uiso   1.00
O223   O     0.05121   0.88577   0.15685   0.00000  Uiso   1.00
O224   O     0.31884   0.61492   0.45958   0.00000  Uiso   1.00
N225   N     0.78470   0.27530   0.63241   0.00000  Uiso   1.00
N226   N     0.00378   0.01400   0.19638   0.00000  Uiso   1.00
N227   N     0.19450   0.53359   0.41209   0.00000  Uiso   1.00
N228   N     0.87193   0.22881   0.72862   0.00000  Uiso   1.00
N229   N     0.09101   0.96752   0.29259   0.00000  Uiso   1.00
N230   N     0.28173   0.48711   0.50829   0.00000  Uiso   1.00
C231   C     0.41194   0.98525   0.27724   0.00000  Uiso   1.00
C232   C     0.49235   0.94965   0.26465   0.00000  Uiso   1.00
C233   C     0.51078   0.87045   0.28048   0.00000  Uiso   1.00
C234   C     0.58769   0.84971   0.26490   0.00000  Uiso   1.00
C235   C     0.70395   0.78582   0.24991   0.00000  Uiso   1.00
C236   C     0.38036   0.01152   0.18844   0.00000  Uiso   1.00
C237   C     0.30464   0.98435   0.14021   0.00000  Uiso   1.00
C238   C     0.28728   0.01570   0.06049   0.00000  Uiso   1.00
C239   C     0.22966   0.04791   0.92722   0.00000  Uiso   1.00
C240   C     0.43424   0.06585   0.34038   0.00000  Uiso   1.00
C241   C     0.40379   0.08437   0.41990   0.00000  Uiso   1.00
C242   C     0.43177   0.16148   0.46810   0.00000  Uiso   1.00
C243   C     0.45780   0.27804   0.57074   0.00000  Uiso   1.00
C244   C     0.51574   0.08925   0.22142   0.00000  Uiso   1.00
C245   C     0.54873   0.00614   0.23432   0.00000  Uiso   1.00
C246   C     0.62563   0.98551   0.21872   0.00000  Uiso   1.00
C247   C     0.64417   0.90630   0.23454   0.00000  Uiso   1.00
C248   C     0.43674   0.06800   0.15812   0.00000  Uiso   1.00
C249   C     0.41948   0.09941   0.07845   0.00000  Uiso   1.00
C250   C     0.34376   0.07229   0.03011   0.00000  Uiso   1.00
C251   C     0.49062   0.12234   0.31007   0.00000  Uiso   1.00
C252   C     0.51864   0.19943   0.35814   0.00000  Uiso   1.00
C253   C     0.48825   0.21806   0.43772   0.00000  Uiso   1.00
H254   H     0.36804   0.94128   0.30084   0.00000  Uiso   1.00
H255   H     0.46713   0.82675   0.30394   0.00000  Uiso   1.00
H256   H     0.26102   0.94064   0.16369   0.00000  Uiso   1.00
H257   H     0.36017   0.04065   0.44334   0.00000  Uiso   1.00
H258   H     0.60184   0.72468   0.29396   0.00000  Uiso   1.00
H259   H     0.16724   0.96485   0.99827   0.00000  Uiso   1.00
H260   H     0.37629   0.17572   0.58796   0.00000  Uiso   1.00
H261   H     0.55963   0.13323   0.19782   0.00000  Uiso   1.00
H262   H     0.66924   0.02924   0.19526   0.00000  Uiso   1.00
H263   H     0.46313   0.14313   0.05502   0.00000  Uiso   1.00
H264   H     0.56227   0.24313   0.33466   0.00000  Uiso   1.00
H265   H     0.76588   0.88902   0.20576   0.00000  Uiso   1.00
H266   H     0.33127   0.12919   0.91006   0.00000  Uiso   1.00
H267   H     0.54033   0.34007   0.49975   0.00000  Uiso   1.00
O268   O     0.75250   0.73497   0.25001   0.00000  Uiso   1.00
O269   O     0.18230   0.05007   0.86208   0.00000  Uiso   1.00
O270   O     0.45659   0.32673   0.63574   0.00000  Uiso   1.00
N271   N     0.62541   0.77764   0.27357   0.00000  Uiso   1.00
N272   N     0.21909   0.00217   0.99711   0.00000  Uiso   1.00
N273   N     0.41452   0.19933   0.54841   0.00000  Uiso   1.00
N274   N     0.71368   0.86607   0.22611   0.00000  Uiso   1.00
N275   N     0.30735   0.09060   0.94964   0.00000  Uiso   1.00
N276   N     0.50279   0.28776   0.50095   0.00000  Uiso   1.00
