data_job_06608
_audit_creation_date              2018-12-19
_audit_creation_method            'Materials Studio'
_symmetry_space_group_name_H-M    'P1'
_symmetry_Int_Tables_number       1
_symmetry_cell_setting            triclinic
loop_
_symmetry_equiv_pos_as_xyz
  x,y,z
_cell_length_a                    20.1137
_cell_length_b                    20.8319
_cell_length_c                    23.9716
_cell_angle_alpha                 67.4688
_cell_angle_beta                  82.1926
_cell_angle_gamma                 112.4216
loop_
_atom_site_label
_atom_site_type_symbol
_atom_site_fract_x
_atom_site_fract_y
_atom_site_fract_z
_atom_site_U_iso_or_equiv
_atom_site_adp_type
_atom_site_occupancy
C1     C     0.02557   0.97832   0.67699   0.00000  Uiso   1.00
C2     C     0.98944   0.94963   0.63349   0.00000  Uiso   1.00
C3     C     0.94649   0.97710   0.60017   0.00000  Uiso   1.00
C4     C     0.91842   0.94326   0.56294   0.00000  Uiso   1.00
C5     C     0.86009   0.90768   0.49597   0.00000  Uiso   1.00
C6     C     0.99505   0.90526   0.74187   0.00000  Uiso   1.00
C7     C     0.95682   0.89544   0.79967   0.00000  Uiso   1.00
C8     C     0.93348   0.82426   0.85367   0.00000  Uiso   1.00
C9     C     0.88390   0.71983   0.95497   0.00000  Uiso   1.00
C10    C     0.11039   0.00540   0.65093   0.00000  Uiso   1.00
C11    C     0.16916   0.07977   0.63229   0.00000  Uiso   1.00
C12    C     0.24293   0.09289   0.60975   0.00000  Uiso   1.00
C13    C     0.37244   0.14394   0.56986   0.00000  Uiso   1.00
C14    C     0.05208   0.86937   0.67013   0.00000  Uiso   1.00
C15    C     0.00384   0.89045   0.62976   0.00000  Uiso   1.00
C16    C     0.97582   0.85656   0.59257   0.00000  Uiso   1.00
C17    C     0.93284   0.88398   0.55920   0.00000  Uiso   1.00
C18    C     0.00944   0.84609   0.73814   0.00000  Uiso   1.00
C19    C     0.98615   0.77490   0.79207   0.00000  Uiso   1.00
C20    C     0.94790   0.76497   0.84994   0.00000  Uiso   1.00
C21    C     0.12479   0.94623   0.64720   0.00000  Uiso   1.00
C22    C     0.19848   0.95923   0.62469   0.00000  Uiso   1.00
C23    C     0.25735   0.03361   0.60601   0.00000  Uiso   1.00
H24    H     0.01436   0.02438   0.67990   0.00000  Uiso   1.00
H25    H     0.93536   0.02289   0.60307   0.00000  Uiso   1.00
H26    H     0.94570   0.94124   0.80254   0.00000  Uiso   1.00
H27    H     0.15799   0.12554   0.63518   0.00000  Uiso   1.00
H28    H     0.85409   0.99511   0.51626   0.00000  Uiso   1.00
H29    H     0.87591   0.82297   0.93686   0.00000  Uiso   1.00
H30    H     0.32359   0.21161   0.58396   0.00000  Uiso   1.00
H31    H     0.06329   0.82330   0.66723   0.00000  Uiso   1.00
H32    H     0.98697   0.81077   0.58969   0.00000  Uiso   1.00
H33    H     0.99731   0.72913   0.78916   0.00000  Uiso   1.00
H34    H     0.20961   0.91343   0.62181   0.00000  Uiso   1.00
H35    H     0.89598   0.82295   0.50541   0.00000  Uiso   1.00
H36    H     0.91781   0.65081   0.92600   0.00000  Uiso   1.00
H37    H     0.36548   0.03945   0.57310   0.00000  Uiso   1.00
O38    O     0.82393   0.90440   0.46008   0.00000  Uiso   1.00
O39    O     0.85257   0.67857   0.01188   0.00000  Uiso   1.00
O40    O     0.43991   0.18845   0.54888   0.00000  Uiso   1.00
N41    N     0.87444   0.95633   0.52434   0.00000  Uiso   1.00
N42    N     0.89483   0.79538   0.91757   0.00000  Uiso   1.00
N43    N     0.31337   0.15872   0.58765   0.00000  Uiso   1.00
N44    N     0.89698   0.86369   0.51849   0.00000  Uiso   1.00
N45    N     0.91737   0.70274   0.91172   0.00000  Uiso   1.00
N46    N     0.33591   0.06608   0.58181   0.00000  Uiso   1.00
C47    C     0.09268   0.34279   0.66347   0.00000  Uiso   1.00
C48    C     0.10005   0.42537   0.63453   0.00000  Uiso   1.00
C49    C     0.16792   0.49567   0.60345   0.00000  Uiso   1.00
C50    C     0.16256   0.56503   0.58037   0.00000  Uiso   1.00
C51    C     0.18475   0.69340   0.53429   0.00000  Uiso   1.00
C52    C     0.04388   0.30127   0.73356   0.00000  Uiso   1.00
C53    C     0.06452   0.26722   0.78574   0.00000  Uiso   1.00
C54    C     0.01188   0.23210   0.84602   0.00000  Uiso   1.00
C55    C     0.94685   0.16775   0.95369   0.00000  Uiso   1.00
C56    C     0.04488   0.30048   0.63209   0.00000  Uiso   1.00
C57    C     0.06635   0.26574   0.59897   0.00000  Uiso   1.00
C58    C     0.01454   0.22994   0.57383   0.00000  Uiso   1.00
C59    C     0.95106   0.16436   0.52395   0.00000  Uiso   1.00
C60    C     0.96247   0.34095   0.67773   0.00000  Uiso   1.00
C61    C     0.02932   0.42436   0.64228   0.00000  Uiso   1.00
C62    C     0.02385   0.49363   0.61924   0.00000  Uiso   1.00
C63    C     0.09171   0.56403   0.58813   0.00000  Uiso   1.00
C64    C     0.97316   0.30026   0.74131   0.00000  Uiso   1.00
C65    C     0.92046   0.26518   0.80153   0.00000  Uiso   1.00
C66    C     0.94102   0.23109   0.85379   0.00000  Uiso   1.00
C67    C     0.97415   0.29948   0.63984   0.00000  Uiso   1.00
C68    C     0.92229   0.26371   0.61475   0.00000  Uiso   1.00
C69    C     0.94368   0.22893   0.58159   0.00000  Uiso   1.00
H70    H     0.14774   0.34357   0.65744   0.00000  Uiso   1.00
H71    H     0.22264   0.49642   0.59747   0.00000  Uiso   1.00
H72    H     0.11926   0.26800   0.77973   0.00000  Uiso   1.00
H73    H     0.12109   0.26653   0.59298   0.00000  Uiso   1.00
H74    H     0.27449   0.66545   0.53442   0.00000  Uiso   1.00
H75    H     0.05649   0.18378   0.91873   0.00000  Uiso   1.00
H76    H     0.06035   0.18068   0.52494   0.00000  Uiso   1.00
H77    H     0.90740   0.34017   0.68377   0.00000  Uiso   1.00
H78    H     0.96911   0.49284   0.62524   0.00000  Uiso   1.00
H79    H     0.86573   0.26441   0.80751   0.00000  Uiso   1.00
H80    H     0.86756   0.26294   0.62076   0.00000  Uiso   1.00
H81    H     0.06872   0.66254   0.55697   0.00000  Uiso   1.00
H82    H     0.85072   0.18086   0.94128   0.00000  Uiso   1.00
H83    H     0.85458   0.17777   0.54748   0.00000  Uiso   1.00
O84    O     0.21654   0.76448   0.50674   0.00000  Uiso   1.00
O85    O     0.93053   0.13254   0.01094   0.00000  Uiso   1.00
O86    O     0.93559   0.12848   0.49428   0.00000  Uiso   1.00
N87    N     0.21759   0.64381   0.54775   0.00000  Uiso   1.00
N88    N     0.01378   0.19349   0.90706   0.00000  Uiso   1.00
N89    N     0.01738   0.19057   0.53890   0.00000  Uiso   1.00
N90    N     0.10687   0.64224   0.55988   0.00000  Uiso   1.00
N91    N     0.90306   0.19192   0.91919   0.00000  Uiso   1.00
N92    N     0.90666   0.18900   0.55103   0.00000  Uiso   1.00
C93    C     0.45542   0.32883   0.59737   0.00000  Uiso   1.00
C94    C     0.54005   0.38711   0.57353   0.00000  Uiso   1.00
C95    C     0.59864   0.38257   0.54012   0.00000  Uiso   1.00
C96    C     0.67224   0.44167   0.52257   0.00000  Uiso   1.00
C97    C     0.80145   0.52281   0.48324   0.00000  Uiso   1.00
C98    C     0.42780   0.29937   0.66928   0.00000  Uiso   1.00
C99    C     0.39201   0.22105   0.71637   0.00000  Uiso   1.00
C100   C     0.37110   0.20629   0.77941   0.00000  Uiso   1.00
C101   C     0.32600   0.15120   0.88874   0.00000  Uiso   1.00
C102   C     0.41660   0.37746   0.56866   0.00000  Uiso   1.00
C103   C     0.37136   0.36479   0.53117   0.00000  Uiso   1.00
C104   C     0.34101   0.41576   0.50951   0.00000  Uiso   1.00
C105   C     0.27851   0.48192   0.46261   0.00000  Uiso   1.00
C106   C     0.48194   0.44186   0.62560   0.00000  Uiso   1.00
C107   C     0.55445   0.44850   0.58887   0.00000  Uiso   1.00
C108   C     0.62798   0.50763   0.57135   0.00000  Uiso   1.00
C109   C     0.68667   0.50318   0.53792   0.00000  Uiso   1.00
C110   C     0.44220   0.36076   0.68461   0.00000  Uiso   1.00
C111   C     0.42134   0.34611   0.74760   0.00000  Uiso   1.00
C112   C     0.38553   0.26779   0.79478   0.00000  Uiso   1.00
C113   C     0.43100   0.43885   0.58399   0.00000  Uiso   1.00
C114   C     0.40070   0.48985   0.56239   0.00000  Uiso   1.00
C115   C     0.35544   0.47727   0.52487   0.00000  Uiso   1.00
H116   H     0.44421   0.28103   0.58544   0.00000  Uiso   1.00
H117   H     0.58747   0.33505   0.52827   0.00000  Uiso   1.00
H118   H     0.38086   0.17355   0.70449   0.00000  Uiso   1.00
H119   H     0.36023   0.31728   0.51931   0.00000  Uiso   1.00
H120   H     0.75266   0.42200   0.47167   0.00000  Uiso   1.00
H121   H     0.31699   0.08148   0.84324   0.00000  Uiso   1.00
H122   H     0.27347   0.38454   0.45275   0.00000  Uiso   1.00
H123   H     0.49315   0.48966   0.63754   0.00000  Uiso   1.00
H124   H     0.63911   0.55513   0.58322   0.00000  Uiso   1.00
H125   H     0.43249   0.39363   0.75945   0.00000  Uiso   1.00
H126   H     0.41186   0.53735   0.57427   0.00000  Uiso   1.00
H127   H     0.79457   0.60062   0.51627   0.00000  Uiso   1.00
H128   H     0.35889   0.26010   0.88784   0.00000  Uiso   1.00
H129   H     0.31538   0.56316   0.49736   0.00000  Uiso   1.00
O130   O     0.86875   0.55060   0.45732   0.00000  Uiso   1.00
O131   O     0.29715   0.10385   0.94480   0.00000  Uiso   1.00
O132   O     0.24006   0.50146   0.43249   0.00000  Uiso   1.00
N133   N     0.74249   0.45506   0.48961   0.00000  Uiso   1.00
N134   N     0.33517   0.13669   0.83701   0.00000  Uiso   1.00
N135   N     0.29448   0.42002   0.47195   0.00000  Uiso   1.00
N136   N     0.76504   0.55118   0.51361   0.00000  Uiso   1.00
N137   N     0.35772   0.23281   0.86101   0.00000  Uiso   1.00
N138   N     0.31702   0.51614   0.49595   0.00000  Uiso   1.00
C139   C     0.47584   0.30625   0.19152   0.00000  Uiso   1.00
C140   C     0.43634   0.35550   0.19285   0.00000  Uiso   1.00
C141   C     0.37123   0.34877   0.17664   0.00000  Uiso   1.00
C142   C     0.34394   0.39925   0.18102   0.00000  Uiso   1.00
C143   C     0.27702   0.46731   0.18010   0.00000  Uiso   1.00
C144   C     0.47933   0.26793   0.25873   0.00000  Uiso   1.00
C145   C     0.45037   0.18757   0.29789   0.00000  Uiso   1.00
C146   C     0.45928   0.16435   0.35772   0.00000  Uiso   1.00
C147   C     0.45914   0.09645   0.45905   0.00000  Uiso   1.00
C148   C     0.55800   0.36494   0.14808   0.00000  Uiso   1.00
C149   C     0.59520   0.36614   0.09422   0.00000  Uiso   1.00
C150   C     0.67035   0.42458   0.06091   0.00000  Uiso   1.00
C151   C     0.79236   0.50731   0.99045   0.00000  Uiso   1.00
C152   C     0.54317   0.40787   0.22815   0.00000  Uiso   1.00
C153   C     0.47291   0.41070   0.21275   0.00000  Uiso   1.00
C154   C     0.44572   0.46121   0.21716   0.00000  Uiso   1.00
C155   C     0.38058   0.45455   0.20095   0.00000  Uiso   1.00
C156   C     0.51589   0.32313   0.27862   0.00000  Uiso   1.00
C157   C     0.52485   0.30001   0.33841   0.00000  Uiso   1.00
C158   C     0.49591   0.21964   0.37766   0.00000  Uiso   1.00
C159   C     0.59457   0.42015   0.16798   0.00000  Uiso   1.00
C160   C     0.66968   0.47858   0.13475   0.00000  Uiso   1.00
C161   C     0.70698   0.47987   0.08085   0.00000  Uiso   1.00
H162   H     0.44737   0.26327   0.17603   0.00000  Uiso   1.00
H163   H     0.34294   0.30604   0.16125   0.00000  Uiso   1.00
H164   H     0.42208   0.14487   0.28248   0.00000  Uiso   1.00
H165   H     0.56688   0.32342   0.07884   0.00000  Uiso   1.00
H166   H     0.24327   0.37778   0.15365   0.00000  Uiso   1.00
H167   H     0.41016   0.03796   0.40926   0.00000  Uiso   1.00
H168   H     0.71550   0.41444   0.97986   0.00000  Uiso   1.00
H169   H     0.57164   0.45085   0.24364   0.00000  Uiso   1.00
H170   H     0.47403   0.50392   0.23256   0.00000  Uiso   1.00
H171   H     0.55316   0.34275   0.35379   0.00000  Uiso   1.00
H172   H     0.69796   0.52129   0.15016   0.00000  Uiso   1.00
H173   H     0.34966   0.53839   0.21153   0.00000  Uiso   1.00
H174   H     0.51655   0.19856   0.46715   0.00000  Uiso   1.00
H175   H     0.82189   0.57505   0.03774   0.00000  Uiso   1.00
O176   O     0.23000   0.48959   0.17411   0.00000  Uiso   1.00
O177   O     0.44896   0.04375   0.50945   0.00000  Uiso   1.00
O178   O     0.84955   0.53770   0.94609   0.00000  Uiso   1.00
N179   N     0.28172   0.40831   0.16878   0.00000  Uiso   1.00
N180   N     0.43773   0.09059   0.40777   0.00000  Uiso   1.00
N181   N     0.72321   0.44256   0.00632   0.00000  Uiso   1.00
N182   N     0.33896   0.49473   0.19993   0.00000  Uiso   1.00
N183   N     0.49498   0.17701   0.43891   0.00000  Uiso   1.00
N184   N     0.78045   0.52898   0.03747   0.00000  Uiso   1.00
C185   C     0.58955   0.96309   0.16004   0.00000  Uiso   1.00
C186   C     0.62167   0.93313   0.12001   0.00000  Uiso   1.00
C187   C     0.69803   0.95467   0.09620   0.00000  Uiso   1.00
C188   C     0.71581   0.92068   0.06067   0.00000  Uiso   1.00
C189   C     0.77429   0.88228   0.00026   0.00000  Uiso   1.00
C190   C     0.53081   0.88991   0.22159   0.00000  Uiso   1.00
C191   C     0.53078   0.87513   0.28319   0.00000  Uiso   1.00
C192   C     0.47207   0.80477   0.33316   0.00000  Uiso   1.00
C193   C     0.38946   0.69931   0.43046   0.00000  Uiso   1.00
C194   C     0.54476   0.99858   0.12429   0.00000  Uiso   1.00
C195   C     0.55644   0.07517   0.10408   0.00000  Uiso   1.00
C196   C     0.50946   0.09629   0.07215   0.00000  Uiso   1.00
C197   C     0.44851   0.15956   0.01837   0.00000  Uiso   1.00
C198   C     0.48534   0.86441   0.13927   0.00000  Uiso   1.00
C199   C     0.56506   0.87953   0.10874   0.00000  Uiso   1.00
C200   C     0.58273   0.84549   0.07323   0.00000  Uiso   1.00
C201   C     0.65911   0.86699   0.04937   0.00000  Uiso   1.00
C202   C     0.47421   0.83632   0.21031   0.00000  Uiso   1.00
C203   C     0.41549   0.76596   0.26021   0.00000  Uiso   1.00
C204   C     0.41537   0.75107   0.32187   0.00000  Uiso   1.00
C205   C     0.48816   0.94499   0.11301   0.00000  Uiso   1.00
C206   C     0.44115   0.96599   0.08111   0.00000  Uiso   1.00
C207   C     0.45276   0.04259   0.06085   0.00000  Uiso   1.00
H208   H     0.63362   0.00481   0.16882   0.00000  Uiso   1.00
H209   H     0.74182   0.99615   0.10495   0.00000  Uiso   1.00
H210   H     0.57459   0.91663   0.29190   0.00000  Uiso   1.00
H211   H     0.60025   0.11663   0.11282   0.00000  Uiso   1.00
H212   H     0.83681   0.96288   0.02917   0.00000  Uiso   1.00
H213   H     0.48419   0.79522   0.42337   0.00000  Uiso   1.00
H214   H     0.53829   0.21697   0.04575   0.00000  Uiso   1.00
H215   H     0.44127   0.82268   0.13049   0.00000  Uiso   1.00
H216   H     0.53892   0.80402   0.06451   0.00000  Uiso   1.00
H217   H     0.37169   0.72450   0.25147   0.00000  Uiso   1.00
H218   H     0.39735   0.92450   0.07239   0.00000  Uiso   1.00
H219   H     0.67213   0.80694   0.99635   0.00000  Uiso   1.00
H220   H     0.31951   0.63928   0.39056   0.00000  Uiso   1.00
H221   H     0.37362   0.06102   0.01293   0.00000  Uiso   1.00
O222   O     0.82217   0.87590   0.97007   0.00000  Uiso   1.00
O223   O     0.35954   0.65595   0.48724   0.00000  Uiso   1.00
O224   O     0.43053   0.20927   0.99181   0.00000  Uiso   1.00
N225   N     0.78465   0.92875   0.03049   0.00000  Uiso   1.00
N226   N     0.45498   0.77200   0.39905   0.00000  Uiso   1.00
N227   N     0.50555   0.16629   0.04602   0.00000  Uiso   1.00
N228   N     0.69604   0.84484   0.01283   0.00000  Uiso   1.00
N229   N     0.36637   0.68809   0.38139   0.00000  Uiso   1.00
N230   N     0.41694   0.08238   0.02836   0.00000  Uiso   1.00
C231   C     0.87581   0.38324   0.17672   0.00000  Uiso   1.00
C232   C     0.95828   0.44865   0.14543   0.00000  Uiso   1.00
C233   C     0.98191   0.52907   0.11630   0.00000  Uiso   1.00
C234   C     0.05991   0.57936   0.09050   0.00000  Uiso   1.00
C235   C     0.18000   0.68536   0.04145   0.00000  Uiso   1.00
C236   C     0.86794   0.33183   0.24530   0.00000  Uiso   1.00
C237   C     0.81560   0.31402   0.30014   0.00000  Uiso   1.00
C238   C     0.81755   0.26597   0.35840   0.00000  Uiso   1.00
C239   C     0.79735   0.19055   0.46440   0.00000  Uiso   1.00
C240   C     0.86734   0.33247   0.14353   0.00000  Uiso   1.00
C241   C     0.81448   0.31517   0.11282   0.00000  Uiso   1.00
C242   C     0.81591   0.26764   0.08541   0.00000  Uiso   1.00
C243   C     0.79477   0.19321   0.03340   0.00000  Uiso   1.00
C244   C     0.97232   0.32957   0.18269   0.00000  Uiso   1.00
C245   C     0.01070   0.41949   0.14868   0.00000  Uiso   1.00
C246   C     0.08869   0.46968   0.12291   0.00000  Uiso   1.00
C247   C     0.11243   0.55016   0.09374   0.00000  Uiso   1.00
C248   C     0.92036   0.30267   0.24855   0.00000  Uiso   1.00
C249   C     0.92238   0.25463   0.30675   0.00000  Uiso   1.00
C250   C     0.87007   0.23676   0.36166   0.00000  Uiso   1.00
C251   C     0.91976   0.30331   0.14677   0.00000  Uiso   1.00
C252   C     0.92126   0.25579   0.11942   0.00000  Uiso   1.00
C253   C     0.86842   0.23843   0.08867   0.00000  Uiso   1.00
H254   H     0.83499   0.40594   0.17420   0.00000  Uiso   1.00
H255   H     0.94133   0.55161   0.11380   0.00000  Uiso   1.00
H256   H     0.77504   0.33659   0.29761   0.00000  Uiso   1.00
H257   H     0.77392   0.33774   0.11031   0.00000  Uiso   1.00
H258   H     0.08233   0.70025   0.04830   0.00000  Uiso   1.00
H259   H     0.73169   0.24685   0.43586   0.00000  Uiso   1.00
H260   H     0.72933   0.24928   0.04091   0.00000  Uiso   1.00
H261   H     0.01313   0.30686   0.18522   0.00000  Uiso   1.00
H262   H     0.12924   0.44710   0.12543   0.00000  Uiso   1.00
H263   H     0.96295   0.23208   0.30924   0.00000  Uiso   1.00
H264   H     0.96184   0.23324   0.12194   0.00000  Uiso   1.00
H265   H     0.23485   0.61543   0.05773   0.00000  Uiso   1.00
H266   H     0.88421   0.16202   0.44530   0.00000  Uiso   1.00
H267   H     0.88185   0.16446   0.05035   0.00000  Uiso   1.00
O268   O     0.23176   0.75187   0.01350   0.00000  Uiso   1.00
O269   O     0.77172   0.15702   0.52197   0.00000  Uiso   1.00
O270   O     0.76863   0.16022   0.00381   0.00000  Uiso   1.00
N271   N     0.10229   0.66104   0.05871   0.00000  Uiso   1.00
N272   N     0.77447   0.23715   0.42107   0.00000  Uiso   1.00
N273   N     0.77225   0.23940   0.05184   0.00000  Uiso   1.00
N274   N     0.18436   0.61540   0.06379   0.00000  Uiso   1.00
N275   N     0.85654   0.19150   0.42614   0.00000  Uiso   1.00
N276   N     0.85432   0.19376   0.05691   0.00000  Uiso   1.00
C277   C     0.19070   0.08432   0.26310   0.00000  Uiso   1.00
C278   C     0.19750   0.13566   0.29559   0.00000  Uiso   1.00
C279   C     0.24794   0.15218   0.32844   0.00000  Uiso   1.00
C280   C     0.24530   0.20041   0.35475   0.00000  Uiso   1.00
C281   C     0.26370   0.27552   0.40615   0.00000  Uiso   1.00
C282   C     0.20213   0.13581   0.19346   0.00000  Uiso   1.00
C283   C     0.25645   0.15244   0.14043   0.00000  Uiso   1.00
C284   C     0.25769   0.20079   0.08076   0.00000  Uiso   1.00
C285   C     0.28323   0.27607   0.97359   0.00000  Uiso   1.00
C286   C     0.10778   0.02006   0.29223   0.00000  Uiso   1.00
C287   C     0.08276   0.93937   0.32224   0.00000  Uiso   1.00
C288   C     0.00457   0.89026   0.34573   0.00000  Uiso   1.00
C289   C     0.88362   0.78583   0.39192   0.00000  Uiso   1.00
C290   C     0.09631   0.14059   0.25143   0.00000  Uiso   1.00
C291   C     0.14624   0.16623   0.28925   0.00000  Uiso   1.00
C292   C     0.14351   0.21444   0.31553   0.00000  Uiso   1.00
C293   C     0.19394   0.23103   0.34841   0.00000  Uiso   1.00
C294   C     0.15086   0.16637   0.18712   0.00000  Uiso   1.00
C295   C     0.15202   0.21470   0.12752   0.00000  Uiso   1.00
C296   C     0.20633   0.23141   0.07441   0.00000  Uiso   1.00
C297   C     0.05651   0.05062   0.28590   0.00000  Uiso   1.00
C298   C     0.97834   0.00163   0.30933   0.00000  Uiso   1.00
C299   C     0.95321   0.92088   0.33937   0.00000  Uiso   1.00
H300   H     0.23061   0.06052   0.26802   0.00000  Uiso   1.00
H301   H     0.28762   0.12852   0.33333   0.00000  Uiso   1.00
H302   H     0.29611   0.12877   0.14535   0.00000  Uiso   1.00
H303   H     0.12246   0.91573   0.32714   0.00000  Uiso   1.00
H304   H     0.32823   0.21741   0.40291   0.00000  Uiso   1.00
H305   H     0.34612   0.21792   0.00654   0.00000  Uiso   1.00
H306   H     0.97994   0.76869   0.38988   0.00000  Uiso   1.00
H307   H     0.05639   0.16439   0.24649   0.00000  Uiso   1.00
H308   H     0.10383   0.23809   0.31061   0.00000  Uiso   1.00
H309   H     0.11233   0.23834   0.12263   0.00000  Uiso   1.00
H310   H     0.93868   0.02530   0.30442   0.00000  Uiso   1.00
H311   H     0.17907   0.30635   0.38447   0.00000  Uiso   1.00
H312   H     0.19696   0.30685   0.98810   0.00000  Uiso   1.00
H313   H     0.83078   0.85762   0.37144   0.00000  Uiso   1.00
O314   O     0.28802   0.30851   0.43624   0.00000  Uiso   1.00
O315   O     0.31149   0.30916   0.91623   0.00000  Uiso   1.00
O316   O     0.83106   0.71978   0.41916   0.00000  Uiso   1.00
N317   N     0.28660   0.22822   0.38978   0.00000  Uiso   1.00
N318   N     0.30334   0.22870   0.01920   0.00000  Uiso   1.00
N319   N     0.96099   0.80871   0.37757   0.00000  Uiso   1.00
N320   N     0.20634   0.27607   0.37986   0.00000  Uiso   1.00
N321   N     0.22308   0.27655   0.00928   0.00000  Uiso   1.00
N322   N     0.88072   0.85656   0.36765   0.00000  Uiso   1.00
C323   C     0.10839   0.71124   0.28914   0.00000  Uiso   1.00
C324   C     0.12722   0.64428   0.29853   0.00000  Uiso   1.00
C325   C     0.07972   0.56498   0.34139   0.00000  Uiso   1.00
C326   C     0.10744   0.51292   0.34274   0.00000  Uiso   1.00
C327   C     0.12561   0.40493   0.36339   0.00000  Uiso   1.00
C328   C     0.11788   0.75285   0.21836   0.00000  Uiso   1.00
C329   C     0.06251   0.76484   0.19382   0.00000  Uiso   1.00
C330   C     0.08237   0.80418   0.12767   0.00000  Uiso   1.00
C331   C     0.08605   0.86480   0.02387   0.00000  Uiso   1.00
C332   C     0.17171   0.76986   0.29994   0.00000  Uiso   1.00
C333   C     0.16161   0.79618   0.34396   0.00000  Uiso   1.00
C334   C     0.22679   0.84986   0.34648   0.00000  Uiso   1.00
C335   C     0.31404   0.93690   0.36933   0.00000  Uiso   1.00
C336   C     0.24210   0.75979   0.21532   0.00000  Uiso   1.00
C337   C     0.19985   0.67065   0.25843   0.00000  Uiso   1.00
C338   C     0.22765   0.61870   0.25971   0.00000  Uiso   1.00
C339   C     0.18019   0.53933   0.30257   0.00000  Uiso   1.00
C340   C     0.19049   0.77922   0.17826   0.00000  Uiso   1.00
C341   C     0.21044   0.81856   0.11214   0.00000  Uiso   1.00
C342   C     0.15512   0.83060   0.08750   0.00000  Uiso   1.00
C343   C     0.24433   0.79623   0.25984   0.00000  Uiso   1.00
C344   C     0.30954   0.84989   0.26228   0.00000  Uiso   1.00
C345   C     0.29954   0.87628   0.30631   0.00000  Uiso   1.00
H346   H     0.05185   0.69071   0.32036   0.00000  Uiso   1.00
H347   H     0.02352   0.54460   0.37241   0.00000  Uiso   1.00
H348   H     0.00632   0.74443   0.22486   0.00000  Uiso   1.00
H349   H     0.10540   0.77576   0.37499   0.00000  Uiso   1.00
H350   H     0.02412   0.39423   0.41242   0.00000  Uiso   1.00
H351   H     0.98787   0.81562   0.10131   0.00000  Uiso   1.00
H352   H     0.19679   0.88168   0.41787   0.00000  Uiso   1.00
H353   H     0.29864   0.78032   0.18409   0.00000  Uiso   1.00
H354   H     0.28385   0.63912   0.22867   0.00000  Uiso   1.00
H355   H     0.26665   0.83896   0.08112   0.00000  Uiso   1.00
H356   H     0.36573   0.87029   0.23125   0.00000  Uiso   1.00
H357   H     0.23541   0.47094   0.29576   0.00000  Uiso   1.00
H358   H     0.19916   0.89234   0.98464   0.00000  Uiso   1.00
H359   H     0.40808   0.95840   0.30120   0.00000  Uiso   1.00
O360   O     0.11557   0.33808   0.38586   0.00000  Uiso   1.00
O361   O     0.06801   0.89094   0.97769   0.00000  Uiso   1.00
O362   O     0.34212   0.97761   0.39301   0.00000  Uiso   1.00
N363   N     0.07588   0.43166   0.37886   0.00000  Uiso   1.00
N364   N     0.04198   0.82562   0.08798   0.00000  Uiso   1.00
N365   N     0.23731   0.88741   0.38393   0.00000  Uiso   1.00
N366   N     0.18958   0.47294   0.31608   0.00000  Uiso   1.00
N367   N     0.15568   0.86691   0.02520   0.00000  Uiso   1.00
N368   N     0.35100   0.92869   0.32115   0.00000  Uiso   1.00
C369   C     0.80045   0.75282   0.23497   0.00000  Uiso   1.00
C370   C     0.72663   0.72513   0.21975   0.00000  Uiso   1.00
C371   C     0.65781   0.71492   0.25235   0.00000  Uiso   1.00
C372   C     0.59693   0.68917   0.23103   0.00000  Uiso   1.00
C373   C     0.48114   0.64849   0.21531   0.00000  Uiso   1.00
C374   C     0.86004   0.82544   0.17349   0.00000  Uiso   1.00
C375   C     0.90340   0.89957   0.16719   0.00000  Uiso   1.00
C376   C     0.95484   0.95826   0.10692   0.00000  Uiso   1.00
C377   C     0.04621   0.07330   0.01939   0.00000  Uiso   1.00
C378   C     0.82445   0.68901   0.24598   0.00000  Uiso   1.00
C379   C     0.83791   0.64843   0.30062   0.00000  Uiso   1.00
C380   C     0.85940   0.59226   0.30138   0.00000  Uiso   1.00
C381   C     0.89551   0.49546   0.32639   0.00000  Uiso   1.00
C382   C     0.81470   0.72525   0.13913   0.00000  Uiso   1.00
C383   C     0.73437   0.71016   0.16770   0.00000  Uiso   1.00
C384   C     0.67358   0.68442   0.14632   0.00000  Uiso   1.00
C385   C     0.60468   0.67417   0.17888   0.00000  Uiso   1.00
C386   C     0.86778   0.81047   0.12144   0.00000  Uiso   1.00
C387   C     0.91917   0.86907   0.06116   0.00000  Uiso   1.00
C388   C     0.96260   0.94326   0.05478   0.00000  Uiso   1.00
C389   C     0.83219   0.67403   0.19392   0.00000  Uiso   1.00
C390   C     0.85367   0.61792   0.19459   0.00000  Uiso   1.00
C391   C     0.86715   0.57726   0.24923   0.00000  Uiso   1.00
H392   H     0.79443   0.76449   0.27549   0.00000  Uiso   1.00
H393   H     0.65184   0.72652   0.29263   0.00000  Uiso   1.00
H394   H     0.89740   0.91114   0.20749   0.00000  Uiso   1.00
H395   H     0.83191   0.66003   0.34089   0.00000  Uiso   1.00
H396   H     0.49719   0.67785   0.28866   0.00000  Uiso   1.00
H397   H     0.01498   0.06712   0.10914   0.00000  Uiso   1.00
H398   H     0.87688   0.53762   0.39045   0.00000  Uiso   1.00
H399   H     0.82073   0.71360   0.09860   0.00000  Uiso   1.00
H400   H     0.67959   0.67283   0.10604   0.00000  Uiso   1.00
H401   H     0.92515   0.85746   0.02089   0.00000  Uiso   1.00
H402   H     0.85966   0.60635   0.15430   0.00000  Uiso   1.00
H403   H     0.51970   0.63428   0.13721   0.00000  Uiso   1.00
H404   H     0.03751   0.02355   0.95769   0.00000  Uiso   1.00
H405   H     0.89940   0.49405   0.23901   0.00000  Uiso   1.00
O406   O     0.41513   0.63020   0.22101   0.00000  Uiso   1.00
O407   O     0.09447   0.14090   0.98548   0.00000  Uiso   1.00
O408   O     0.91328   0.44620   0.35456   0.00000  Uiso   1.00
N409   N     0.52185   0.67318   0.25201   0.00000  Uiso   1.00
N410   N     0.00595   0.03712   0.08416   0.00000  Uiso   1.00
N411   N     0.87686   0.54210   0.34716   0.00000  Uiso   1.00
N412   N     0.53397   0.64973   0.17051   0.00000  Uiso   1.00
N413   N     0.01807   0.01368   0.00267   0.00000  Uiso   1.00
N414   N     0.88898   0.51865   0.26567   0.00000  Uiso   1.00
C415   C     0.60812   0.67169   0.77028   0.00000  Uiso   1.00
C416   C     0.64528   0.62255   0.76286   0.00000  Uiso   1.00
C417   C     0.70043   0.61240   0.78875   0.00000  Uiso   1.00
C418   C     0.72725   0.56520   0.77646   0.00000  Uiso   1.00
C419   C     0.78915   0.49436   0.77052   0.00000  Uiso   1.00
C420   C     0.62197   0.73141   0.70257   0.00000  Uiso   1.00
C421   C     0.65751   0.81279   0.67777   0.00000  Uiso   1.00
C422   C     0.66469   0.85724   0.61473   0.00000  Uiso   1.00
C423   C     0.69035   0.95542   0.51520   0.00000  Uiso   1.00
C424   C     0.52253   0.61603   0.79891   0.00000  Uiso   1.00
C425   C     0.47446   0.60041   0.85512   0.00000  Uiso   1.00
C426   C     0.39792   0.54773   0.87319   0.00000  Uiso   1.00
C427   C     0.26919   0.46676   0.92326   0.00000  Uiso   1.00
C428   C     0.55766   0.60592   0.70243   0.00000  Uiso   1.00
C429   C     0.61787   0.58683   0.72600   0.00000  Uiso   1.00
C430   C     0.64461   0.53963   0.71368   0.00000  Uiso   1.00
C431   C     0.69979   0.52941   0.73955   0.00000  Uiso   1.00
C432   C     0.59456   0.69569   0.66571   0.00000  Uiso   1.00
C433   C     0.60169   0.74003   0.60270   0.00000  Uiso   1.00
C434   C     0.63724   0.82145   0.57782   0.00000  Uiso   1.00
C435   C     0.49513   0.58031   0.76206   0.00000  Uiso   1.00
C436   C     0.41864   0.52764   0.78005   0.00000  Uiso   1.00
C437   C     0.37047   0.51194   0.83628   0.00000  Uiso   1.00
H438   H     0.62945   0.69950   0.79897   0.00000  Uiso   1.00
H439   H     0.72163   0.64006   0.81726   0.00000  Uiso   1.00
H440   H     0.67870   0.84042   0.70630   0.00000  Uiso   1.00
H441   H     0.49569   0.62807   0.88362   0.00000  Uiso   1.00
H442   H     0.81176   0.55842   0.82126   0.00000  Uiso   1.00
H443   H     0.72123   0.98090   0.58731   0.00000  Uiso   1.00
H444   H     0.33530   0.53311   0.96123   0.00000  Uiso   1.00
H445   H     0.53633   0.57811   0.67374   0.00000  Uiso   1.00
H446   H     0.62339   0.51199   0.68516   0.00000  Uiso   1.00
H447   H     0.58047   0.71236   0.57420   0.00000  Uiso   1.00
H448   H     0.39745   0.50001   0.75153   0.00000  Uiso   1.00
H449   H     0.73203   0.45448   0.71405   0.00000  Uiso   1.00
H450   H     0.64150   0.87696   0.48010   0.00000  Uiso   1.00
H451   H     0.25557   0.42918   0.85402   0.00000  Uiso   1.00
O452   O     0.83087   0.46517   0.77741   0.00000  Uiso   1.00
O453   O     0.71208   0.01945   0.47048   0.00000  Uiso   1.00
O454   O     0.20576   0.43196   0.96105   0.00000  Uiso   1.00
N455   N     0.78104   0.54302   0.79447   0.00000  Uiso   1.00
N456   N     0.69640   0.93801   0.57574   0.00000  Uiso   1.00
N457   N     0.33559   0.51939   0.92531   0.00000  Uiso   1.00
N458   N     0.73814   0.48709   0.73678   0.00000  Uiso   1.00
N459   N     0.65350   0.88208   0.51805   0.00000  Uiso   1.00
N460   N     0.29269   0.46346   0.86762   0.00000  Uiso   1.00
C461   C     0.50558   0.08756   0.82928   0.00000  Uiso   1.00
C462   C     0.56127   0.14210   0.84844   0.00000  Uiso   1.00
C463   C     0.54752   0.18947   0.87116   0.00000  Uiso   1.00
C464   C     0.60577   0.23511   0.88604   0.00000  Uiso   1.00
C465   C     0.68170   0.32008   0.91691   0.00000  Uiso   1.00
C466   C     0.54686   0.11283   0.76033   0.00000  Uiso   1.00
C467   C     0.52098   0.13557   0.70897   0.00000  Uiso   1.00
C468   C     0.56710   0.15656   0.64969   0.00000  Uiso   1.00
C469   C     0.62063   0.19603   0.54378   0.00000  Uiso   1.00
C470   C     0.49625   0.00559   0.86949   0.00000  Uiso   1.00
C471   C     0.42782   0.93816   0.90989   0.00000  Uiso   1.00
C472   C     0.43132   0.86886   0.94250   0.00000  Uiso   1.00
C473   C     0.40626   0.74184   0.00607   0.00000  Uiso   1.00
C474   C     0.63348   0.08438   0.81531   0.00000  Uiso   1.00
C475   C     0.63074   0.14037   0.84085   0.00000  Uiso   1.00
C476   C     0.68903   0.18595   0.85570   0.00000  Uiso   1.00
C477   C     0.67537   0.23338   0.87844   0.00000  Uiso   1.00
C478   C     0.61633   0.11110   0.75274   0.00000  Uiso   1.00
C479   C     0.66249   0.13205   0.69351   0.00000  Uiso   1.00
C480   C     0.63670   0.15483   0.64208   0.00000  Uiso   1.00
C481   C     0.56572   0.00386   0.86190   0.00000  Uiso   1.00
C482   C     0.56933   0.93465   0.89444   0.00000  Uiso   1.00
C483   C     0.50092   0.86713   0.93489   0.00000  Uiso   1.00
H484   H     0.45149   0.08891   0.83518   0.00000  Uiso   1.00
H485   H     0.49375   0.19079   0.87702   0.00000  Uiso   1.00
H486   H     0.46722   0.13689   0.71486   0.00000  Uiso   1.00
H487   H     0.37407   0.93952   0.91576   0.00000  Uiso   1.00
H488   H     0.57126   0.30301   0.92003   0.00000  Uiso   1.00
H489   H     0.51529   0.18933   0.57812   0.00000  Uiso   1.00
H490   H     0.31886   0.77314   0.00174   0.00000  Uiso   1.00
H491   H     0.68757   0.08304   0.80939   0.00000  Uiso   1.00
H492   H     0.74278   0.18460   0.84982   0.00000  Uiso   1.00
H493   H     0.71625   0.13071   0.68766   0.00000  Uiso   1.00
H494   H     0.62310   0.93334   0.88855   0.00000  Uiso   1.00
H495   H     0.77338   0.29799   0.89795   0.00000  Uiso   1.00
H496   H     0.71741   0.18431   0.55604   0.00000  Uiso   1.00
H497   H     0.52099   0.76812   0.97966   0.00000  Uiso   1.00
O498   O     0.70439   0.36743   0.93603   0.00000  Uiso   1.00
O499   O     0.63096   0.21828   0.48746   0.00000  Uiso   1.00
O500   O     0.37325   0.67225   0.04324   0.00000  Uiso   1.00
N501   N     0.61124   0.28788   0.90930   0.00000  Uiso   1.00
N502   N     0.55892   0.18161   0.58963   0.00000  Uiso   1.00
N503   N     0.37528   0.79250   0.98567   0.00000  Uiso   1.00
N504   N     0.72000   0.28517   0.89742   0.00000  Uiso   1.00
N505   N     0.66769   0.17891   0.57775   0.00000  Uiso   1.00
N506   N     0.48404   0.78980   0.97379   0.00000  Uiso   1.00
C507   C     0.23200   0.65896   0.80191   0.00000  Uiso   1.00
C508   C     0.15117   0.60129   0.81200   0.00000  Uiso   1.00
C509   C     0.11205   0.52168   0.85634   0.00000  Uiso   1.00
C510   C     0.03860   0.47897   0.85810   0.00000  Uiso   1.00
C511   C     0.91814   0.38400   0.87999   0.00000  Uiso   1.00
C512   C     0.27668   0.69475   0.73149   0.00000  Uiso   1.00
C513   C     0.34309   0.69372   0.70815   0.00000  Uiso   1.00
C514   C     0.37530   0.72969   0.64213   0.00000  Uiso   1.00
C515   C     0.44973   0.77986   0.53904   0.00000  Uiso   1.00
C516   C     0.22642   0.72586   0.81035   0.00000  Uiso   1.00
C517   C     0.25061   0.75101   0.85330   0.00000  Uiso   1.00
C518   C     0.24052   0.81319   0.85367   0.00000  Uiso   1.00
C519   C     0.23692   0.91167   0.87302   0.00000  Uiso   1.00
C520   C     0.17111   0.72468   0.72619   0.00000  Uiso   1.00
C521   C     0.11810   0.63700   0.77086   0.00000  Uiso   1.00
C522   C     0.04469   0.59440   0.77256   0.00000  Uiso   1.00
C523   C     0.00547   0.51473   0.81689   0.00000  Uiso   1.00
C524   C     0.24361   0.73045   0.69036   0.00000  Uiso   1.00
C525   C     0.27573   0.76643   0.62436   0.00000  Uiso   1.00
C526   C     0.34217   0.76545   0.60093   0.00000  Uiso   1.00
C527   C     0.19335   0.76156   0.76922   0.00000  Uiso   1.00
C528   C     0.18324   0.82372   0.76952   0.00000  Uiso   1.00
C529   C     0.20740   0.84896   0.81246   0.00000  Uiso   1.00
H530   H     0.25774   0.63117   0.83393   0.00000  Uiso   1.00
H531   H     0.13766   0.49407   0.88816   0.00000  Uiso   1.00
H532   H     0.36867   0.66609   0.73999   0.00000  Uiso   1.00
H533   H     0.27619   0.72337   0.88512   0.00000  Uiso   1.00
H534   H     0.98996   0.35782   0.93012   0.00000  Uiso   1.00
H535   H     0.47707   0.72055   0.61770   0.00000  Uiso   1.00
H536   H     0.28206   0.84134   0.92374   0.00000  Uiso   1.00
H537   H     0.14537   0.75248   0.69416   0.00000  Uiso   1.00
H538   H     0.01911   0.62204   0.74072   0.00000  Uiso   1.00
H539   H     0.25013   0.79406   0.59255   0.00000  Uiso   1.00
H540   H     0.15765   0.85133   0.73768   0.00000  Uiso   1.00
H541   H     0.89374   0.46168   0.81045   0.00000  Uiso   1.00
H542   H     0.38086   0.82442   0.49803   0.00000  Uiso   1.00
H543   H     0.18584   0.94520   0.80407   0.00000  Uiso   1.00
O544   O     0.86083   0.32175   0.90342   0.00000  Uiso   1.00
O545   O     0.49991   0.79766   0.49354   0.00000  Uiso   1.00
O546   O     0.24406   0.95612   0.89506   0.00000  Uiso   1.00
N547   N     0.98463   0.40017   0.89558   0.00000  Uiso   1.00
N548   N     0.44005   0.73929   0.60348   0.00000  Uiso   1.00
N549   N     0.25775   0.85223   0.88959   0.00000  Uiso   1.00
N550   N     0.93286   0.45605   0.83118   0.00000  Uiso   1.00
N551   N     0.38827   0.79518   0.53909   0.00000  Uiso   1.00
N552   N     0.20598   0.90812   0.82520   0.00000  Uiso   1.00
