data_job_04618
_audit_creation_date              2018-12-19
_audit_creation_method            'Materials Studio'
_symmetry_space_group_name_H-M    'P1'
_symmetry_Int_Tables_number       1
_symmetry_cell_setting            triclinic
loop_
_symmetry_equiv_pos_as_xyz
  x,y,z
_cell_length_a                    32.0758
_cell_length_b                    32.0758
_cell_length_c                    7.1313
_cell_angle_alpha                 90.0000
_cell_angle_beta                  90.0000
_cell_angle_gamma                 90.0000
loop_
_atom_site_label
_atom_site_type_symbol
_atom_site_fract_x
_atom_site_fract_y
_atom_site_fract_z
_atom_site_U_iso_or_equiv
_atom_site_adp_type
_atom_site_occupancy
C1     C     0.52081   0.78153   0.49010   0.00000  Uiso   1.00
C2     C     0.52770   0.82765   0.53175   0.00000  Uiso   1.00
C3     C     0.52810   0.85951   0.40012   0.00000  Uiso   1.00
C4     C     0.53491   0.89964   0.46642   0.00000  Uiso   1.00
C5     C     0.54468   0.97004   0.50201   0.00000  Uiso   1.00
C6     C     0.55869   0.75881   0.56925   0.00000  Uiso   1.00
C7     C     0.58514   0.73278   0.46915   0.00000  Uiso   1.00
C8     C     0.61803   0.71495   0.56703   0.00000  Uiso   1.00
C9     C     0.67589   0.67845   0.66087   0.00000  Uiso   1.00
C10    C     0.48387   0.76813   0.61040   0.00000  Uiso   1.00
C11    C     0.44741   0.74994   0.54490   0.00000  Uiso   1.00
C12    C     0.41731   0.73995   0.67744   0.00000  Uiso   1.00
C13    C     0.35900   0.71793   0.83517   0.00000  Uiso   1.00
C14    C     0.53220   0.79612   0.84193   0.00000  Uiso   1.00
C15    C     0.53388   0.83558   0.72285   0.00000  Uiso   1.00
C16    C     0.54069   0.87566   0.78937   0.00000  Uiso   1.00
C17    C     0.54111   0.90758   0.65786   0.00000  Uiso   1.00
C18    C     0.56487   0.76673   0.76034   0.00000  Uiso   1.00
C19    C     0.59773   0.74893   0.85840   0.00000  Uiso   1.00
C20    C     0.62423   0.72289   0.75847   0.00000  Uiso   1.00
C21    C     0.49005   0.77606   0.80150   0.00000  Uiso   1.00
C22    C     0.46001   0.76609   0.93416   0.00000  Uiso   1.00
C23    C     0.42351   0.74789   0.86888   0.00000  Uiso   1.00
H24    H     0.51600   0.77536   0.34132   0.00000  Uiso   1.00
H25    H     0.52332   0.85336   0.25224   0.00000  Uiso   1.00
H26    H     0.58034   0.72665   0.32127   0.00000  Uiso   1.00
H27    H     0.44264   0.74381   0.39701   0.00000  Uiso   1.00
H28    H     0.53417   0.94335   0.23774   0.00000  Uiso   1.00
H29    H     0.65440   0.67616   0.38331   0.00000  Uiso   1.00
H30    H     0.36402   0.71233   0.54303   0.00000  Uiso   1.00
H31    H     0.53701   0.80230   0.99071   0.00000  Uiso   1.00
H32    H     0.54548   0.88179   0.93726   0.00000  Uiso   1.00
H33    H     0.60251   0.75507   0.00629   0.00000  Uiso   1.00
H34    H     0.46480   0.77223   0.08203   0.00000  Uiso   1.00
H35    H     0.55216   0.96641   0.79373   0.00000  Uiso   1.00
H36    H     0.67239   0.69922   0.93929   0.00000  Uiso   1.00
H37    H     0.38201   0.73540   0.09902   0.00000  Uiso   1.00
O38    O     0.54837   0.00668   0.46885   0.00000  Uiso   1.00
O39    O     0.70610   0.65614   0.65983   0.00000  Uiso   1.00
O40    O     0.32513   0.70360   0.86938   0.00000  Uiso   1.00
N41    N     0.53723   0.93787   0.37593   0.00000  Uiso   1.00
N42    N     0.64964   0.68807   0.51202   0.00000  Uiso   1.00
N43    N     0.37817   0.72188   0.66135   0.00000  Uiso   1.00
N44    N     0.54691   0.95028   0.67511   0.00000  Uiso   1.00
N45    N     0.65932   0.70048   0.81119   0.00000  Uiso   1.00
N46    N     0.38785   0.73429   0.96052   0.00000  Uiso   1.00
C47    C     0.02081   0.28153   0.99010   0.00000  Uiso   1.00
C48    C     0.02770   0.32765   0.03175   0.00000  Uiso   1.00
C49    C     0.02810   0.35951   0.90012   0.00000  Uiso   1.00
C50    C     0.03491   0.39964   0.96642   0.00000  Uiso   1.00
C51    C     0.04468   0.47004   0.00201   0.00000  Uiso   1.00
C52    C     0.05869   0.25881   0.06925   0.00000  Uiso   1.00
C53    C     0.08514   0.23278   0.96915   0.00000  Uiso   1.00
C54    C     0.11803   0.21495   0.06703   0.00000  Uiso   1.00
C55    C     0.17589   0.17845   0.16087   0.00000  Uiso   1.00
C56    C     0.98387   0.26813   0.11040   0.00000  Uiso   1.00
C57    C     0.94741   0.24994   0.04490   0.00000  Uiso   1.00
C58    C     0.91731   0.23995   0.17744   0.00000  Uiso   1.00
C59    C     0.85900   0.21793   0.33517   0.00000  Uiso   1.00
C60    C     0.03220   0.29612   0.34193   0.00000  Uiso   1.00
C61    C     0.03388   0.33558   0.22285   0.00000  Uiso   1.00
C62    C     0.04069   0.37566   0.28937   0.00000  Uiso   1.00
C63    C     0.04111   0.40758   0.15786   0.00000  Uiso   1.00
C64    C     0.06487   0.26673   0.26034   0.00000  Uiso   1.00
C65    C     0.09773   0.24893   0.35840   0.00000  Uiso   1.00
C66    C     0.12423   0.22289   0.25847   0.00000  Uiso   1.00
C67    C     0.99005   0.27606   0.30150   0.00000  Uiso   1.00
C68    C     0.96001   0.26609   0.43416   0.00000  Uiso   1.00
C69    C     0.92351   0.24789   0.36888   0.00000  Uiso   1.00
H70    H     0.01600   0.27536   0.84132   0.00000  Uiso   1.00
H71    H     0.02332   0.35336   0.75224   0.00000  Uiso   1.00
H72    H     0.08034   0.22665   0.82127   0.00000  Uiso   1.00
H73    H     0.94264   0.24381   0.89701   0.00000  Uiso   1.00
H74    H     0.03417   0.44335   0.73774   0.00000  Uiso   1.00
H75    H     0.15440   0.17616   0.88331   0.00000  Uiso   1.00
H76    H     0.86402   0.21233   0.04303   0.00000  Uiso   1.00
H77    H     0.03701   0.30230   0.49071   0.00000  Uiso   1.00
H78    H     0.04548   0.38179   0.43726   0.00000  Uiso   1.00
H79    H     0.10251   0.25507   0.50629   0.00000  Uiso   1.00
H80    H     0.96480   0.27223   0.58203   0.00000  Uiso   1.00
H81    H     0.05216   0.46641   0.29373   0.00000  Uiso   1.00
H82    H     0.17239   0.19922   0.43929   0.00000  Uiso   1.00
H83    H     0.88201   0.23540   0.59902   0.00000  Uiso   1.00
O84    O     0.04837   0.50668   0.96885   0.00000  Uiso   1.00
O85    O     0.20610   0.15614   0.15983   0.00000  Uiso   1.00
O86    O     0.82513   0.20360   0.36938   0.00000  Uiso   1.00
N87    N     0.03723   0.43787   0.87593   0.00000  Uiso   1.00
N88    N     0.14964   0.18807   0.01202   0.00000  Uiso   1.00
N89    N     0.87817   0.22188   0.16135   0.00000  Uiso   1.00
N90    N     0.04691   0.45028   0.17511   0.00000  Uiso   1.00
N91    N     0.15932   0.20048   0.31119   0.00000  Uiso   1.00
N92    N     0.88785   0.23429   0.46052   0.00000  Uiso   1.00
C93    C     0.47919   0.21847   0.49010   0.00000  Uiso   1.00
C94    C     0.47230   0.17235   0.53175   0.00000  Uiso   1.00
C95    C     0.47190   0.14049   0.40012   0.00000  Uiso   1.00
C96    C     0.46509   0.10036   0.46642   0.00000  Uiso   1.00
C97    C     0.45532   0.02996   0.50201   0.00000  Uiso   1.00
C98    C     0.44131   0.24119   0.56925   0.00000  Uiso   1.00
C99    C     0.41486   0.26722   0.46915   0.00000  Uiso   1.00
C100   C     0.38197   0.28505   0.56703   0.00000  Uiso   1.00
C101   C     0.32411   0.32155   0.66087   0.00000  Uiso   1.00
C102   C     0.51613   0.23187   0.61040   0.00000  Uiso   1.00
C103   C     0.55259   0.25006   0.54490   0.00000  Uiso   1.00
C104   C     0.58269   0.26005   0.67744   0.00000  Uiso   1.00
C105   C     0.64100   0.28207   0.83517   0.00000  Uiso   1.00
C106   C     0.46780   0.20388   0.84193   0.00000  Uiso   1.00
C107   C     0.46612   0.16442   0.72285   0.00000  Uiso   1.00
C108   C     0.45931   0.12434   0.78937   0.00000  Uiso   1.00
C109   C     0.45889   0.09242   0.65786   0.00000  Uiso   1.00
C110   C     0.43513   0.23327   0.76034   0.00000  Uiso   1.00
C111   C     0.40227   0.25107   0.85840   0.00000  Uiso   1.00
C112   C     0.37577   0.27711   0.75847   0.00000  Uiso   1.00
C113   C     0.50995   0.22394   0.80150   0.00000  Uiso   1.00
C114   C     0.53999   0.23391   0.93416   0.00000  Uiso   1.00
C115   C     0.57649   0.25211   0.86888   0.00000  Uiso   1.00
H116   H     0.48400   0.22464   0.34132   0.00000  Uiso   1.00
H117   H     0.47668   0.14664   0.25224   0.00000  Uiso   1.00
H118   H     0.41966   0.27335   0.32127   0.00000  Uiso   1.00
H119   H     0.55736   0.25619   0.39701   0.00000  Uiso   1.00
H120   H     0.46583   0.05665   0.23774   0.00000  Uiso   1.00
H121   H     0.34560   0.32384   0.38331   0.00000  Uiso   1.00
H122   H     0.63598   0.28767   0.54303   0.00000  Uiso   1.00
H123   H     0.46299   0.19770   0.99071   0.00000  Uiso   1.00
H124   H     0.45452   0.11821   0.93726   0.00000  Uiso   1.00
H125   H     0.39749   0.24493   0.00629   0.00000  Uiso   1.00
H126   H     0.53520   0.22777   0.08203   0.00000  Uiso   1.00
H127   H     0.44784   0.03359   0.79373   0.00000  Uiso   1.00
H128   H     0.32761   0.30078   0.93929   0.00000  Uiso   1.00
H129   H     0.61799   0.26460   0.09902   0.00000  Uiso   1.00
O130   O     0.45163   0.99332   0.46885   0.00000  Uiso   1.00
O131   O     0.29390   0.34386   0.65983   0.00000  Uiso   1.00
O132   O     0.67487   0.29640   0.86938   0.00000  Uiso   1.00
N133   N     0.46277   0.06213   0.37593   0.00000  Uiso   1.00
N134   N     0.35036   0.31193   0.51202   0.00000  Uiso   1.00
N135   N     0.62183   0.27812   0.66135   0.00000  Uiso   1.00
N136   N     0.45309   0.04972   0.67511   0.00000  Uiso   1.00
N137   N     0.34068   0.29952   0.81119   0.00000  Uiso   1.00
N138   N     0.61215   0.26571   0.96052   0.00000  Uiso   1.00
C139   C     0.97919   0.71847   0.99010   0.00000  Uiso   1.00
C140   C     0.97230   0.67235   0.03175   0.00000  Uiso   1.00
C141   C     0.97190   0.64049   0.90012   0.00000  Uiso   1.00
C142   C     0.96509   0.60036   0.96642   0.00000  Uiso   1.00
C143   C     0.95532   0.52996   0.00201   0.00000  Uiso   1.00
C144   C     0.94131   0.74119   0.06925   0.00000  Uiso   1.00
C145   C     0.91486   0.76722   0.96915   0.00000  Uiso   1.00
C146   C     0.88197   0.78505   0.06703   0.00000  Uiso   1.00
C147   C     0.82411   0.82155   0.16087   0.00000  Uiso   1.00
C148   C     0.01613   0.73187   0.11040   0.00000  Uiso   1.00
C149   C     0.05259   0.75006   0.04490   0.00000  Uiso   1.00
C150   C     0.08269   0.76005   0.17744   0.00000  Uiso   1.00
C151   C     0.14100   0.78207   0.33517   0.00000  Uiso   1.00
C152   C     0.96780   0.70388   0.34193   0.00000  Uiso   1.00
C153   C     0.96612   0.66442   0.22285   0.00000  Uiso   1.00
C154   C     0.95931   0.62434   0.28937   0.00000  Uiso   1.00
C155   C     0.95889   0.59242   0.15786   0.00000  Uiso   1.00
C156   C     0.93513   0.73327   0.26034   0.00000  Uiso   1.00
C157   C     0.90227   0.75107   0.35840   0.00000  Uiso   1.00
C158   C     0.87577   0.77711   0.25847   0.00000  Uiso   1.00
C159   C     0.00995   0.72394   0.30150   0.00000  Uiso   1.00
C160   C     0.03999   0.73391   0.43416   0.00000  Uiso   1.00
C161   C     0.07649   0.75211   0.36888   0.00000  Uiso   1.00
H162   H     0.98400   0.72464   0.84132   0.00000  Uiso   1.00
H163   H     0.97668   0.64664   0.75224   0.00000  Uiso   1.00
H164   H     0.91966   0.77335   0.82127   0.00000  Uiso   1.00
H165   H     0.05736   0.75619   0.89701   0.00000  Uiso   1.00
H166   H     0.96583   0.55665   0.73774   0.00000  Uiso   1.00
H167   H     0.84560   0.82384   0.88331   0.00000  Uiso   1.00
H168   H     0.13598   0.78767   0.04303   0.00000  Uiso   1.00
H169   H     0.96299   0.69770   0.49071   0.00000  Uiso   1.00
H170   H     0.95452   0.61821   0.43726   0.00000  Uiso   1.00
H171   H     0.89749   0.74493   0.50629   0.00000  Uiso   1.00
H172   H     0.03520   0.72777   0.58203   0.00000  Uiso   1.00
H173   H     0.94784   0.53359   0.29373   0.00000  Uiso   1.00
H174   H     0.82761   0.80078   0.43929   0.00000  Uiso   1.00
H175   H     0.11799   0.76460   0.59902   0.00000  Uiso   1.00
O176   O     0.95163   0.49332   0.96885   0.00000  Uiso   1.00
O177   O     0.79390   0.84386   0.15983   0.00000  Uiso   1.00
O178   O     0.17487   0.79640   0.36938   0.00000  Uiso   1.00
N179   N     0.96277   0.56213   0.87593   0.00000  Uiso   1.00
N180   N     0.85036   0.81193   0.01202   0.00000  Uiso   1.00
N181   N     0.12183   0.77812   0.16135   0.00000  Uiso   1.00
N182   N     0.95309   0.54972   0.17511   0.00000  Uiso   1.00
N183   N     0.84068   0.79952   0.31119   0.00000  Uiso   1.00
N184   N     0.11215   0.76571   0.46052   0.00000  Uiso   1.00
C185   C     0.78153   0.47919   0.50990   0.00000  Uiso   1.00
C186   C     0.82765   0.47230   0.46825   0.00000  Uiso   1.00
C187   C     0.85951   0.47190   0.59988   0.00000  Uiso   1.00
C188   C     0.89964   0.46509   0.53358   0.00000  Uiso   1.00
C189   C     0.97004   0.45532   0.49799   0.00000  Uiso   1.00
C190   C     0.75881   0.44131   0.43075   0.00000  Uiso   1.00
C191   C     0.73278   0.41486   0.53085   0.00000  Uiso   1.00
C192   C     0.71495   0.38197   0.43297   0.00000  Uiso   1.00
C193   C     0.67845   0.32411   0.33913   0.00000  Uiso   1.00
C194   C     0.76813   0.51613   0.38960   0.00000  Uiso   1.00
C195   C     0.74994   0.55259   0.45510   0.00000  Uiso   1.00
C196   C     0.73995   0.58269   0.32256   0.00000  Uiso   1.00
C197   C     0.71793   0.64100   0.16483   0.00000  Uiso   1.00
C198   C     0.79612   0.46780   0.15807   0.00000  Uiso   1.00
C199   C     0.83558   0.46612   0.27715   0.00000  Uiso   1.00
C200   C     0.87566   0.45931   0.21063   0.00000  Uiso   1.00
C201   C     0.90758   0.45889   0.34214   0.00000  Uiso   1.00
C202   C     0.76673   0.43513   0.23966   0.00000  Uiso   1.00
C203   C     0.74893   0.40227   0.14160   0.00000  Uiso   1.00
C204   C     0.72289   0.37577   0.24153   0.00000  Uiso   1.00
C205   C     0.77606   0.50995   0.19850   0.00000  Uiso   1.00
C206   C     0.76609   0.53999   0.06584   0.00000  Uiso   1.00
C207   C     0.74789   0.57649   0.13112   0.00000  Uiso   1.00
H208   H     0.77536   0.48400   0.65868   0.00000  Uiso   1.00
H209   H     0.85336   0.47668   0.74776   0.00000  Uiso   1.00
H210   H     0.72665   0.41966   0.67873   0.00000  Uiso   1.00
H211   H     0.74381   0.55736   0.60299   0.00000  Uiso   1.00
H212   H     0.94335   0.46583   0.76226   0.00000  Uiso   1.00
H213   H     0.67616   0.34560   0.61669   0.00000  Uiso   1.00
H214   H     0.71233   0.63598   0.45697   0.00000  Uiso   1.00
H215   H     0.80230   0.46299   0.00929   0.00000  Uiso   1.00
H216   H     0.88179   0.45452   0.06274   0.00000  Uiso   1.00
H217   H     0.75507   0.39749   0.99371   0.00000  Uiso   1.00
H218   H     0.77223   0.53520   0.91797   0.00000  Uiso   1.00
H219   H     0.96641   0.44784   0.20627   0.00000  Uiso   1.00
H220   H     0.69922   0.32761   0.06071   0.00000  Uiso   1.00
H221   H     0.73540   0.61799   0.90098   0.00000  Uiso   1.00
O222   O     0.00668   0.45163   0.53115   0.00000  Uiso   1.00
O223   O     0.65614   0.29390   0.34017   0.00000  Uiso   1.00
O224   O     0.70360   0.67487   0.13062   0.00000  Uiso   1.00
N225   N     0.93787   0.46277   0.62407   0.00000  Uiso   1.00
N226   N     0.68807   0.35036   0.48798   0.00000  Uiso   1.00
N227   N     0.72188   0.62183   0.33865   0.00000  Uiso   1.00
N228   N     0.95028   0.45309   0.32489   0.00000  Uiso   1.00
N229   N     0.70048   0.34068   0.18881   0.00000  Uiso   1.00
N230   N     0.73429   0.61215   0.03948   0.00000  Uiso   1.00
C231   C     0.28153   0.97919   0.00990   0.00000  Uiso   1.00
C232   C     0.32765   0.97230   0.96825   0.00000  Uiso   1.00
C233   C     0.35951   0.97190   0.09988   0.00000  Uiso   1.00
C234   C     0.39964   0.96509   0.03358   0.00000  Uiso   1.00
C235   C     0.47004   0.95532   0.99799   0.00000  Uiso   1.00
C236   C     0.25881   0.94131   0.93075   0.00000  Uiso   1.00
C237   C     0.23278   0.91486   0.03085   0.00000  Uiso   1.00
C238   C     0.21495   0.88197   0.93297   0.00000  Uiso   1.00
C239   C     0.17845   0.82411   0.83913   0.00000  Uiso   1.00
C240   C     0.26813   0.01613   0.88960   0.00000  Uiso   1.00
C241   C     0.24994   0.05259   0.95510   0.00000  Uiso   1.00
C242   C     0.23995   0.08269   0.82256   0.00000  Uiso   1.00
C243   C     0.21793   0.14100   0.66483   0.00000  Uiso   1.00
C244   C     0.29612   0.96780   0.65807   0.00000  Uiso   1.00
C245   C     0.33558   0.96612   0.77715   0.00000  Uiso   1.00
C246   C     0.37566   0.95931   0.71063   0.00000  Uiso   1.00
C247   C     0.40758   0.95889   0.84214   0.00000  Uiso   1.00
C248   C     0.26673   0.93513   0.73966   0.00000  Uiso   1.00
C249   C     0.24893   0.90227   0.64160   0.00000  Uiso   1.00
C250   C     0.22289   0.87577   0.74153   0.00000  Uiso   1.00
C251   C     0.27606   0.00995   0.69850   0.00000  Uiso   1.00
C252   C     0.26609   0.03999   0.56584   0.00000  Uiso   1.00
C253   C     0.24789   0.07649   0.63112   0.00000  Uiso   1.00
H254   H     0.27536   0.98400   0.15868   0.00000  Uiso   1.00
H255   H     0.35336   0.97668   0.24776   0.00000  Uiso   1.00
H256   H     0.22665   0.91966   0.17873   0.00000  Uiso   1.00
H257   H     0.24381   0.05736   0.10299   0.00000  Uiso   1.00
H258   H     0.44335   0.96583   0.26226   0.00000  Uiso   1.00
H259   H     0.17616   0.84560   0.11669   0.00000  Uiso   1.00
H260   H     0.21233   0.13598   0.95697   0.00000  Uiso   1.00
H261   H     0.30230   0.96299   0.50929   0.00000  Uiso   1.00
H262   H     0.38179   0.95452   0.56274   0.00000  Uiso   1.00
H263   H     0.25507   0.89749   0.49371   0.00000  Uiso   1.00
H264   H     0.27223   0.03520   0.41797   0.00000  Uiso   1.00
H265   H     0.46641   0.94784   0.70627   0.00000  Uiso   1.00
H266   H     0.19922   0.82761   0.56071   0.00000  Uiso   1.00
H267   H     0.23540   0.11799   0.40098   0.00000  Uiso   1.00
O268   O     0.50668   0.95163   0.03115   0.00000  Uiso   1.00
O269   O     0.15614   0.79390   0.84017   0.00000  Uiso   1.00
O270   O     0.20360   0.17487   0.63062   0.00000  Uiso   1.00
N271   N     0.43787   0.96277   0.12407   0.00000  Uiso   1.00
N272   N     0.18807   0.85036   0.98798   0.00000  Uiso   1.00
N273   N     0.22188   0.12183   0.83865   0.00000  Uiso   1.00
N274   N     0.45028   0.95309   0.82489   0.00000  Uiso   1.00
N275   N     0.20048   0.84068   0.68881   0.00000  Uiso   1.00
N276   N     0.23429   0.11215   0.53948   0.00000  Uiso   1.00
C277   C     0.21847   0.52081   0.50990   0.00000  Uiso   1.00
C278   C     0.17235   0.52770   0.46825   0.00000  Uiso   1.00
C279   C     0.14049   0.52810   0.59988   0.00000  Uiso   1.00
C280   C     0.10036   0.53491   0.53358   0.00000  Uiso   1.00
C281   C     0.02996   0.54468   0.49799   0.00000  Uiso   1.00
C282   C     0.24119   0.55869   0.43075   0.00000  Uiso   1.00
C283   C     0.26722   0.58514   0.53085   0.00000  Uiso   1.00
C284   C     0.28505   0.61803   0.43297   0.00000  Uiso   1.00
C285   C     0.32155   0.67589   0.33913   0.00000  Uiso   1.00
C286   C     0.23187   0.48387   0.38960   0.00000  Uiso   1.00
C287   C     0.25006   0.44741   0.45510   0.00000  Uiso   1.00
C288   C     0.26005   0.41731   0.32256   0.00000  Uiso   1.00
C289   C     0.28207   0.35900   0.16483   0.00000  Uiso   1.00
C290   C     0.20388   0.53220   0.15807   0.00000  Uiso   1.00
C291   C     0.16442   0.53388   0.27715   0.00000  Uiso   1.00
C292   C     0.12434   0.54069   0.21063   0.00000  Uiso   1.00
C293   C     0.09242   0.54111   0.34214   0.00000  Uiso   1.00
C294   C     0.23327   0.56487   0.23966   0.00000  Uiso   1.00
C295   C     0.25107   0.59773   0.14160   0.00000  Uiso   1.00
C296   C     0.27711   0.62423   0.24153   0.00000  Uiso   1.00
C297   C     0.22394   0.49005   0.19850   0.00000  Uiso   1.00
C298   C     0.23391   0.46001   0.06584   0.00000  Uiso   1.00
C299   C     0.25211   0.42351   0.13112   0.00000  Uiso   1.00
H300   H     0.22464   0.51600   0.65868   0.00000  Uiso   1.00
H301   H     0.14664   0.52332   0.74776   0.00000  Uiso   1.00
H302   H     0.27335   0.58034   0.67873   0.00000  Uiso   1.00
H303   H     0.25619   0.44264   0.60299   0.00000  Uiso   1.00
H304   H     0.05665   0.53417   0.76226   0.00000  Uiso   1.00
H305   H     0.32384   0.65440   0.61669   0.00000  Uiso   1.00
H306   H     0.28767   0.36402   0.45697   0.00000  Uiso   1.00
H307   H     0.19770   0.53701   0.00929   0.00000  Uiso   1.00
H308   H     0.11821   0.54548   0.06274   0.00000  Uiso   1.00
H309   H     0.24493   0.60251   0.99371   0.00000  Uiso   1.00
H310   H     0.22777   0.46480   0.91797   0.00000  Uiso   1.00
H311   H     0.03359   0.55216   0.20627   0.00000  Uiso   1.00
H312   H     0.30078   0.67239   0.06071   0.00000  Uiso   1.00
H313   H     0.26460   0.38201   0.90098   0.00000  Uiso   1.00
O314   O     0.99332   0.54837   0.53115   0.00000  Uiso   1.00
O315   O     0.34386   0.70610   0.34017   0.00000  Uiso   1.00
O316   O     0.29640   0.32513   0.13062   0.00000  Uiso   1.00
N317   N     0.06213   0.53723   0.62407   0.00000  Uiso   1.00
N318   N     0.31193   0.64964   0.48798   0.00000  Uiso   1.00
N319   N     0.27812   0.37817   0.33865   0.00000  Uiso   1.00
N320   N     0.04972   0.54691   0.32489   0.00000  Uiso   1.00
N321   N     0.29952   0.65932   0.18881   0.00000  Uiso   1.00
N322   N     0.26571   0.38785   0.03948   0.00000  Uiso   1.00
C323   C     0.71847   0.02081   0.00990   0.00000  Uiso   1.00
C324   C     0.67235   0.02770   0.96825   0.00000  Uiso   1.00
C325   C     0.64049   0.02810   0.09988   0.00000  Uiso   1.00
C326   C     0.60036   0.03491   0.03358   0.00000  Uiso   1.00
C327   C     0.52996   0.04468   0.99799   0.00000  Uiso   1.00
C328   C     0.74119   0.05869   0.93075   0.00000  Uiso   1.00
C329   C     0.76722   0.08514   0.03085   0.00000  Uiso   1.00
C330   C     0.78505   0.11803   0.93297   0.00000  Uiso   1.00
C331   C     0.82155   0.17589   0.83913   0.00000  Uiso   1.00
C332   C     0.73187   0.98387   0.88960   0.00000  Uiso   1.00
C333   C     0.75006   0.94741   0.95510   0.00000  Uiso   1.00
C334   C     0.76005   0.91731   0.82256   0.00000  Uiso   1.00
C335   C     0.78207   0.85900   0.66483   0.00000  Uiso   1.00
C336   C     0.70388   0.03220   0.65807   0.00000  Uiso   1.00
C337   C     0.66442   0.03388   0.77715   0.00000  Uiso   1.00
C338   C     0.62434   0.04069   0.71063   0.00000  Uiso   1.00
C339   C     0.59242   0.04111   0.84214   0.00000  Uiso   1.00
C340   C     0.73327   0.06487   0.73966   0.00000  Uiso   1.00
C341   C     0.75107   0.09773   0.64160   0.00000  Uiso   1.00
C342   C     0.77711   0.12423   0.74153   0.00000  Uiso   1.00
C343   C     0.72394   0.99005   0.69850   0.00000  Uiso   1.00
C344   C     0.73391   0.96001   0.56584   0.00000  Uiso   1.00
C345   C     0.75211   0.92351   0.63112   0.00000  Uiso   1.00
H346   H     0.72464   0.01600   0.15868   0.00000  Uiso   1.00
H347   H     0.64664   0.02332   0.24776   0.00000  Uiso   1.00
H348   H     0.77335   0.08034   0.17873   0.00000  Uiso   1.00
H349   H     0.75619   0.94264   0.10299   0.00000  Uiso   1.00
H350   H     0.55665   0.03417   0.26226   0.00000  Uiso   1.00
H351   H     0.82384   0.15440   0.11669   0.00000  Uiso   1.00
H352   H     0.78767   0.86402   0.95697   0.00000  Uiso   1.00
H353   H     0.69770   0.03701   0.50929   0.00000  Uiso   1.00
H354   H     0.61821   0.04548   0.56274   0.00000  Uiso   1.00
H355   H     0.74493   0.10251   0.49371   0.00000  Uiso   1.00
H356   H     0.72777   0.96480   0.41797   0.00000  Uiso   1.00
H357   H     0.53359   0.05216   0.70627   0.00000  Uiso   1.00
H358   H     0.80078   0.17239   0.56071   0.00000  Uiso   1.00
H359   H     0.76460   0.88201   0.40098   0.00000  Uiso   1.00
O360   O     0.49332   0.04837   0.03115   0.00000  Uiso   1.00
O361   O     0.84386   0.20610   0.84017   0.00000  Uiso   1.00
O362   O     0.79640   0.82513   0.63062   0.00000  Uiso   1.00
N363   N     0.56213   0.03723   0.12407   0.00000  Uiso   1.00
N364   N     0.81193   0.14964   0.98798   0.00000  Uiso   1.00
N365   N     0.77812   0.87817   0.83865   0.00000  Uiso   1.00
N366   N     0.54972   0.04691   0.82489   0.00000  Uiso   1.00
N367   N     0.79952   0.15932   0.68881   0.00000  Uiso   1.00
N368   N     0.76571   0.88785   0.53948   0.00000  Uiso   1.00
