data_job_06232
_audit_creation_date              2018-12-19
_audit_creation_method            'Materials Studio'
_symmetry_space_group_name_H-M    'P1'
_symmetry_Int_Tables_number       1
_symmetry_cell_setting            triclinic
loop_
_symmetry_equiv_pos_as_xyz
  x,y,z
_cell_length_a                    21.6470
_cell_length_b                    21.9795
_cell_length_c                    22.1224
_cell_angle_alpha                 108.5720
_cell_angle_beta                  109.4320
_cell_angle_gamma                 109.7500
loop_
_atom_site_label
_atom_site_type_symbol
_atom_site_fract_x
_atom_site_fract_y
_atom_site_fract_z
_atom_site_U_iso_or_equiv
_atom_site_adp_type
_atom_site_occupancy
C1     C     0.77713   0.08904   0.70070   0.00000  Uiso   1.00
C2     C     0.75775   0.13312   0.75274   0.00000  Uiso   1.00
C3     C     0.68563   0.11514   0.74197   0.00000  Uiso   1.00
C4     C     0.67979   0.16258   0.79599   0.00000  Uiso   1.00
C5     C     0.63996   0.22145   0.86727   0.00000  Uiso   1.00
C6     C     0.82306   0.14276   0.68240   0.00000  Uiso   1.00
C7     C     0.80584   0.13289   0.61249   0.00000  Uiso   1.00
C8     C     0.85498   0.18844   0.60731   0.00000  Uiso   1.00
C9     C     0.91656   0.26226   0.56939   0.00000  Uiso   1.00
C10    C     0.83135   0.07087   0.74583   0.00000  Uiso   1.00
C11    C     0.82113   0.00054   0.72925   0.00000  Uiso   1.00
C12    C     0.87726   0.99557   0.77746   0.00000  Uiso   1.00
C13    C     0.95172   0.95775   0.83802   0.00000  Uiso   1.00
C14    C     0.89500   0.20524   0.81581   0.00000  Uiso   1.00
C15    C     0.82178   0.19624   0.81526   0.00000  Uiso   1.00
C16    C     0.81604   0.24371   0.86932   0.00000  Uiso   1.00
C17    C     0.74392   0.22581   0.85863   0.00000  Uiso   1.00
C18    C     0.88708   0.20588   0.74492   0.00000  Uiso   1.00
C19    C     0.93625   0.26146   0.73985   0.00000  Uiso   1.00
C20    C     0.91912   0.25167   0.66995   0.00000  Uiso   1.00
C21    C     0.89538   0.13398   0.80836   0.00000  Uiso   1.00
C22    C     0.95154   0.12911   0.85661   0.00000  Uiso   1.00
C23    C     0.94140   0.05880   0.84010   0.00000  Uiso   1.00
H24    H     0.72729   0.03990   0.65202   0.00000  Uiso   1.00
H25    H     0.63610   0.06630   0.69357   0.00000  Uiso   1.00
H26    H     0.75630   0.08404   0.56412   0.00000  Uiso   1.00
H27    H     0.77158   0.95172   0.68086   0.00000  Uiso   1.00
H28    H     0.56323   0.12341   0.76720   0.00000  Uiso   1.00
H29    H     0.81669   0.16081   0.49424   0.00000  Uiso   1.00
H30    H     0.84891   0.88178   0.74040   0.00000  Uiso   1.00
H31    H     0.94485   0.25438   0.86449   0.00000  Uiso   1.00
H32    H     0.86560   0.29255   0.91770   0.00000  Uiso   1.00
H33    H     0.98579   0.31029   0.78824   0.00000  Uiso   1.00
H34    H     0.00107   0.17796   0.90498   0.00000  Uiso   1.00
H35    H     0.74950   0.30705   0.94911   0.00000  Uiso   1.00
H36    H     0.00296   0.34444   0.67614   0.00000  Uiso   1.00
H37    H     0.03518   0.06541   0.92231   0.00000  Uiso   1.00
O38    O     0.60031   0.23649   0.88931   0.00000  Uiso   1.00
O39    O     0.93284   0.28554   0.53120   0.00000  Uiso   1.00
O40    O     0.97511   0.91945   0.85416   0.00000  Uiso   1.00
N41    N     0.61795   0.16139   0.80271   0.00000  Uiso   1.00
N42    N     0.85491   0.19635   0.54751   0.00000  Uiso   1.00
N43    N     0.88504   0.93548   0.77765   0.00000  Uiso   1.00
N44    N     0.71818   0.26020   0.90060   0.00000  Uiso   1.00
N45    N     0.95514   0.29517   0.64540   0.00000  Uiso   1.00
N46    N     0.98527   0.03430   0.87553   0.00000  Uiso   1.00
C47    C     0.69890   0.77894   0.08957   0.00000  Uiso   1.00
C48    C     0.75286   0.76039   0.13448   0.00000  Uiso   1.00
C49    C     0.74233   0.68994   0.11760   0.00000  Uiso   1.00
C50    C     0.79822   0.68460   0.16567   0.00000  Uiso   1.00
C51    C     0.87224   0.64623   0.22589   0.00000  Uiso   1.00
C52    C     0.67963   0.82300   0.14174   0.00000  Uiso   1.00
C53    C     0.60752   0.80519   0.13096   0.00000  Uiso   1.00
C54    C     0.60178   0.85257   0.18513   0.00000  Uiso   1.00
C55    C     0.56209   0.91143   0.25659   0.00000  Uiso   1.00
C56    C     0.74508   0.83280   0.07155   0.00000  Uiso   1.00
C57    C     0.72799   0.82324   0.00175   0.00000  Uiso   1.00
C58    C     0.77734   0.87888   0.99683   0.00000  Uiso   1.00
C59    C     0.83928   0.95295   0.95932   0.00000  Uiso   1.00
C60    C     0.81690   0.89476   0.20494   0.00000  Uiso   1.00
C61    C     0.81695   0.82330   0.19715   0.00000  Uiso   1.00
C62    C     0.87288   0.81807   0.24525   0.00000  Uiso   1.00
C63    C     0.86243   0.74762   0.22844   0.00000  Uiso   1.00
C64    C     0.74371   0.88591   0.20440   0.00000  Uiso   1.00
C65    C     0.73807   0.93333   0.25860   0.00000  Uiso   1.00
C66    C     0.66598   0.91559   0.24790   0.00000  Uiso   1.00
C67    C     0.80917   0.89571   0.13422   0.00000  Uiso   1.00
C68    C     0.85855   0.95137   0.12940   0.00000  Uiso   1.00
C69    C     0.84155   0.94190   0.05961   0.00000  Uiso   1.00
H70    H     0.64900   0.72997   0.04078   0.00000  Uiso   1.00
H71    H     0.69271   0.64127   0.06911   0.00000  Uiso   1.00
H72    H     0.55793   0.75651   0.08245   0.00000  Uiso   1.00
H73    H     0.67839   0.77456   0.95328   0.00000  Uiso   1.00
H74    H     0.76943   0.57067   0.12816   0.00000  Uiso   1.00
H75    H     0.48524   0.81368   0.15629   0.00000  Uiso   1.00
H76    H     0.73924   0.85172   0.88389   0.00000  Uiso   1.00
H77    H     0.86680   0.94374   0.25373   0.00000  Uiso   1.00
H78    H     0.92247   0.86676   0.29374   0.00000  Uiso   1.00
H79    H     0.78769   0.98201   0.30708   0.00000  Uiso   1.00
H80    H     0.90814   0.00005   0.17791   0.00000  Uiso   1.00
H81    H     0.95591   0.75369   0.31048   0.00000  Uiso   1.00
H82    H     0.67171   0.99670   0.33860   0.00000  Uiso   1.00
H83    H     0.92572   0.03474   0.06621   0.00000  Uiso   1.00
O84    O     0.89535   0.60768   0.24181   0.00000  Uiso   1.00
O85    O     0.52250   0.92651   0.27870   0.00000  Uiso   1.00
O86    O     0.85575   0.97642   0.92132   0.00000  Uiso   1.00
N87    N     0.80569   0.62431   0.16557   0.00000  Uiso   1.00
N88    N     0.53998   0.85150   0.19187   0.00000  Uiso   1.00
N89    N     0.77744   0.88708   0.93720   0.00000  Uiso   1.00
N90    N     0.90603   0.72279   0.26367   0.00000  Uiso   1.00
N91    N     0.64032   0.94998   0.28998   0.00000  Uiso   1.00
N92    N     0.87779   0.98556   0.03531   0.00000  Uiso   1.00
C93    C     0.08932   0.70096   0.78009   0.00000  Uiso   1.00
C94    C     0.13527   0.75456   0.76169   0.00000  Uiso   1.00
C95    C     0.11789   0.74470   0.69176   0.00000  Uiso   1.00
C96    C     0.16708   0.80011   0.68649   0.00000  Uiso   1.00
C97    C     0.22868   0.87373   0.64843   0.00000  Uiso   1.00
C98    C     0.14341   0.68251   0.82498   0.00000  Uiso   1.00
C99    C     0.13287   0.61207   0.80826   0.00000  Uiso   1.00
C100   C     0.18891   0.60684   0.85627   0.00000  Uiso   1.00
C101   C     0.26312   0.56860   0.91648   0.00000  Uiso   1.00
C102   C     0.07033   0.74527   0.83239   0.00000  Uiso   1.00
C103   C     0.99834   0.72758   0.82191   0.00000  Uiso   1.00
C104   C     0.99286   0.77518   0.87617   0.00000  Uiso   1.00
C105   C     0.95360   0.83438   0.94789   0.00000  Uiso   1.00
C106   C     0.20759   0.81691   0.89508   0.00000  Uiso   1.00
C107   C     0.19951   0.81753   0.82415   0.00000  Uiso   1.00
C108   C     0.24874   0.87298   0.81898   0.00000  Uiso   1.00
C109   C     0.23143   0.86320   0.74906   0.00000  Uiso   1.00
C110   C     0.20765   0.74549   0.88744   0.00000  Uiso   1.00
C111   C     0.26371   0.74035   0.93548   0.00000  Uiso   1.00
C112   C     0.25326   0.66993   0.91884   0.00000  Uiso   1.00
C113   C     0.13457   0.80825   0.89485   0.00000  Uiso   1.00
C114   C     0.12919   0.85587   0.94913   0.00000  Uiso   1.00
C115   C     0.05721   0.83827   0.93874   0.00000  Uiso   1.00
H116   H     0.03931   0.65193   0.73146   0.00000  Uiso   1.00
H117   H     0.06817   0.69595   0.64344   0.00000  Uiso   1.00
H118   H     0.08315   0.56334   0.75993   0.00000  Uiso   1.00
H119   H     0.94865   0.67884   0.77357   0.00000  Uiso   1.00
H120   H     0.12852   0.77251   0.57339   0.00000  Uiso   1.00
H121   H     0.16008   0.49291   0.81902   0.00000  Uiso   1.00
H122   H     0.87646   0.73646   0.84780   0.00000  Uiso   1.00
H123   H     0.25760   0.86594   0.94371   0.00000  Uiso   1.00
H124   H     0.29844   0.92171   0.86733   0.00000  Uiso   1.00
H125   H     0.31342   0.78910   0.98381   0.00000  Uiso   1.00
H126   H     0.17892   0.90460   0.99746   0.00000  Uiso   1.00
H127   H     0.31542   0.95575   0.75511   0.00000  Uiso   1.00
H128   H     0.34697   0.67614   0.00074   0.00000  Uiso   1.00
H129   H     0.06335   0.91969   0.02951   0.00000  Uiso   1.00
O130   O     0.24491   0.89694   0.61018   0.00000  Uiso   1.00
O131   O     0.28630   0.53012   0.93244   0.00000  Uiso   1.00
O132   O     0.91420   0.84964   0.97019   0.00000  Uiso   1.00
N133   N     0.16689   0.80799   0.62664   0.00000  Uiso   1.00
N134   N     0.19640   0.54658   0.85628   0.00000  Uiso   1.00
N135   N     0.93124   0.77427   0.88320   0.00000  Uiso   1.00
N136   N     0.26746   0.90659   0.72442   0.00000  Uiso   1.00
N137   N     0.29697   0.64518   0.95406   0.00000  Uiso   1.00
N138   N     0.03181   0.87286   0.98098   0.00000  Uiso   1.00
C139   C     0.22287   0.91096   0.29930   0.00000  Uiso   1.00
C140   C     0.24225   0.86688   0.24726   0.00000  Uiso   1.00
C141   C     0.31437   0.88486   0.25803   0.00000  Uiso   1.00
C142   C     0.32021   0.83742   0.20401   0.00000  Uiso   1.00
C143   C     0.36004   0.77855   0.13273   0.00000  Uiso   1.00
C144   C     0.17694   0.85724   0.31760   0.00000  Uiso   1.00
C145   C     0.19416   0.86711   0.38751   0.00000  Uiso   1.00
C146   C     0.14502   0.81156   0.39269   0.00000  Uiso   1.00
C147   C     0.08344   0.73774   0.43061   0.00000  Uiso   1.00
C148   C     0.16865   0.92913   0.25417   0.00000  Uiso   1.00
C149   C     0.17887   0.99946   0.27075   0.00000  Uiso   1.00
C150   C     0.12274   0.00443   0.22254   0.00000  Uiso   1.00
C151   C     0.04828   0.04225   0.16198   0.00000  Uiso   1.00
C152   C     0.10500   0.79476   0.18419   0.00000  Uiso   1.00
C153   C     0.17822   0.80377   0.18474   0.00000  Uiso   1.00
C154   C     0.18396   0.75629   0.13068   0.00000  Uiso   1.00
C155   C     0.25608   0.77419   0.14137   0.00000  Uiso   1.00
C156   C     0.11292   0.79412   0.25508   0.00000  Uiso   1.00
C157   C     0.06375   0.73854   0.26015   0.00000  Uiso   1.00
C158   C     0.08088   0.74833   0.33005   0.00000  Uiso   1.00
C159   C     0.10462   0.86602   0.19164   0.00000  Uiso   1.00
C160   C     0.04846   0.87089   0.14339   0.00000  Uiso   1.00
C161   C     0.05860   0.94120   0.15990   0.00000  Uiso   1.00
H162   H     0.27271   0.96010   0.34798   0.00000  Uiso   1.00
H163   H     0.36390   0.93370   0.30643   0.00000  Uiso   1.00
H164   H     0.24370   0.91596   0.43588   0.00000  Uiso   1.00
H165   H     0.22842   0.04828   0.31914   0.00000  Uiso   1.00
H166   H     0.43677   0.87659   0.23280   0.00000  Uiso   1.00
H167   H     0.18331   0.83919   0.50576   0.00000  Uiso   1.00
H168   H     0.15109   0.11822   0.25960   0.00000  Uiso   1.00
H169   H     0.05515   0.74562   0.13551   0.00000  Uiso   1.00
H170   H     0.13440   0.70745   0.08230   0.00000  Uiso   1.00
H171   H     0.01421   0.68971   0.21176   0.00000  Uiso   1.00
H172   H     0.99893   0.82204   0.09502   0.00000  Uiso   1.00
H173   H     0.25050   0.69295   0.05089   0.00000  Uiso   1.00
H174   H     0.99704   0.65556   0.32386   0.00000  Uiso   1.00
H175   H     0.96482   0.93459   0.07769   0.00000  Uiso   1.00
O176   O     0.39969   0.76351   0.11069   0.00000  Uiso   1.00
O177   O     0.06716   0.71446   0.46880   0.00000  Uiso   1.00
O178   O     0.02489   0.08055   0.14584   0.00000  Uiso   1.00
N179   N     0.38205   0.83861   0.19729   0.00000  Uiso   1.00
N180   N     0.14509   0.80365   0.45249   0.00000  Uiso   1.00
N181   N     0.11496   0.06452   0.22235   0.00000  Uiso   1.00
N182   N     0.28182   0.73980   0.09940   0.00000  Uiso   1.00
N183   N     0.04486   0.70483   0.35460   0.00000  Uiso   1.00
N184   N     0.01473   0.96570   0.12447   0.00000  Uiso   1.00
C185   C     0.30110   0.22106   0.91043   0.00000  Uiso   1.00
C186   C     0.24714   0.23961   0.86552   0.00000  Uiso   1.00
C187   C     0.25767   0.31006   0.88240   0.00000  Uiso   1.00
C188   C     0.20178   0.31540   0.83433   0.00000  Uiso   1.00
C189   C     0.12776   0.35377   0.77411   0.00000  Uiso   1.00
C190   C     0.32037   0.17700   0.85826   0.00000  Uiso   1.00
C191   C     0.39248   0.19481   0.86904   0.00000  Uiso   1.00
C192   C     0.39822   0.14743   0.81488   0.00000  Uiso   1.00
C193   C     0.43791   0.08857   0.74341   0.00000  Uiso   1.00
C194   C     0.25492   0.16720   0.92845   0.00000  Uiso   1.00
C195   C     0.27201   0.17676   0.99825   0.00000  Uiso   1.00
C196   C     0.22266   0.12112   0.00317   0.00000  Uiso   1.00
C197   C     0.16072   0.04705   0.04068   0.00000  Uiso   1.00
C198   C     0.18310   0.10524   0.79506   0.00000  Uiso   1.00
C199   C     0.18305   0.17670   0.80285   0.00000  Uiso   1.00
C200   C     0.12712   0.18193   0.75475   0.00000  Uiso   1.00
C201   C     0.13757   0.25238   0.77156   0.00000  Uiso   1.00
C202   C     0.25629   0.11409   0.79560   0.00000  Uiso   1.00
C203   C     0.26193   0.06667   0.74140   0.00000  Uiso   1.00
C204   C     0.33402   0.08441   0.75210   0.00000  Uiso   1.00
C205   C     0.19083   0.10429   0.86578   0.00000  Uiso   1.00
C206   C     0.14145   0.04863   0.87060   0.00000  Uiso   1.00
C207   C     0.15845   0.05810   0.94039   0.00000  Uiso   1.00
H208   H     0.35100   0.27003   0.95922   0.00000  Uiso   1.00
H209   H     0.30729   0.35873   0.93089   0.00000  Uiso   1.00
H210   H     0.44207   0.24349   0.91755   0.00000  Uiso   1.00
H211   H     0.32161   0.22544   0.04672   0.00000  Uiso   1.00
H212   H     0.23057   0.42933   0.87184   0.00000  Uiso   1.00
H213   H     0.51476   0.18632   0.84371   0.00000  Uiso   1.00
H214   H     0.26076   0.14828   0.11611   0.00000  Uiso   1.00
H215   H     0.13320   0.05626   0.74627   0.00000  Uiso   1.00
H216   H     0.07753   0.13324   0.70626   0.00000  Uiso   1.00
H217   H     0.21231   0.01799   0.69292   0.00000  Uiso   1.00
H218   H     0.09186   0.99995   0.82209   0.00000  Uiso   1.00
H219   H     0.04409   0.24631   0.68952   0.00000  Uiso   1.00
H220   H     0.32829   0.00330   0.66140   0.00000  Uiso   1.00
H221   H     0.07428   0.96526   0.93379   0.00000  Uiso   1.00
O222   O     0.10465   0.39232   0.75819   0.00000  Uiso   1.00
O223   O     0.47750   0.07349   0.72130   0.00000  Uiso   1.00
O224   O     0.14425   0.02358   0.07868   0.00000  Uiso   1.00
N225   N     0.19431   0.37569   0.83443   0.00000  Uiso   1.00
N226   N     0.46002   0.14850   0.80813   0.00000  Uiso   1.00
N227   N     0.22256   0.11292   0.06280   0.00000  Uiso   1.00
N228   N     0.09397   0.27721   0.73633   0.00000  Uiso   1.00
N229   N     0.35968   0.05002   0.71002   0.00000  Uiso   1.00
N230   N     0.12221   0.01444   0.96469   0.00000  Uiso   1.00
C231   C     0.91068   0.29904   0.21991   0.00000  Uiso   1.00
C232   C     0.86473   0.24544   0.23831   0.00000  Uiso   1.00
C233   C     0.88211   0.25530   0.30824   0.00000  Uiso   1.00
C234   C     0.83292   0.19989   0.31351   0.00000  Uiso   1.00
C235   C     0.77132   0.12627   0.35157   0.00000  Uiso   1.00
C236   C     0.85659   0.31749   0.17502   0.00000  Uiso   1.00
C237   C     0.86713   0.38793   0.19174   0.00000  Uiso   1.00
C238   C     0.81109   0.39316   0.14373   0.00000  Uiso   1.00
C239   C     0.73688   0.43140   0.08352   0.00000  Uiso   1.00
C240   C     0.92967   0.25473   0.16761   0.00000  Uiso   1.00
C241   C     0.00166   0.27242   0.17809   0.00000  Uiso   1.00
C242   C     0.00714   0.22482   0.12383   0.00000  Uiso   1.00
C243   C     0.04640   0.16562   0.05211   0.00000  Uiso   1.00
C244   C     0.79241   0.18309   0.10492   0.00000  Uiso   1.00
C245   C     0.80049   0.18247   0.17585   0.00000  Uiso   1.00
C246   C     0.75126   0.12702   0.18102   0.00000  Uiso   1.00
C247   C     0.76857   0.13680   0.25094   0.00000  Uiso   1.00
C248   C     0.79235   0.25451   0.11256   0.00000  Uiso   1.00
C249   C     0.73629   0.25965   0.06452   0.00000  Uiso   1.00
C250   C     0.74674   0.33007   0.08116   0.00000  Uiso   1.00
C251   C     0.86543   0.19176   0.10515   0.00000  Uiso   1.00
C252   C     0.87081   0.14413   0.05087   0.00000  Uiso   1.00
C253   C     0.94279   0.16173   0.06126   0.00000  Uiso   1.00
H254   H     0.96069   0.34807   0.26854   0.00000  Uiso   1.00
H255   H     0.93183   0.30405   0.35656   0.00000  Uiso   1.00
H256   H     0.91685   0.43666   0.24007   0.00000  Uiso   1.00
H257   H     0.05135   0.32116   0.22643   0.00000  Uiso   1.00
H258   H     0.87148   0.22749   0.42661   0.00000  Uiso   1.00
H259   H     0.83992   0.50709   0.18098   0.00000  Uiso   1.00
H260   H     0.12354   0.26354   0.15220   0.00000  Uiso   1.00
H261   H     0.74240   0.13406   0.05629   0.00000  Uiso   1.00
H262   H     0.70156   0.07829   0.13267   0.00000  Uiso   1.00
H263   H     0.68658   0.21090   0.01619   0.00000  Uiso   1.00
H264   H     0.82108   0.09540   0.00254   0.00000  Uiso   1.00
H265   H     0.68458   0.04425   0.24489   0.00000  Uiso   1.00
H266   H     0.65303   0.32386   0.99926   0.00000  Uiso   1.00
H267   H     0.93665   0.08031   0.97049   0.00000  Uiso   1.00
O268   O     0.75509   0.10306   0.38982   0.00000  Uiso   1.00
O269   O     0.71370   0.46989   0.06756   0.00000  Uiso   1.00
O270   O     0.08580   0.15036   0.02981   0.00000  Uiso   1.00
N271   N     0.83311   0.19201   0.37336   0.00000  Uiso   1.00
N272   N     0.80360   0.45342   0.14372   0.00000  Uiso   1.00
N273   N     0.06876   0.22573   0.11680   0.00000  Uiso   1.00
N274   N     0.73254   0.09341   0.27558   0.00000  Uiso   1.00
N275   N     0.70303   0.35482   0.04594   0.00000  Uiso   1.00
N276   N     0.96819   0.12714   0.01902   0.00000  Uiso   1.00
