data_job_00703
_audit_creation_date              2018-12-19
_audit_creation_method            'Materials Studio'
_symmetry_space_group_name_H-M    'P1'
_symmetry_Int_Tables_number       1
_symmetry_cell_setting            triclinic
loop_
_symmetry_equiv_pos_as_xyz
  x,y,z
_cell_length_a                    22.1715
_cell_length_b                    13.5358
_cell_length_c                    15.9924
_cell_angle_alpha                 90.0000
_cell_angle_beta                  90.0000
_cell_angle_gamma                 90.0000
loop_
_atom_site_label
_atom_site_type_symbol
_atom_site_fract_x
_atom_site_fract_y
_atom_site_fract_z
_atom_site_U_iso_or_equiv
_atom_site_adp_type
_atom_site_occupancy
C1     C     0.64011   0.82814   0.72225   0.00000  Uiso   1.00
C2     C     0.57775   0.80282   0.68820   0.00000  Uiso   1.00
C3     C     0.54669   0.85558   0.62753   0.00000  Uiso   1.00
C4     C     0.49018   0.82039   0.60488   0.00000  Uiso   1.00
C5     C     0.39707   0.79402   0.54644   0.00000  Uiso   1.00
C6     C     0.63275   0.83787   0.81670   0.00000  Uiso   1.00
C7     C     0.64794   0.92010   0.86407   0.00000  Uiso   1.00
C8     C     0.63774   0.91441   0.94960   0.00000  Uiso   1.00
C9     C     0.63006   0.94243   0.09067   0.00000  Uiso   1.00
C10    C     0.67891   0.73662   0.70823   0.00000  Uiso   1.00
C11    C     0.73291   0.73371   0.66441   0.00000  Uiso   1.00
C12    C     0.76158   0.64277   0.65862   0.00000  Uiso   1.00
C13    C     0.82557   0.51357   0.63128   0.00000  Uiso   1.00
C14    C     0.59501   0.67182   0.78990   0.00000  Uiso   1.00
C15    C     0.55326   0.71791   0.72495   0.00000  Uiso   1.00
C16    C     0.49679   0.68263   0.70238   0.00000  Uiso   1.00
C17    C     0.46564   0.73533   0.64168   0.00000  Uiso   1.00
C18    C     0.60826   0.75297   0.85345   0.00000  Uiso   1.00
C19    C     0.59804   0.74715   0.93892   0.00000  Uiso   1.00
C20    C     0.61320   0.82935   0.98641   0.00000  Uiso   1.00
C21    C     0.65442   0.65171   0.74497   0.00000  Uiso   1.00
C22    C     0.68301   0.56076   0.73926   0.00000  Uiso   1.00
C23    C     0.73704   0.55771   0.69544   0.00000  Uiso   1.00
H24    H     0.65918   0.89425   0.69365   0.00000  Uiso   1.00
H25    H     0.56566   0.92129   0.59911   0.00000  Uiso   1.00
H26    H     0.66690   0.98579   0.83562   0.00000  Uiso   1.00
H27    H     0.75186   0.79943   0.63598   0.00000  Uiso   1.00
H28    H     0.45115   0.91385   0.51053   0.00000  Uiso   1.00
H29    H     0.66465   0.04984   0.00922   0.00000  Uiso   1.00
H30    H     0.84380   0.65686   0.58825   0.00000  Uiso   1.00
H31    H     0.57594   0.60571   0.81852   0.00000  Uiso   1.00
H32    H     0.47784   0.61692   0.73083   0.00000  Uiso   1.00
H33    H     0.57909   0.68143   0.96734   0.00000  Uiso   1.00
H34    H     0.66404   0.49507   0.76770   0.00000  Uiso   1.00
H35    H     0.37988   0.66682   0.61743   0.00000  Uiso   1.00
H36    H     0.59338   0.80281   0.11613   0.00000  Uiso   1.00
H37    H     0.77253   0.40983   0.69516   0.00000  Uiso   1.00
O38    O     0.35248   0.80293   0.50406   0.00000  Uiso   1.00
O39    O     0.63259   0.98134   0.15833   0.00000  Uiso   1.00
O40    O     0.86763   0.46576   0.60603   0.00000  Uiso   1.00
N41    N     0.44785   0.85416   0.54771   0.00000  Uiso   1.00
N42    N     0.64744   0.98131   0.01396   0.00000  Uiso   1.00
N43    N     0.81494   0.61391   0.62041   0.00000  Uiso   1.00
N44    N     0.40949   0.72123   0.60523   0.00000  Uiso   1.00
N45    N     0.60909   0.84839   0.07148   0.00000  Uiso   1.00
N46    N     0.77659   0.48099   0.67793   0.00000  Uiso   1.00
C47    C     0.90626   0.31094   0.26105   0.00000  Uiso   1.00
C48    C     0.94886   0.22918   0.28961   0.00000  Uiso   1.00
C49    C     0.98903   0.23518   0.35597   0.00000  Uiso   1.00
C50    C     0.02408   0.15234   0.37206   0.00000  Uiso   1.00
C51    C     0.09101   0.03844   0.42377   0.00000  Uiso   1.00
C52    C     0.92058   0.32896   0.16904   0.00000  Uiso   1.00
C53    C     0.93695   0.41886   0.13403   0.00000  Uiso   1.00
C54    C     0.94819   0.42002   0.04862   0.00000  Uiso   1.00
C55    C     0.97116   0.46105   0.91313   0.00000  Uiso   1.00
C56    C     0.84307   0.26655   0.26322   0.00000  Uiso   1.00
C57    C     0.79427   0.30399   0.30737   0.00000  Uiso   1.00
C58    C     0.74024   0.25262   0.30124   0.00000  Uiso   1.00
C59    C     0.64287   0.19676   0.31198   0.00000  Uiso   1.00
C60    C     0.89709   0.15315   0.17163   0.00000  Uiso   1.00
C61    C     0.94388   0.14348   0.24104   0.00000  Uiso   1.00
C62    C     0.97888   0.06061   0.25704   0.00000  Uiso   1.00
C63    C     0.01909   0.06648   0.32341   0.00000  Uiso   1.00
C64    C     0.91560   0.24326   0.12047   0.00000  Uiso   1.00
C65    C     0.92681   0.24429   0.03510   0.00000  Uiso   1.00
C66    C     0.94320   0.33416   0.99996   0.00000  Uiso   1.00
C67    C     0.83808   0.18085   0.21465   0.00000  Uiso   1.00
C68    C     0.78412   0.12942   0.20844   0.00000  Uiso   1.00
C69    C     0.73525   0.16677   0.25258   0.00000  Uiso   1.00
H70    H     0.91014   0.37766   0.29886   0.00000  Uiso   1.00
H71    H     0.99287   0.30152   0.39353   0.00000  Uiso   1.00
H72    H     0.94080   0.48517   0.17163   0.00000  Uiso   1.00
H73    H     0.79814   0.37032   0.34495   0.00000  Uiso   1.00
H74    H     0.08242   0.17931   0.47707   0.00000  Uiso   1.00
H75    H     0.97260   0.56656   0.00915   0.00000  Uiso   1.00
H76    H     0.67177   0.32437   0.37463   0.00000  Uiso   1.00
H77    H     0.89321   0.08643   0.13382   0.00000  Uiso   1.00
H78    H     0.97501   0.99429   0.21944   0.00000  Uiso   1.00
H79    H     0.92294   0.17796   0.99753   0.00000  Uiso   1.00
H80    H     0.78028   0.06310   0.17085   0.00000  Uiso   1.00
H81    H     0.06792   0.92996   0.33576   0.00000  Uiso   1.00
H82    H     0.95810   0.31722   0.86785   0.00000  Uiso   1.00
H83    H     0.65728   0.07502   0.23333   0.00000  Uiso   1.00
O84    O     0.12930   0.99929   0.46570   0.00000  Uiso   1.00
O85    O     0.98521   0.50736   0.85182   0.00000  Uiso   1.00
O86    O     0.59054   0.18961   0.33132   0.00000  Uiso   1.00
N87    N     0.06777   0.13326   0.43207   0.00000  Uiso   1.00
N88    N     0.96511   0.49532   0.99460   0.00000  Uiso   1.00
N89    N     0.68385   0.26891   0.33628   0.00000  Uiso   1.00
N90    N     0.05997   0.99909   0.35604   0.00000  Uiso   1.00
N91    N     0.95731   0.36115   0.91857   0.00000  Uiso   1.00
N92    N     0.67605   0.13473   0.26025   0.00000  Uiso   1.00
C93    C     0.35989   0.17186   0.22225   0.00000  Uiso   1.00
C94    C     0.42225   0.19718   0.18820   0.00000  Uiso   1.00
C95    C     0.45331   0.14442   0.12753   0.00000  Uiso   1.00
C96    C     0.50982   0.17961   0.10488   0.00000  Uiso   1.00
C97    C     0.60293   0.20598   0.04644   0.00000  Uiso   1.00
C98    C     0.36725   0.16213   0.31670   0.00000  Uiso   1.00
C99    C     0.35206   0.07990   0.36407   0.00000  Uiso   1.00
C100   C     0.36226   0.08559   0.44960   0.00000  Uiso   1.00
C101   C     0.36994   0.05757   0.59067   0.00000  Uiso   1.00
C102   C     0.32109   0.26338   0.20823   0.00000  Uiso   1.00
C103   C     0.26709   0.26629   0.16441   0.00000  Uiso   1.00
C104   C     0.23842   0.35723   0.15862   0.00000  Uiso   1.00
C105   C     0.17443   0.48643   0.13128   0.00000  Uiso   1.00
C106   C     0.40499   0.32818   0.28990   0.00000  Uiso   1.00
C107   C     0.44674   0.28209   0.22495   0.00000  Uiso   1.00
C108   C     0.50321   0.31737   0.20238   0.00000  Uiso   1.00
C109   C     0.53436   0.26467   0.14168   0.00000  Uiso   1.00
C110   C     0.39174   0.24703   0.35345   0.00000  Uiso   1.00
C111   C     0.40196   0.25285   0.43892   0.00000  Uiso   1.00
C112   C     0.38680   0.17065   0.48641   0.00000  Uiso   1.00
C113   C     0.34558   0.34829   0.24497   0.00000  Uiso   1.00
C114   C     0.31699   0.43924   0.23926   0.00000  Uiso   1.00
C115   C     0.26296   0.44229   0.19544   0.00000  Uiso   1.00
H116   H     0.34082   0.10575   0.19365   0.00000  Uiso   1.00
H117   H     0.43434   0.07871   0.09911   0.00000  Uiso   1.00
H118   H     0.33310   0.01421   0.33562   0.00000  Uiso   1.00
H119   H     0.24814   0.20057   0.13598   0.00000  Uiso   1.00
H120   H     0.54885   0.08615   0.01053   0.00000  Uiso   1.00
H121   H     0.33535   0.95016   0.50922   0.00000  Uiso   1.00
H122   H     0.15620   0.34314   0.08825   0.00000  Uiso   1.00
H123   H     0.42406   0.39429   0.31852   0.00000  Uiso   1.00
H124   H     0.52216   0.38308   0.23083   0.00000  Uiso   1.00
H125   H     0.42091   0.31857   0.46734   0.00000  Uiso   1.00
H126   H     0.33596   0.50493   0.26770   0.00000  Uiso   1.00
H127   H     0.62012   0.33318   0.11743   0.00000  Uiso   1.00
H128   H     0.40662   0.19719   0.61613   0.00000  Uiso   1.00
H129   H     0.22747   0.59017   0.19516   0.00000  Uiso   1.00
O130   O     0.64752   0.19707   0.00406   0.00000  Uiso   1.00
O131   O     0.36741   0.01866   0.65833   0.00000  Uiso   1.00
O132   O     0.13237   0.53424   0.10603   0.00000  Uiso   1.00
N133   N     0.55215   0.14584   0.04771   0.00000  Uiso   1.00
N134   N     0.35256   0.01869   0.51396   0.00000  Uiso   1.00
N135   N     0.18506   0.38609   0.12041   0.00000  Uiso   1.00
N136   N     0.59051   0.27877   0.10523   0.00000  Uiso   1.00
N137   N     0.39091   0.15161   0.57148   0.00000  Uiso   1.00
N138   N     0.22341   0.51901   0.17793   0.00000  Uiso   1.00
C139   C     0.09374   0.68906   0.76105   0.00000  Uiso   1.00
C140   C     0.05114   0.77082   0.78961   0.00000  Uiso   1.00
C141   C     0.01097   0.76482   0.85597   0.00000  Uiso   1.00
C142   C     0.97592   0.84766   0.87206   0.00000  Uiso   1.00
C143   C     0.90899   0.96156   0.92377   0.00000  Uiso   1.00
C144   C     0.07942   0.67104   0.66904   0.00000  Uiso   1.00
C145   C     0.06305   0.58114   0.63403   0.00000  Uiso   1.00
C146   C     0.05181   0.57998   0.54862   0.00000  Uiso   1.00
C147   C     0.02884   0.53895   0.41313   0.00000  Uiso   1.00
C148   C     0.15693   0.73345   0.76322   0.00000  Uiso   1.00
C149   C     0.20573   0.69601   0.80737   0.00000  Uiso   1.00
C150   C     0.25976   0.74738   0.80124   0.00000  Uiso   1.00
C151   C     0.35713   0.80324   0.81198   0.00000  Uiso   1.00
C152   C     0.10291   0.84685   0.67163   0.00000  Uiso   1.00
C153   C     0.05612   0.85652   0.74104   0.00000  Uiso   1.00
C154   C     0.02112   0.93939   0.75704   0.00000  Uiso   1.00
C155   C     0.98091   0.93352   0.82341   0.00000  Uiso   1.00
C156   C     0.08440   0.75674   0.62047   0.00000  Uiso   1.00
C157   C     0.07319   0.75571   0.53510   0.00000  Uiso   1.00
C158   C     0.05680   0.66584   0.49996   0.00000  Uiso   1.00
C159   C     0.16192   0.81915   0.71465   0.00000  Uiso   1.00
C160   C     0.21588   0.87058   0.70844   0.00000  Uiso   1.00
C161   C     0.26475   0.83323   0.75258   0.00000  Uiso   1.00
H162   H     0.08986   0.62234   0.79886   0.00000  Uiso   1.00
H163   H     0.00713   0.69848   0.89353   0.00000  Uiso   1.00
H164   H     0.05920   0.51483   0.67163   0.00000  Uiso   1.00
H165   H     0.20186   0.62968   0.84495   0.00000  Uiso   1.00
H166   H     0.91758   0.82069   0.97707   0.00000  Uiso   1.00
H167   H     0.02740   0.43344   0.50915   0.00000  Uiso   1.00
H168   H     0.32823   0.67563   0.87463   0.00000  Uiso   1.00
H169   H     0.10679   0.91357   0.63382   0.00000  Uiso   1.00
H170   H     0.02499   0.00571   0.71944   0.00000  Uiso   1.00
H171   H     0.07706   0.82204   0.49753   0.00000  Uiso   1.00
H172   H     0.21972   0.93690   0.67085   0.00000  Uiso   1.00
H173   H     0.93208   0.07004   0.83576   0.00000  Uiso   1.00
H174   H     0.04190   0.68278   0.36785   0.00000  Uiso   1.00
H175   H     0.34272   0.92498   0.73333   0.00000  Uiso   1.00
O176   O     0.87070   0.00071   0.96570   0.00000  Uiso   1.00
O177   O     0.01479   0.49264   0.35182   0.00000  Uiso   1.00
O178   O     0.40946   0.81039   0.83132   0.00000  Uiso   1.00
N179   N     0.93223   0.86674   0.93207   0.00000  Uiso   1.00
N180   N     0.03489   0.50468   0.49460   0.00000  Uiso   1.00
N181   N     0.31615   0.73109   0.83628   0.00000  Uiso   1.00
N182   N     0.94003   0.00091   0.85604   0.00000  Uiso   1.00
N183   N     0.04269   0.63885   0.41857   0.00000  Uiso   1.00
N184   N     0.32395   0.86527   0.76025   0.00000  Uiso   1.00
C185   C     0.14011   0.17186   0.72225   0.00000  Uiso   1.00
C186   C     0.07775   0.19718   0.68820   0.00000  Uiso   1.00
C187   C     0.04669   0.14442   0.62753   0.00000  Uiso   1.00
C188   C     0.99018   0.17961   0.60488   0.00000  Uiso   1.00
C189   C     0.89707   0.20598   0.54644   0.00000  Uiso   1.00
C190   C     0.13275   0.16213   0.81670   0.00000  Uiso   1.00
C191   C     0.14794   0.07990   0.86407   0.00000  Uiso   1.00
C192   C     0.13774   0.08559   0.94960   0.00000  Uiso   1.00
C193   C     0.13006   0.05757   0.09067   0.00000  Uiso   1.00
C194   C     0.17891   0.26338   0.70823   0.00000  Uiso   1.00
C195   C     0.23291   0.26629   0.66441   0.00000  Uiso   1.00
C196   C     0.26158   0.35723   0.65862   0.00000  Uiso   1.00
C197   C     0.32557   0.48643   0.63128   0.00000  Uiso   1.00
C198   C     0.09501   0.32818   0.78990   0.00000  Uiso   1.00
C199   C     0.05326   0.28209   0.72495   0.00000  Uiso   1.00
C200   C     0.99679   0.31737   0.70238   0.00000  Uiso   1.00
C201   C     0.96564   0.26467   0.64168   0.00000  Uiso   1.00
C202   C     0.10826   0.24703   0.85345   0.00000  Uiso   1.00
C203   C     0.09804   0.25285   0.93892   0.00000  Uiso   1.00
C204   C     0.11320   0.17065   0.98641   0.00000  Uiso   1.00
C205   C     0.15442   0.34829   0.74497   0.00000  Uiso   1.00
C206   C     0.18301   0.43924   0.73926   0.00000  Uiso   1.00
C207   C     0.23704   0.44229   0.69544   0.00000  Uiso   1.00
H208   H     0.15918   0.10575   0.69365   0.00000  Uiso   1.00
H209   H     0.06566   0.07871   0.59911   0.00000  Uiso   1.00
H210   H     0.16690   0.01421   0.83562   0.00000  Uiso   1.00
H211   H     0.25186   0.20057   0.63598   0.00000  Uiso   1.00
H212   H     0.95115   0.08615   0.51053   0.00000  Uiso   1.00
H213   H     0.16465   0.95016   0.00922   0.00000  Uiso   1.00
H214   H     0.34380   0.34314   0.58825   0.00000  Uiso   1.00
H215   H     0.07594   0.39429   0.81852   0.00000  Uiso   1.00
H216   H     0.97784   0.38308   0.73083   0.00000  Uiso   1.00
H217   H     0.07909   0.31857   0.96734   0.00000  Uiso   1.00
H218   H     0.16404   0.50493   0.76770   0.00000  Uiso   1.00
H219   H     0.87988   0.33318   0.61743   0.00000  Uiso   1.00
H220   H     0.09338   0.19719   0.11613   0.00000  Uiso   1.00
H221   H     0.27253   0.59017   0.69516   0.00000  Uiso   1.00
O222   O     0.85248   0.19707   0.50406   0.00000  Uiso   1.00
O223   O     0.13259   0.01866   0.15833   0.00000  Uiso   1.00
O224   O     0.36763   0.53424   0.60603   0.00000  Uiso   1.00
N225   N     0.94785   0.14584   0.54771   0.00000  Uiso   1.00
N226   N     0.14744   0.01869   0.01396   0.00000  Uiso   1.00
N227   N     0.31494   0.38609   0.62041   0.00000  Uiso   1.00
N228   N     0.90949   0.27877   0.60523   0.00000  Uiso   1.00
N229   N     0.10909   0.15161   0.07148   0.00000  Uiso   1.00
N230   N     0.27659   0.51901   0.67793   0.00000  Uiso   1.00
C231   C     0.40626   0.68906   0.26105   0.00000  Uiso   1.00
C232   C     0.44886   0.77082   0.28961   0.00000  Uiso   1.00
C233   C     0.48903   0.76482   0.35597   0.00000  Uiso   1.00
C234   C     0.52408   0.84766   0.37206   0.00000  Uiso   1.00
C235   C     0.59101   0.96156   0.42377   0.00000  Uiso   1.00
C236   C     0.42058   0.67104   0.16904   0.00000  Uiso   1.00
C237   C     0.43695   0.58114   0.13403   0.00000  Uiso   1.00
C238   C     0.44819   0.57998   0.04862   0.00000  Uiso   1.00
C239   C     0.47116   0.53895   0.91313   0.00000  Uiso   1.00
C240   C     0.34307   0.73345   0.26322   0.00000  Uiso   1.00
C241   C     0.29427   0.69601   0.30737   0.00000  Uiso   1.00
C242   C     0.24024   0.74738   0.30124   0.00000  Uiso   1.00
C243   C     0.14287   0.80324   0.31198   0.00000  Uiso   1.00
C244   C     0.39709   0.84685   0.17163   0.00000  Uiso   1.00
C245   C     0.44388   0.85652   0.24104   0.00000  Uiso   1.00
C246   C     0.47888   0.93939   0.25704   0.00000  Uiso   1.00
C247   C     0.51909   0.93352   0.32341   0.00000  Uiso   1.00
C248   C     0.41560   0.75674   0.12047   0.00000  Uiso   1.00
C249   C     0.42681   0.75571   0.03510   0.00000  Uiso   1.00
C250   C     0.44320   0.66584   0.99996   0.00000  Uiso   1.00
C251   C     0.33808   0.81915   0.21465   0.00000  Uiso   1.00
C252   C     0.28412   0.87058   0.20844   0.00000  Uiso   1.00
C253   C     0.23525   0.83323   0.25258   0.00000  Uiso   1.00
H254   H     0.41014   0.62234   0.29886   0.00000  Uiso   1.00
H255   H     0.49287   0.69848   0.39353   0.00000  Uiso   1.00
H256   H     0.44080   0.51483   0.17163   0.00000  Uiso   1.00
H257   H     0.29814   0.62968   0.34495   0.00000  Uiso   1.00
H258   H     0.58242   0.82069   0.47707   0.00000  Uiso   1.00
H259   H     0.47260   0.43344   0.00915   0.00000  Uiso   1.00
H260   H     0.17177   0.67563   0.37463   0.00000  Uiso   1.00
H261   H     0.39321   0.91357   0.13382   0.00000  Uiso   1.00
H262   H     0.47501   0.00571   0.21944   0.00000  Uiso   1.00
H263   H     0.42294   0.82204   0.99753   0.00000  Uiso   1.00
H264   H     0.28028   0.93690   0.17085   0.00000  Uiso   1.00
H265   H     0.56792   0.07004   0.33576   0.00000  Uiso   1.00
H266   H     0.45810   0.68278   0.86785   0.00000  Uiso   1.00
H267   H     0.15728   0.92498   0.23333   0.00000  Uiso   1.00
O268   O     0.62930   0.00071   0.46570   0.00000  Uiso   1.00
O269   O     0.48521   0.49264   0.85182   0.00000  Uiso   1.00
O270   O     0.09054   0.81039   0.33132   0.00000  Uiso   1.00
N271   N     0.56777   0.86674   0.43207   0.00000  Uiso   1.00
N272   N     0.46511   0.50468   0.99460   0.00000  Uiso   1.00
N273   N     0.18385   0.73109   0.33628   0.00000  Uiso   1.00
N274   N     0.55997   0.00091   0.35604   0.00000  Uiso   1.00
N275   N     0.45731   0.63885   0.91857   0.00000  Uiso   1.00
N276   N     0.17605   0.86527   0.26025   0.00000  Uiso   1.00
C277   C     0.85989   0.82814   0.22225   0.00000  Uiso   1.00
C278   C     0.92225   0.80282   0.18820   0.00000  Uiso   1.00
C279   C     0.95331   0.85558   0.12753   0.00000  Uiso   1.00
C280   C     0.00982   0.82039   0.10488   0.00000  Uiso   1.00
C281   C     0.10293   0.79402   0.04644   0.00000  Uiso   1.00
C282   C     0.86725   0.83787   0.31670   0.00000  Uiso   1.00
C283   C     0.85206   0.92010   0.36407   0.00000  Uiso   1.00
C284   C     0.86226   0.91441   0.44960   0.00000  Uiso   1.00
C285   C     0.86994   0.94243   0.59067   0.00000  Uiso   1.00
C286   C     0.82109   0.73662   0.20823   0.00000  Uiso   1.00
C287   C     0.76709   0.73371   0.16441   0.00000  Uiso   1.00
C288   C     0.73842   0.64277   0.15862   0.00000  Uiso   1.00
C289   C     0.67443   0.51357   0.13128   0.00000  Uiso   1.00
C290   C     0.90499   0.67182   0.28990   0.00000  Uiso   1.00
C291   C     0.94674   0.71791   0.22495   0.00000  Uiso   1.00
C292   C     0.00321   0.68263   0.20238   0.00000  Uiso   1.00
C293   C     0.03436   0.73533   0.14168   0.00000  Uiso   1.00
C294   C     0.89174   0.75297   0.35345   0.00000  Uiso   1.00
C295   C     0.90196   0.74715   0.43892   0.00000  Uiso   1.00
C296   C     0.88680   0.82935   0.48641   0.00000  Uiso   1.00
C297   C     0.84558   0.65171   0.24497   0.00000  Uiso   1.00
C298   C     0.81699   0.56076   0.23926   0.00000  Uiso   1.00
C299   C     0.76296   0.55771   0.19544   0.00000  Uiso   1.00
H300   H     0.84082   0.89425   0.19365   0.00000  Uiso   1.00
H301   H     0.93434   0.92129   0.09911   0.00000  Uiso   1.00
H302   H     0.83310   0.98579   0.33562   0.00000  Uiso   1.00
H303   H     0.74814   0.79943   0.13598   0.00000  Uiso   1.00
H304   H     0.04885   0.91385   0.01053   0.00000  Uiso   1.00
H305   H     0.83535   0.04984   0.50922   0.00000  Uiso   1.00
H306   H     0.65620   0.65686   0.08825   0.00000  Uiso   1.00
H307   H     0.92406   0.60571   0.31852   0.00000  Uiso   1.00
H308   H     0.02216   0.61692   0.23083   0.00000  Uiso   1.00
H309   H     0.92091   0.68143   0.46734   0.00000  Uiso   1.00
H310   H     0.83596   0.49507   0.26770   0.00000  Uiso   1.00
H311   H     0.12012   0.66682   0.11743   0.00000  Uiso   1.00
H312   H     0.90662   0.80281   0.61613   0.00000  Uiso   1.00
H313   H     0.72747   0.40983   0.19516   0.00000  Uiso   1.00
O314   O     0.14752   0.80293   0.00406   0.00000  Uiso   1.00
O315   O     0.86741   0.98134   0.65833   0.00000  Uiso   1.00
O316   O     0.63237   0.46576   0.10603   0.00000  Uiso   1.00
N317   N     0.05215   0.85416   0.04771   0.00000  Uiso   1.00
N318   N     0.85256   0.98131   0.51396   0.00000  Uiso   1.00
N319   N     0.68506   0.61391   0.12041   0.00000  Uiso   1.00
N320   N     0.09051   0.72123   0.10523   0.00000  Uiso   1.00
N321   N     0.89091   0.84839   0.57148   0.00000  Uiso   1.00
N322   N     0.72341   0.48099   0.17793   0.00000  Uiso   1.00
C323   C     0.59374   0.31094   0.76105   0.00000  Uiso   1.00
C324   C     0.55114   0.22918   0.78961   0.00000  Uiso   1.00
C325   C     0.51097   0.23518   0.85597   0.00000  Uiso   1.00
C326   C     0.47592   0.15234   0.87206   0.00000  Uiso   1.00
C327   C     0.40899   0.03844   0.92377   0.00000  Uiso   1.00
C328   C     0.57942   0.32896   0.66904   0.00000  Uiso   1.00
C329   C     0.56305   0.41886   0.63403   0.00000  Uiso   1.00
C330   C     0.55181   0.42002   0.54862   0.00000  Uiso   1.00
C331   C     0.52884   0.46105   0.41313   0.00000  Uiso   1.00
C332   C     0.65693   0.26655   0.76322   0.00000  Uiso   1.00
C333   C     0.70573   0.30399   0.80737   0.00000  Uiso   1.00
C334   C     0.75976   0.25262   0.80124   0.00000  Uiso   1.00
C335   C     0.85713   0.19676   0.81198   0.00000  Uiso   1.00
C336   C     0.60291   0.15315   0.67163   0.00000  Uiso   1.00
C337   C     0.55612   0.14348   0.74104   0.00000  Uiso   1.00
C338   C     0.52112   0.06061   0.75704   0.00000  Uiso   1.00
C339   C     0.48091   0.06648   0.82341   0.00000  Uiso   1.00
C340   C     0.58440   0.24326   0.62047   0.00000  Uiso   1.00
C341   C     0.57319   0.24429   0.53510   0.00000  Uiso   1.00
C342   C     0.55680   0.33416   0.49996   0.00000  Uiso   1.00
C343   C     0.66192   0.18085   0.71465   0.00000  Uiso   1.00
C344   C     0.71588   0.12942   0.70844   0.00000  Uiso   1.00
C345   C     0.76475   0.16677   0.75258   0.00000  Uiso   1.00
H346   H     0.58986   0.37766   0.79886   0.00000  Uiso   1.00
H347   H     0.50713   0.30152   0.89353   0.00000  Uiso   1.00
H348   H     0.55920   0.48517   0.67163   0.00000  Uiso   1.00
H349   H     0.70186   0.37032   0.84495   0.00000  Uiso   1.00
H350   H     0.41758   0.17931   0.97707   0.00000  Uiso   1.00
H351   H     0.52740   0.56656   0.50915   0.00000  Uiso   1.00
H352   H     0.82823   0.32437   0.87463   0.00000  Uiso   1.00
H353   H     0.60679   0.08643   0.63382   0.00000  Uiso   1.00
H354   H     0.52499   0.99429   0.71944   0.00000  Uiso   1.00
H355   H     0.57706   0.17796   0.49753   0.00000  Uiso   1.00
H356   H     0.71972   0.06310   0.67085   0.00000  Uiso   1.00
H357   H     0.43208   0.92996   0.83576   0.00000  Uiso   1.00
H358   H     0.54190   0.31722   0.36785   0.00000  Uiso   1.00
H359   H     0.84272   0.07502   0.73333   0.00000  Uiso   1.00
O360   O     0.37070   0.99929   0.96570   0.00000  Uiso   1.00
O361   O     0.51479   0.50736   0.35182   0.00000  Uiso   1.00
O362   O     0.90946   0.18961   0.83132   0.00000  Uiso   1.00
N363   N     0.43223   0.13326   0.93207   0.00000  Uiso   1.00
N364   N     0.53489   0.49532   0.49460   0.00000  Uiso   1.00
N365   N     0.81615   0.26891   0.83628   0.00000  Uiso   1.00
N366   N     0.44003   0.99909   0.85604   0.00000  Uiso   1.00
N367   N     0.54269   0.36115   0.41857   0.00000  Uiso   1.00
N368   N     0.82395   0.13473   0.76025   0.00000  Uiso   1.00
