data_job_02356
_audit_creation_date              2018-12-19
_audit_creation_method            'Materials Studio'
_symmetry_space_group_name_H-M    'P1'
_symmetry_Int_Tables_number       1
_symmetry_cell_setting            triclinic
loop_
_symmetry_equiv_pos_as_xyz
  x,y,z
_cell_length_a                    17.6200
_cell_length_b                    16.7891
_cell_length_c                    23.5880
_cell_angle_alpha                 90.0000
_cell_angle_beta                  116.4811
_cell_angle_gamma                 90.0000
loop_
_atom_site_label
_atom_site_type_symbol
_atom_site_fract_x
_atom_site_fract_y
_atom_site_fract_z
_atom_site_U_iso_or_equiv
_atom_site_adp_type
_atom_site_occupancy
C1     C     0.66850   0.02661   0.44334   0.00000  Uiso   1.00
C2     C     0.65496   0.94431   0.41302   0.00000  Uiso   1.00
C3     C     0.57709   0.90827   0.37749   0.00000  Uiso   1.00
C4     C     0.57815   0.83276   0.35385   0.00000  Uiso   1.00
C5     C     0.54553   0.71074   0.30505   0.00000  Uiso   1.00
C6     C     0.72587   0.01422   0.51373   0.00000  Uiso   1.00
C7     C     0.70762   0.03697   0.56288   0.00000  Uiso   1.00
C8     C     0.76839   0.02032   0.62403   0.00000  Uiso   1.00
C9     C     0.84588   0.00689   0.73159   0.00000  Uiso   1.00
C10    C     0.72087   0.07331   0.41780   0.00000  Uiso   1.00
C11    C     0.69843   0.14576   0.38630   0.00000  Uiso   1.00
C12    C     0.75500   0.17888   0.36669   0.00000  Uiso   1.00
C13    C     0.82473   0.25720   0.32530   0.00000  Uiso   1.00
C14    C     0.80888   0.95659   0.46454   0.00000  Uiso   1.00
C15    C     0.73121   0.90628   0.42454   0.00000  Uiso   1.00
C16    C     0.73240   0.83080   0.40095   0.00000  Uiso   1.00
C17    C     0.65453   0.79466   0.36539   0.00000  Uiso   1.00
C18    C     0.80212   0.97619   0.52525   0.00000  Uiso   1.00
C19    C     0.86293   0.95951   0.58634   0.00000  Uiso   1.00
C20    C     0.84478   0.98222   0.63557   0.00000  Uiso   1.00
C21    C     0.79712   0.03528   0.42931   0.00000  Uiso   1.00
C22    C     0.85374   0.06829   0.40976   0.00000  Uiso   1.00
C23    C     0.83139   0.14078   0.37823   0.00000  Uiso   1.00
H24    H     0.60914   0.05622   0.43437   0.00000  Uiso   1.00
H25    H     0.51809   0.93772   0.36859   0.00000  Uiso   1.00
H26    H     0.64861   0.06641   0.55395   0.00000  Uiso   1.00
H27    H     0.63942   0.17518   0.37740   0.00000  Uiso   1.00
H28    H     0.45077   0.78956   0.30076   0.00000  Uiso   1.00
H29    H     0.72599   0.06093   0.69160   0.00000  Uiso   1.00
H30    H     0.70661   0.29030   0.31930   0.00000  Uiso   1.00
H31    H     0.86825   0.92698   0.47351   0.00000  Uiso   1.00
H32    H     0.79141   0.80139   0.40987   0.00000  Uiso   1.00
H33    H     0.92193   0.93008   0.59524   0.00000  Uiso   1.00
H34    H     0.91274   0.03885   0.41868   0.00000  Uiso   1.00
H35    H     0.67261   0.67891   0.33426   0.00000  Uiso   1.00
H36    H     0.94783   0.95028   0.72511   0.00000  Uiso   1.00
H37    H     0.92845   0.17964   0.35281   0.00000  Uiso   1.00
O38    O     0.50647   0.65394   0.27496   0.00000  Uiso   1.00
O39    O     0.86756   0.00998   0.78773   0.00000  Uiso   1.00
O40    O     0.84213   0.31090   0.29928   0.00000  Uiso   1.00
N41    N     0.51352   0.78076   0.31736   0.00000  Uiso   1.00
N42    N     0.77083   0.03446   0.68279   0.00000  Uiso   1.00
N43    N     0.75273   0.24891   0.33473   0.00000  Uiso   1.00
N44    N     0.63289   0.72122   0.33539   0.00000  Uiso   1.00
N45    N     0.89020   0.97492   0.70081   0.00000  Uiso   1.00
N46    N     0.87210   0.18937   0.35276   0.00000  Uiso   1.00
C47    C     0.16930   0.53114   0.44271   0.00000  Uiso   1.00
C48    C     0.15291   0.44793   0.41376   0.00000  Uiso   1.00
C49    C     0.07381   0.41397   0.37846   0.00000  Uiso   1.00
C50    C     0.07226   0.33717   0.35615   0.00000  Uiso   1.00
C51    C     0.03542   0.21424   0.30930   0.00000  Uiso   1.00
C52    C     0.22569   0.51979   0.51339   0.00000  Uiso   1.00
C53    C     0.20779   0.54626   0.56186   0.00000  Uiso   1.00
C54    C     0.26751   0.52996   0.62342   0.00000  Uiso   1.00
C55    C     0.34369   0.51864   0.73125   0.00000  Uiso   1.00
C56    C     0.22379   0.57360   0.41685   0.00000  Uiso   1.00
C57    C     0.20431   0.64532   0.38417   0.00000  Uiso   1.00
C58    C     0.26245   0.67434   0.36446   0.00000  Uiso   1.00
C59    C     0.33568   0.74657   0.32240   0.00000  Uiso   1.00
C60    C     0.30719   0.45514   0.46584   0.00000  Uiso   1.00
C61    C     0.22781   0.40665   0.42632   0.00000  Uiso   1.00
C62    C     0.22638   0.32989   0.40405   0.00000  Uiso   1.00
C63    C     0.14729   0.29581   0.36873   0.00000  Uiso   1.00
C64    C     0.30058   0.47852   0.52595   0.00000  Uiso   1.00
C65    C     0.36035   0.46218   0.58744   0.00000  Uiso   1.00
C66    C     0.34254   0.48861   0.63600   0.00000  Uiso   1.00
C67    C     0.29869   0.53232   0.42941   0.00000  Uiso   1.00
C68    C     0.35687   0.56124   0.40975   0.00000  Uiso   1.00
C69    C     0.33748   0.63299   0.37704   0.00000  Uiso   1.00
H70    H     0.11099   0.56327   0.43294   0.00000  Uiso   1.00
H71    H     0.01586   0.44593   0.36876   0.00000  Uiso   1.00
H72    H     0.14982   0.57821   0.55213   0.00000  Uiso   1.00
H73    H     0.14635   0.67725   0.37446   0.00000  Uiso   1.00
H74    H     0.94344   0.29762   0.30316   0.00000  Uiso   1.00
H75    H     0.22591   0.57655   0.68981   0.00000  Uiso   1.00
H76    H     0.21858   0.78541   0.31516   0.00000  Uiso   1.00
H77    H     0.36550   0.42300   0.47562   0.00000  Uiso   1.00
H78    H     0.28435   0.29796   0.41377   0.00000  Uiso   1.00
H79    H     0.41830   0.43024   0.59715   0.00000  Uiso   1.00
H80    H     0.41483   0.52928   0.41947   0.00000  Uiso   1.00
H81    H     0.16134   0.17752   0.33970   0.00000  Uiso   1.00
H82    H     0.44382   0.45646   0.72635   0.00000  Uiso   1.00
H83    H     0.43648   0.66531   0.35169   0.00000  Uiso   1.00
O84    O     0.99441   0.15783   0.28000   0.00000  Uiso   1.00
O85    O     0.36501   0.52380   0.78726   0.00000  Uiso   1.00
O86    O     0.35539   0.79781   0.29572   0.00000  Uiso   1.00
N87    N     0.00586   0.28652   0.32024   0.00000  Uiso   1.00
N88    N     0.26994   0.54730   0.68173   0.00000  Uiso   1.00
N89    N     0.26310   0.74257   0.33147   0.00000  Uiso   1.00
N90    N     0.12311   0.22189   0.33990   0.00000  Uiso   1.00
N91    N     0.38720   0.48267   0.70139   0.00000  Uiso   1.00
N92    N     0.38036   0.67795   0.35113   0.00000  Uiso   1.00
C93    C     0.33150   0.52661   0.05666   0.00000  Uiso   1.00
C94    C     0.34504   0.44431   0.08698   0.00000  Uiso   1.00
C95    C     0.42291   0.40827   0.12251   0.00000  Uiso   1.00
C96    C     0.42185   0.33276   0.14615   0.00000  Uiso   1.00
C97    C     0.45447   0.21074   0.19495   0.00000  Uiso   1.00
C98    C     0.27413   0.51422   0.98627   0.00000  Uiso   1.00
C99    C     0.29238   0.53697   0.93712   0.00000  Uiso   1.00
C100   C     0.23161   0.52032   0.87597   0.00000  Uiso   1.00
C101   C     0.15412   0.50689   0.76841   0.00000  Uiso   1.00
C102   C     0.27913   0.57331   0.08220   0.00000  Uiso   1.00
C103   C     0.30157   0.64576   0.11370   0.00000  Uiso   1.00
C104   C     0.24500   0.67888   0.13331   0.00000  Uiso   1.00
C105   C     0.17527   0.75720   0.17470   0.00000  Uiso   1.00
C106   C     0.19112   0.45659   0.03546   0.00000  Uiso   1.00
C107   C     0.26879   0.40628   0.07546   0.00000  Uiso   1.00
C108   C     0.26760   0.33080   0.09905   0.00000  Uiso   1.00
C109   C     0.34547   0.29466   0.13461   0.00000  Uiso   1.00
C110   C     0.19788   0.47619   0.97475   0.00000  Uiso   1.00
C111   C     0.13707   0.45951   0.91366   0.00000  Uiso   1.00
C112   C     0.15522   0.48222   0.86443   0.00000  Uiso   1.00
C113   C     0.20288   0.53528   0.07069   0.00000  Uiso   1.00
C114   C     0.14626   0.56829   0.09024   0.00000  Uiso   1.00
C115   C     0.16861   0.64078   0.12177   0.00000  Uiso   1.00
H116   H     0.39086   0.55622   0.06563   0.00000  Uiso   1.00
H117   H     0.48191   0.43772   0.13141   0.00000  Uiso   1.00
H118   H     0.35139   0.56641   0.94605   0.00000  Uiso   1.00
H119   H     0.36058   0.67518   0.12260   0.00000  Uiso   1.00
H120   H     0.54923   0.28956   0.19924   0.00000  Uiso   1.00
H121   H     0.27401   0.56093   0.80840   0.00000  Uiso   1.00
H122   H     0.29339   0.79030   0.18070   0.00000  Uiso   1.00
H123   H     0.13175   0.42698   0.02649   0.00000  Uiso   1.00
H124   H     0.20859   0.30139   0.09013   0.00000  Uiso   1.00
H125   H     0.07807   0.43008   0.90476   0.00000  Uiso   1.00
H126   H     0.08726   0.53885   0.08132   0.00000  Uiso   1.00
H127   H     0.32739   0.17891   0.16574   0.00000  Uiso   1.00
H128   H     0.05217   0.45028   0.77489   0.00000  Uiso   1.00
H129   H     0.07155   0.67964   0.14719   0.00000  Uiso   1.00
O130   O     0.49353   0.15394   0.22504   0.00000  Uiso   1.00
O131   O     0.13244   0.50998   0.71227   0.00000  Uiso   1.00
O132   O     0.15787   0.81090   0.20072   0.00000  Uiso   1.00
N133   N     0.48648   0.28076   0.18264   0.00000  Uiso   1.00
N134   N     0.22917   0.53446   0.81721   0.00000  Uiso   1.00
N135   N     0.24727   0.74891   0.16527   0.00000  Uiso   1.00
N136   N     0.36711   0.22122   0.16461   0.00000  Uiso   1.00
N137   N     0.10980   0.47492   0.79919   0.00000  Uiso   1.00
N138   N     0.12790   0.68937   0.14724   0.00000  Uiso   1.00
C139   C     0.83070   0.03114   0.05729   0.00000  Uiso   1.00
C140   C     0.84709   0.94793   0.08624   0.00000  Uiso   1.00
C141   C     0.92619   0.91397   0.12154   0.00000  Uiso   1.00
C142   C     0.92774   0.83717   0.14385   0.00000  Uiso   1.00
C143   C     0.96458   0.71424   0.19070   0.00000  Uiso   1.00
C144   C     0.77431   0.01979   0.98661   0.00000  Uiso   1.00
C145   C     0.79221   0.04626   0.93814   0.00000  Uiso   1.00
C146   C     0.73249   0.02996   0.87658   0.00000  Uiso   1.00
C147   C     0.65631   0.01864   0.76875   0.00000  Uiso   1.00
C148   C     0.77621   0.07360   0.08315   0.00000  Uiso   1.00
C149   C     0.79569   0.14532   0.11583   0.00000  Uiso   1.00
C150   C     0.73755   0.17434   0.13554   0.00000  Uiso   1.00
C151   C     0.66432   0.24657   0.17760   0.00000  Uiso   1.00
C152   C     0.69281   0.95514   0.03416   0.00000  Uiso   1.00
C153   C     0.77219   0.90665   0.07368   0.00000  Uiso   1.00
C154   C     0.77362   0.82989   0.09595   0.00000  Uiso   1.00
C155   C     0.85271   0.79581   0.13127   0.00000  Uiso   1.00
C156   C     0.69942   0.97852   0.97405   0.00000  Uiso   1.00
C157   C     0.63965   0.96218   0.91256   0.00000  Uiso   1.00
C158   C     0.65746   0.98861   0.86400   0.00000  Uiso   1.00
C159   C     0.70131   0.03232   0.07059   0.00000  Uiso   1.00
C160   C     0.64313   0.06124   0.09025   0.00000  Uiso   1.00
C161   C     0.66252   0.13299   0.12296   0.00000  Uiso   1.00
H162   H     0.88901   0.06327   0.06706   0.00000  Uiso   1.00
H163   H     0.98414   0.94593   0.13124   0.00000  Uiso   1.00
H164   H     0.85018   0.07821   0.94787   0.00000  Uiso   1.00
H165   H     0.85365   0.17725   0.12554   0.00000  Uiso   1.00
H166   H     0.05656   0.79762   0.19684   0.00000  Uiso   1.00
H167   H     0.77409   0.07655   0.81019   0.00000  Uiso   1.00
H168   H     0.78142   0.28541   0.18484   0.00000  Uiso   1.00
H169   H     0.63450   0.92300   0.02438   0.00000  Uiso   1.00
H170   H     0.71565   0.79796   0.08623   0.00000  Uiso   1.00
H171   H     0.58170   0.93024   0.90285   0.00000  Uiso   1.00
H172   H     0.58517   0.02928   0.08053   0.00000  Uiso   1.00
H173   H     0.83866   0.67752   0.16030   0.00000  Uiso   1.00
H174   H     0.55618   0.95646   0.77365   0.00000  Uiso   1.00
H175   H     0.56352   0.16531   0.14831   0.00000  Uiso   1.00
O176   O     0.00559   0.65783   0.22000   0.00000  Uiso   1.00
O177   O     0.63499   0.02380   0.71274   0.00000  Uiso   1.00
O178   O     0.64461   0.29781   0.20428   0.00000  Uiso   1.00
N179   N     0.99414   0.78652   0.17976   0.00000  Uiso   1.00
N180   N     0.73006   0.04730   0.81827   0.00000  Uiso   1.00
N181   N     0.73690   0.24257   0.16853   0.00000  Uiso   1.00
N182   N     0.87689   0.72189   0.16010   0.00000  Uiso   1.00
N183   N     0.61280   0.98267   0.79861   0.00000  Uiso   1.00
N184   N     0.61964   0.17795   0.14887   0.00000  Uiso   1.00
C185   C     0.33150   0.97339   0.55666   0.00000  Uiso   1.00
C186   C     0.34504   0.05569   0.58698   0.00000  Uiso   1.00
C187   C     0.42291   0.09173   0.62251   0.00000  Uiso   1.00
C188   C     0.42185   0.16724   0.64615   0.00000  Uiso   1.00
C189   C     0.45447   0.28926   0.69495   0.00000  Uiso   1.00
C190   C     0.27413   0.98578   0.48627   0.00000  Uiso   1.00
C191   C     0.29238   0.96303   0.43712   0.00000  Uiso   1.00
C192   C     0.23161   0.97968   0.37597   0.00000  Uiso   1.00
C193   C     0.15412   0.99311   0.26841   0.00000  Uiso   1.00
C194   C     0.27913   0.92669   0.58220   0.00000  Uiso   1.00
C195   C     0.30157   0.85424   0.61370   0.00000  Uiso   1.00
C196   C     0.24500   0.82112   0.63331   0.00000  Uiso   1.00
C197   C     0.17527   0.74280   0.67470   0.00000  Uiso   1.00
C198   C     0.19112   0.04341   0.53546   0.00000  Uiso   1.00
C199   C     0.26879   0.09372   0.57546   0.00000  Uiso   1.00
C200   C     0.26760   0.16920   0.59905   0.00000  Uiso   1.00
C201   C     0.34547   0.20534   0.63461   0.00000  Uiso   1.00
C202   C     0.19788   0.02381   0.47475   0.00000  Uiso   1.00
C203   C     0.13707   0.04049   0.41366   0.00000  Uiso   1.00
C204   C     0.15522   0.01778   0.36443   0.00000  Uiso   1.00
C205   C     0.20288   0.96472   0.57069   0.00000  Uiso   1.00
C206   C     0.14626   0.93171   0.59024   0.00000  Uiso   1.00
C207   C     0.16861   0.85922   0.62177   0.00000  Uiso   1.00
H208   H     0.39086   0.94378   0.56563   0.00000  Uiso   1.00
H209   H     0.48191   0.06228   0.63141   0.00000  Uiso   1.00
H210   H     0.35139   0.93359   0.44605   0.00000  Uiso   1.00
H211   H     0.36058   0.82482   0.62260   0.00000  Uiso   1.00
H212   H     0.54923   0.21044   0.69924   0.00000  Uiso   1.00
H213   H     0.27401   0.93907   0.30840   0.00000  Uiso   1.00
H214   H     0.29339   0.70970   0.68070   0.00000  Uiso   1.00
H215   H     0.13175   0.07302   0.52649   0.00000  Uiso   1.00
H216   H     0.20859   0.19861   0.59013   0.00000  Uiso   1.00
H217   H     0.07807   0.06992   0.40476   0.00000  Uiso   1.00
H218   H     0.08726   0.96115   0.58132   0.00000  Uiso   1.00
H219   H     0.32739   0.32109   0.66574   0.00000  Uiso   1.00
H220   H     0.05217   0.04972   0.27489   0.00000  Uiso   1.00
H221   H     0.07155   0.82036   0.64719   0.00000  Uiso   1.00
O222   O     0.49353   0.34606   0.72504   0.00000  Uiso   1.00
O223   O     0.13244   0.99002   0.21227   0.00000  Uiso   1.00
O224   O     0.15787   0.68910   0.70072   0.00000  Uiso   1.00
N225   N     0.48648   0.21924   0.68264   0.00000  Uiso   1.00
N226   N     0.22917   0.96554   0.31721   0.00000  Uiso   1.00
N227   N     0.24727   0.75109   0.66527   0.00000  Uiso   1.00
N228   N     0.36711   0.27878   0.66461   0.00000  Uiso   1.00
N229   N     0.10980   0.02508   0.29919   0.00000  Uiso   1.00
N230   N     0.12790   0.81063   0.64724   0.00000  Uiso   1.00
C231   C     0.83070   0.46886   0.55729   0.00000  Uiso   1.00
C232   C     0.84709   0.55207   0.58624   0.00000  Uiso   1.00
C233   C     0.92619   0.58603   0.62154   0.00000  Uiso   1.00
C234   C     0.92774   0.66283   0.64385   0.00000  Uiso   1.00
C235   C     0.96458   0.78576   0.69070   0.00000  Uiso   1.00
C236   C     0.77431   0.48021   0.48661   0.00000  Uiso   1.00
C237   C     0.79221   0.45374   0.43814   0.00000  Uiso   1.00
C238   C     0.73249   0.47004   0.37658   0.00000  Uiso   1.00
C239   C     0.65631   0.48136   0.26875   0.00000  Uiso   1.00
C240   C     0.77621   0.42640   0.58315   0.00000  Uiso   1.00
C241   C     0.79569   0.35468   0.61583   0.00000  Uiso   1.00
C242   C     0.73755   0.32566   0.63554   0.00000  Uiso   1.00
C243   C     0.66432   0.25343   0.67760   0.00000  Uiso   1.00
C244   C     0.69281   0.54486   0.53416   0.00000  Uiso   1.00
C245   C     0.77219   0.59335   0.57368   0.00000  Uiso   1.00
C246   C     0.77362   0.67011   0.59595   0.00000  Uiso   1.00
C247   C     0.85271   0.70419   0.63127   0.00000  Uiso   1.00
C248   C     0.69942   0.52148   0.47405   0.00000  Uiso   1.00
C249   C     0.63965   0.53782   0.41256   0.00000  Uiso   1.00
C250   C     0.65746   0.51139   0.36400   0.00000  Uiso   1.00
C251   C     0.70131   0.46768   0.57059   0.00000  Uiso   1.00
C252   C     0.64313   0.43876   0.59025   0.00000  Uiso   1.00
C253   C     0.66252   0.36701   0.62296   0.00000  Uiso   1.00
H254   H     0.88901   0.43673   0.56706   0.00000  Uiso   1.00
H255   H     0.98414   0.55407   0.63124   0.00000  Uiso   1.00
H256   H     0.85018   0.42179   0.44787   0.00000  Uiso   1.00
H257   H     0.85365   0.32275   0.62554   0.00000  Uiso   1.00
H258   H     0.05656   0.70238   0.69684   0.00000  Uiso   1.00
H259   H     0.77409   0.42345   0.31019   0.00000  Uiso   1.00
H260   H     0.78142   0.21459   0.68484   0.00000  Uiso   1.00
H261   H     0.63450   0.57700   0.52438   0.00000  Uiso   1.00
H262   H     0.71565   0.70204   0.58623   0.00000  Uiso   1.00
H263   H     0.58170   0.56976   0.40285   0.00000  Uiso   1.00
H264   H     0.58517   0.47072   0.58053   0.00000  Uiso   1.00
H265   H     0.83866   0.82248   0.66030   0.00000  Uiso   1.00
H266   H     0.55618   0.54354   0.27365   0.00000  Uiso   1.00
H267   H     0.56352   0.33469   0.64831   0.00000  Uiso   1.00
O268   O     0.00559   0.84217   0.72000   0.00000  Uiso   1.00
O269   O     0.63499   0.47620   0.21274   0.00000  Uiso   1.00
O270   O     0.64461   0.20219   0.70428   0.00000  Uiso   1.00
N271   N     0.99414   0.71348   0.67976   0.00000  Uiso   1.00
N272   N     0.73006   0.45270   0.31827   0.00000  Uiso   1.00
N273   N     0.73690   0.25743   0.66853   0.00000  Uiso   1.00
N274   N     0.87689   0.77811   0.66010   0.00000  Uiso   1.00
N275   N     0.61280   0.51733   0.29861   0.00000  Uiso   1.00
N276   N     0.61964   0.32205   0.64887   0.00000  Uiso   1.00
C277   C     0.66850   0.47339   0.94334   0.00000  Uiso   1.00
C278   C     0.65496   0.55569   0.91302   0.00000  Uiso   1.00
C279   C     0.57709   0.59173   0.87749   0.00000  Uiso   1.00
C280   C     0.57815   0.66724   0.85385   0.00000  Uiso   1.00
C281   C     0.54553   0.78926   0.80505   0.00000  Uiso   1.00
C282   C     0.72587   0.48578   0.01373   0.00000  Uiso   1.00
C283   C     0.70762   0.46303   0.06288   0.00000  Uiso   1.00
C284   C     0.76839   0.47968   0.12403   0.00000  Uiso   1.00
C285   C     0.84588   0.49311   0.23159   0.00000  Uiso   1.00
C286   C     0.72087   0.42669   0.91780   0.00000  Uiso   1.00
C287   C     0.69843   0.35424   0.88630   0.00000  Uiso   1.00
C288   C     0.75500   0.32112   0.86669   0.00000  Uiso   1.00
C289   C     0.82473   0.24280   0.82530   0.00000  Uiso   1.00
C290   C     0.80888   0.54341   0.96454   0.00000  Uiso   1.00
C291   C     0.73121   0.59372   0.92454   0.00000  Uiso   1.00
C292   C     0.73240   0.66920   0.90095   0.00000  Uiso   1.00
C293   C     0.65453   0.70534   0.86539   0.00000  Uiso   1.00
C294   C     0.80212   0.52381   0.02525   0.00000  Uiso   1.00
C295   C     0.86293   0.54049   0.08634   0.00000  Uiso   1.00
C296   C     0.84478   0.51778   0.13557   0.00000  Uiso   1.00
C297   C     0.79712   0.46472   0.92931   0.00000  Uiso   1.00
C298   C     0.85374   0.43171   0.90976   0.00000  Uiso   1.00
C299   C     0.83139   0.35922   0.87823   0.00000  Uiso   1.00
H300   H     0.60914   0.44378   0.93437   0.00000  Uiso   1.00
H301   H     0.51809   0.56228   0.86859   0.00000  Uiso   1.00
H302   H     0.64861   0.43359   0.05395   0.00000  Uiso   1.00
H303   H     0.63942   0.32482   0.87740   0.00000  Uiso   1.00
H304   H     0.45077   0.71044   0.80076   0.00000  Uiso   1.00
H305   H     0.72599   0.43907   0.19160   0.00000  Uiso   1.00
H306   H     0.70661   0.20970   0.81930   0.00000  Uiso   1.00
H307   H     0.86825   0.57302   0.97351   0.00000  Uiso   1.00
H308   H     0.79141   0.69861   0.90987   0.00000  Uiso   1.00
H309   H     0.92193   0.56992   0.09524   0.00000  Uiso   1.00
H310   H     0.91274   0.46115   0.91868   0.00000  Uiso   1.00
H311   H     0.67261   0.82109   0.83426   0.00000  Uiso   1.00
H312   H     0.94783   0.54972   0.22511   0.00000  Uiso   1.00
H313   H     0.92845   0.32036   0.85281   0.00000  Uiso   1.00
O314   O     0.50647   0.84606   0.77496   0.00000  Uiso   1.00
O315   O     0.86756   0.49002   0.28773   0.00000  Uiso   1.00
O316   O     0.84213   0.18910   0.79928   0.00000  Uiso   1.00
N317   N     0.51352   0.71924   0.81736   0.00000  Uiso   1.00
N318   N     0.77083   0.46554   0.18279   0.00000  Uiso   1.00
N319   N     0.75273   0.25109   0.83473   0.00000  Uiso   1.00
N320   N     0.63289   0.77878   0.83539   0.00000  Uiso   1.00
N321   N     0.89020   0.52508   0.20081   0.00000  Uiso   1.00
N322   N     0.87210   0.31063   0.85276   0.00000  Uiso   1.00
C323   C     0.16930   0.96886   0.94271   0.00000  Uiso   1.00
C324   C     0.15291   0.05207   0.91376   0.00000  Uiso   1.00
C325   C     0.07381   0.08603   0.87846   0.00000  Uiso   1.00
C326   C     0.07226   0.16283   0.85615   0.00000  Uiso   1.00
C327   C     0.03542   0.28576   0.80930   0.00000  Uiso   1.00
C328   C     0.22569   0.98021   0.01339   0.00000  Uiso   1.00
C329   C     0.20779   0.95374   0.06186   0.00000  Uiso   1.00
C330   C     0.26751   0.97004   0.12342   0.00000  Uiso   1.00
C331   C     0.34369   0.98136   0.23125   0.00000  Uiso   1.00
C332   C     0.22379   0.92640   0.91685   0.00000  Uiso   1.00
C333   C     0.20431   0.85468   0.88417   0.00000  Uiso   1.00
C334   C     0.26245   0.82566   0.86446   0.00000  Uiso   1.00
C335   C     0.33568   0.75343   0.82240   0.00000  Uiso   1.00
C336   C     0.30719   0.04486   0.96584   0.00000  Uiso   1.00
C337   C     0.22781   0.09335   0.92632   0.00000  Uiso   1.00
C338   C     0.22638   0.17011   0.90405   0.00000  Uiso   1.00
C339   C     0.14729   0.20419   0.86873   0.00000  Uiso   1.00
C340   C     0.30058   0.02148   0.02595   0.00000  Uiso   1.00
C341   C     0.36035   0.03782   0.08744   0.00000  Uiso   1.00
C342   C     0.34254   0.01139   0.13600   0.00000  Uiso   1.00
C343   C     0.29869   0.96768   0.92941   0.00000  Uiso   1.00
C344   C     0.35687   0.93876   0.90975   0.00000  Uiso   1.00
C345   C     0.33748   0.86701   0.87704   0.00000  Uiso   1.00
H346   H     0.11099   0.93673   0.93294   0.00000  Uiso   1.00
H347   H     0.01586   0.05407   0.86876   0.00000  Uiso   1.00
H348   H     0.14982   0.92179   0.05213   0.00000  Uiso   1.00
H349   H     0.14635   0.82275   0.87446   0.00000  Uiso   1.00
H350   H     0.94344   0.20238   0.80316   0.00000  Uiso   1.00
H351   H     0.22591   0.92345   0.18981   0.00000  Uiso   1.00
H352   H     0.21858   0.71459   0.81516   0.00000  Uiso   1.00
H353   H     0.36550   0.07700   0.97562   0.00000  Uiso   1.00
H354   H     0.28435   0.20204   0.91377   0.00000  Uiso   1.00
H355   H     0.41830   0.06976   0.09715   0.00000  Uiso   1.00
H356   H     0.41483   0.97072   0.91947   0.00000  Uiso   1.00
H357   H     0.16134   0.32248   0.83970   0.00000  Uiso   1.00
H358   H     0.44382   0.04354   0.22635   0.00000  Uiso   1.00
H359   H     0.43648   0.83469   0.85169   0.00000  Uiso   1.00
O360   O     0.99441   0.34217   0.78000   0.00000  Uiso   1.00
O361   O     0.36501   0.97620   0.28726   0.00000  Uiso   1.00
O362   O     0.35539   0.70219   0.79572   0.00000  Uiso   1.00
N363   N     0.00586   0.21348   0.82024   0.00000  Uiso   1.00
N364   N     0.26994   0.95270   0.18173   0.00000  Uiso   1.00
N365   N     0.26310   0.75743   0.83147   0.00000  Uiso   1.00
N366   N     0.12311   0.27811   0.83990   0.00000  Uiso   1.00
N367   N     0.38720   0.01733   0.20139   0.00000  Uiso   1.00
N368   N     0.38036   0.82205   0.85113   0.00000  Uiso   1.00
