data_job_03159
_audit_creation_date              2018-12-19
_audit_creation_method            'Materials Studio'
_symmetry_space_group_name_H-M    'P1'
_symmetry_Int_Tables_number       1
_symmetry_cell_setting            triclinic
loop_
_symmetry_equiv_pos_as_xyz
  x,y,z
_cell_length_a                    23.2302
_cell_length_b                    23.2302
_cell_length_c                    19.0835
_cell_angle_alpha                 90.0000
_cell_angle_beta                  90.0000
_cell_angle_gamma                 90.0000
loop_
_atom_site_label
_atom_site_type_symbol
_atom_site_fract_x
_atom_site_fract_y
_atom_site_fract_z
_atom_site_U_iso_or_equiv
_atom_site_adp_type
_atom_site_occupancy
C1     C     0.86126   0.61448   0.31571   0.00000  Uiso   1.00
C2     C     0.85484   0.56221   0.36342   0.00000  Uiso   1.00
C3     C     0.84593   0.50596   0.34147   0.00000  Uiso   1.00
C4     C     0.84117   0.46427   0.39327   0.00000  Uiso   1.00
C5     C     0.83055   0.38097   0.45653   0.00000  Uiso   1.00
C6     C     0.81515   0.65716   0.33883   0.00000  Uiso   1.00
C7     C     0.77288   0.68075   0.29620   0.00000  Uiso   1.00
C8     C     0.73472   0.71899   0.32730   0.00000  Uiso   1.00
C9     C     0.66251   0.78314   0.35237   0.00000  Uiso   1.00
C10    C     0.91884   0.64187   0.33468   0.00000  Uiso   1.00
C11    C     0.96376   0.65261   0.28855   0.00000  Uiso   1.00
C12    C     0.01290   0.67799   0.31616   0.00000  Uiso   1.00
C13    C     0.10169   0.71839   0.33479   0.00000  Uiso   1.00
C14    C     0.86863   0.64046   0.44676   0.00000  Uiso   1.00
C15    C     0.85884   0.57633   0.43460   0.00000  Uiso   1.00
C16    C     0.85409   0.53471   0.48645   0.00000  Uiso   1.00
C17    C     0.84518   0.47841   0.46458   0.00000  Uiso   1.00
C18    C     0.81915   0.67128   0.41001   0.00000  Uiso   1.00
C19    C     0.78104   0.70950   0.44118   0.00000  Uiso   1.00
C20    C     0.73872   0.73313   0.39861   0.00000  Uiso   1.00
C21    C     0.92285   0.65598   0.40586   0.00000  Uiso   1.00
C22    C     0.97192   0.68136   0.43354   0.00000  Uiso   1.00
C23    C     0.01690   0.69213   0.38747   0.00000  Uiso   1.00
H24    H     0.85814   0.60349   0.26030   0.00000  Uiso   1.00
H25    H     0.84283   0.49505   0.28638   0.00000  Uiso   1.00
H26    H     0.76980   0.66982   0.24112   0.00000  Uiso   1.00
H27    H     0.96065   0.64168   0.23348   0.00000  Uiso   1.00
H28    H     0.82760   0.38106   0.34669   0.00000  Uiso   1.00
H29    H     0.67362   0.74958   0.25124   0.00000  Uiso   1.00
H30    H     0.07607   0.69024   0.23513   0.00000  Uiso   1.00
H31    H     0.87175   0.65145   0.50217   0.00000  Uiso   1.00
H32    H     0.85719   0.54565   0.54153   0.00000  Uiso   1.00
H33    H     0.78415   0.72041   0.49626   0.00000  Uiso   1.00
H34    H     0.97500   0.69227   0.48863   0.00000  Uiso   1.00
H35    H     0.83925   0.42212   0.55378   0.00000  Uiso   1.00
H36    H     0.68527   0.79065   0.45833   0.00000  Uiso   1.00
H37    H     0.08771   0.73131   0.44222   0.00000  Uiso   1.00
O38    O     0.82359   0.33112   0.47176   0.00000  Uiso   1.00
O39    O     0.62157   0.81462   0.34653   0.00000  Uiso   1.00
O40    O     0.14957   0.73677   0.32540   0.00000  Uiso   1.00
N41    N     0.83236   0.40524   0.39002   0.00000  Uiso   1.00
N42    N     0.68838   0.74978   0.30079   0.00000  Uiso   1.00
N43    N     0.06463   0.69432   0.28573   0.00000  Uiso   1.00
N44    N     0.83862   0.42734   0.50146   0.00000  Uiso   1.00
N45    N     0.69465   0.77187   0.41222   0.00000  Uiso   1.00
N46    N     0.07090   0.71642   0.39716   0.00000  Uiso   1.00
C47    C     0.13874   0.38552   0.31571   0.00000  Uiso   1.00
C48    C     0.14516   0.43779   0.36342   0.00000  Uiso   1.00
C49    C     0.15407   0.49404   0.34147   0.00000  Uiso   1.00
C50    C     0.15883   0.53573   0.39327   0.00000  Uiso   1.00
C51    C     0.16945   0.61903   0.45653   0.00000  Uiso   1.00
C52    C     0.18485   0.34284   0.33883   0.00000  Uiso   1.00
C53    C     0.22712   0.31925   0.29620   0.00000  Uiso   1.00
C54    C     0.26528   0.28101   0.32730   0.00000  Uiso   1.00
C55    C     0.33749   0.21686   0.35237   0.00000  Uiso   1.00
C56    C     0.08116   0.35813   0.33468   0.00000  Uiso   1.00
C57    C     0.03624   0.34739   0.28855   0.00000  Uiso   1.00
C58    C     0.98710   0.32201   0.31616   0.00000  Uiso   1.00
C59    C     0.89831   0.28161   0.33479   0.00000  Uiso   1.00
C60    C     0.13137   0.35954   0.44676   0.00000  Uiso   1.00
C61    C     0.14116   0.42367   0.43460   0.00000  Uiso   1.00
C62    C     0.14591   0.46529   0.48645   0.00000  Uiso   1.00
C63    C     0.15482   0.52159   0.46458   0.00000  Uiso   1.00
C64    C     0.18085   0.32872   0.41001   0.00000  Uiso   1.00
C65    C     0.21896   0.29050   0.44118   0.00000  Uiso   1.00
C66    C     0.26128   0.26687   0.39861   0.00000  Uiso   1.00
C67    C     0.07715   0.34402   0.40586   0.00000  Uiso   1.00
C68    C     0.02808   0.31864   0.43354   0.00000  Uiso   1.00
C69    C     0.98310   0.30787   0.38747   0.00000  Uiso   1.00
H70    H     0.14186   0.39651   0.26030   0.00000  Uiso   1.00
H71    H     0.15717   0.50495   0.28638   0.00000  Uiso   1.00
H72    H     0.23020   0.33018   0.24112   0.00000  Uiso   1.00
H73    H     0.03935   0.35832   0.23348   0.00000  Uiso   1.00
H74    H     0.17240   0.61894   0.34669   0.00000  Uiso   1.00
H75    H     0.32638   0.25042   0.25124   0.00000  Uiso   1.00
H76    H     0.92393   0.30976   0.23513   0.00000  Uiso   1.00
H77    H     0.12825   0.34855   0.50217   0.00000  Uiso   1.00
H78    H     0.14281   0.45435   0.54153   0.00000  Uiso   1.00
H79    H     0.21585   0.27959   0.49626   0.00000  Uiso   1.00
H80    H     0.02500   0.30773   0.48863   0.00000  Uiso   1.00
H81    H     0.16075   0.57788   0.55378   0.00000  Uiso   1.00
H82    H     0.31473   0.20935   0.45833   0.00000  Uiso   1.00
H83    H     0.91229   0.26869   0.44222   0.00000  Uiso   1.00
O84    O     0.17641   0.66888   0.47176   0.00000  Uiso   1.00
O85    O     0.37843   0.18538   0.34653   0.00000  Uiso   1.00
O86    O     0.85043   0.26323   0.32540   0.00000  Uiso   1.00
N87    N     0.16764   0.59476   0.39002   0.00000  Uiso   1.00
N88    N     0.31162   0.25022   0.30079   0.00000  Uiso   1.00
N89    N     0.93537   0.30568   0.28573   0.00000  Uiso   1.00
N90    N     0.16138   0.57266   0.50146   0.00000  Uiso   1.00
N91    N     0.30535   0.22813   0.41222   0.00000  Uiso   1.00
N92    N     0.92910   0.28358   0.39716   0.00000  Uiso   1.00
C93    C     0.61448   0.13874   0.68429   0.00000  Uiso   1.00
C94    C     0.56221   0.14516   0.63658   0.00000  Uiso   1.00
C95    C     0.50596   0.15407   0.65853   0.00000  Uiso   1.00
C96    C     0.46427   0.15883   0.60673   0.00000  Uiso   1.00
C97    C     0.38097   0.16945   0.54347   0.00000  Uiso   1.00
C98    C     0.65716   0.18485   0.66117   0.00000  Uiso   1.00
C99    C     0.68075   0.22712   0.70380   0.00000  Uiso   1.00
C100   C     0.71899   0.26528   0.67270   0.00000  Uiso   1.00
C101   C     0.78314   0.33749   0.64763   0.00000  Uiso   1.00
C102   C     0.64187   0.08116   0.66532   0.00000  Uiso   1.00
C103   C     0.65261   0.03624   0.71145   0.00000  Uiso   1.00
C104   C     0.67799   0.98710   0.68384   0.00000  Uiso   1.00
C105   C     0.71839   0.89831   0.66521   0.00000  Uiso   1.00
C106   C     0.64046   0.13137   0.55324   0.00000  Uiso   1.00
C107   C     0.57633   0.14116   0.56540   0.00000  Uiso   1.00
C108   C     0.53471   0.14591   0.51355   0.00000  Uiso   1.00
C109   C     0.47841   0.15482   0.53542   0.00000  Uiso   1.00
C110   C     0.67128   0.18085   0.58999   0.00000  Uiso   1.00
C111   C     0.70950   0.21896   0.55882   0.00000  Uiso   1.00
C112   C     0.73313   0.26128   0.60139   0.00000  Uiso   1.00
C113   C     0.65598   0.07715   0.59414   0.00000  Uiso   1.00
C114   C     0.68136   0.02808   0.56646   0.00000  Uiso   1.00
C115   C     0.69213   0.98310   0.61253   0.00000  Uiso   1.00
H116   H     0.60349   0.14186   0.73970   0.00000  Uiso   1.00
H117   H     0.49505   0.15717   0.71362   0.00000  Uiso   1.00
H118   H     0.66982   0.23020   0.75888   0.00000  Uiso   1.00
H119   H     0.64168   0.03935   0.76652   0.00000  Uiso   1.00
H120   H     0.38106   0.17240   0.65331   0.00000  Uiso   1.00
H121   H     0.74958   0.32638   0.74876   0.00000  Uiso   1.00
H122   H     0.69024   0.92393   0.76487   0.00000  Uiso   1.00
H123   H     0.65145   0.12825   0.49783   0.00000  Uiso   1.00
H124   H     0.54565   0.14281   0.45847   0.00000  Uiso   1.00
H125   H     0.72041   0.21585   0.50374   0.00000  Uiso   1.00
H126   H     0.69227   0.02500   0.51137   0.00000  Uiso   1.00
H127   H     0.42212   0.16075   0.44622   0.00000  Uiso   1.00
H128   H     0.79065   0.31473   0.54167   0.00000  Uiso   1.00
H129   H     0.73131   0.91229   0.55778   0.00000  Uiso   1.00
O130   O     0.33112   0.17641   0.52824   0.00000  Uiso   1.00
O131   O     0.81462   0.37843   0.65347   0.00000  Uiso   1.00
O132   O     0.73677   0.85043   0.67460   0.00000  Uiso   1.00
N133   N     0.40524   0.16764   0.60998   0.00000  Uiso   1.00
N134   N     0.74978   0.31162   0.69921   0.00000  Uiso   1.00
N135   N     0.69432   0.93537   0.71427   0.00000  Uiso   1.00
N136   N     0.42734   0.16138   0.49854   0.00000  Uiso   1.00
N137   N     0.77187   0.30535   0.58778   0.00000  Uiso   1.00
N138   N     0.71642   0.92910   0.60284   0.00000  Uiso   1.00
C139   C     0.38552   0.86126   0.68429   0.00000  Uiso   1.00
C140   C     0.43779   0.85484   0.63658   0.00000  Uiso   1.00
C141   C     0.49404   0.84593   0.65853   0.00000  Uiso   1.00
C142   C     0.53573   0.84117   0.60673   0.00000  Uiso   1.00
C143   C     0.61903   0.83055   0.54347   0.00000  Uiso   1.00
C144   C     0.34284   0.81515   0.66117   0.00000  Uiso   1.00
C145   C     0.31925   0.77288   0.70380   0.00000  Uiso   1.00
C146   C     0.28101   0.73472   0.67270   0.00000  Uiso   1.00
C147   C     0.21686   0.66251   0.64763   0.00000  Uiso   1.00
C148   C     0.35813   0.91884   0.66532   0.00000  Uiso   1.00
C149   C     0.34739   0.96376   0.71145   0.00000  Uiso   1.00
C150   C     0.32201   0.01290   0.68384   0.00000  Uiso   1.00
C151   C     0.28161   0.10169   0.66521   0.00000  Uiso   1.00
C152   C     0.35954   0.86863   0.55324   0.00000  Uiso   1.00
C153   C     0.42367   0.85884   0.56540   0.00000  Uiso   1.00
C154   C     0.46529   0.85409   0.51355   0.00000  Uiso   1.00
C155   C     0.52159   0.84518   0.53542   0.00000  Uiso   1.00
C156   C     0.32872   0.81915   0.58999   0.00000  Uiso   1.00
C157   C     0.29050   0.78104   0.55882   0.00000  Uiso   1.00
C158   C     0.26687   0.73872   0.60139   0.00000  Uiso   1.00
C159   C     0.34402   0.92285   0.59414   0.00000  Uiso   1.00
C160   C     0.31864   0.97192   0.56646   0.00000  Uiso   1.00
C161   C     0.30787   0.01690   0.61253   0.00000  Uiso   1.00
H162   H     0.39651   0.85814   0.73970   0.00000  Uiso   1.00
H163   H     0.50495   0.84283   0.71362   0.00000  Uiso   1.00
H164   H     0.33018   0.76980   0.75888   0.00000  Uiso   1.00
H165   H     0.35832   0.96065   0.76652   0.00000  Uiso   1.00
H166   H     0.61894   0.82760   0.65331   0.00000  Uiso   1.00
H167   H     0.25042   0.67362   0.74876   0.00000  Uiso   1.00
H168   H     0.30976   0.07607   0.76487   0.00000  Uiso   1.00
H169   H     0.34855   0.87175   0.49783   0.00000  Uiso   1.00
H170   H     0.45435   0.85719   0.45847   0.00000  Uiso   1.00
H171   H     0.27959   0.78415   0.50374   0.00000  Uiso   1.00
H172   H     0.30773   0.97500   0.51137   0.00000  Uiso   1.00
H173   H     0.57788   0.83925   0.44622   0.00000  Uiso   1.00
H174   H     0.20935   0.68527   0.54167   0.00000  Uiso   1.00
H175   H     0.26869   0.08771   0.55778   0.00000  Uiso   1.00
O176   O     0.66888   0.82359   0.52824   0.00000  Uiso   1.00
O177   O     0.18538   0.62157   0.65347   0.00000  Uiso   1.00
O178   O     0.26323   0.14957   0.67460   0.00000  Uiso   1.00
N179   N     0.59476   0.83236   0.60998   0.00000  Uiso   1.00
N180   N     0.25022   0.68838   0.69921   0.00000  Uiso   1.00
N181   N     0.30568   0.06463   0.71427   0.00000  Uiso   1.00
N182   N     0.57266   0.83862   0.49854   0.00000  Uiso   1.00
N183   N     0.22813   0.69465   0.58778   0.00000  Uiso   1.00
N184   N     0.28358   0.07090   0.60284   0.00000  Uiso   1.00
C185   C     0.63874   0.11448   0.18429   0.00000  Uiso   1.00
C186   C     0.64516   0.06221   0.13658   0.00000  Uiso   1.00
C187   C     0.65407   0.00596   0.15853   0.00000  Uiso   1.00
C188   C     0.65883   0.96427   0.10673   0.00000  Uiso   1.00
C189   C     0.66945   0.88097   0.04347   0.00000  Uiso   1.00
C190   C     0.68485   0.15716   0.16117   0.00000  Uiso   1.00
C191   C     0.72712   0.18075   0.20380   0.00000  Uiso   1.00
C192   C     0.76528   0.21899   0.17270   0.00000  Uiso   1.00
C193   C     0.83749   0.28314   0.14763   0.00000  Uiso   1.00
C194   C     0.58116   0.14187   0.16532   0.00000  Uiso   1.00
C195   C     0.53624   0.15261   0.21145   0.00000  Uiso   1.00
C196   C     0.48710   0.17799   0.18384   0.00000  Uiso   1.00
C197   C     0.39831   0.21839   0.16521   0.00000  Uiso   1.00
C198   C     0.63137   0.14046   0.05324   0.00000  Uiso   1.00
C199   C     0.64116   0.07633   0.06540   0.00000  Uiso   1.00
C200   C     0.64591   0.03471   0.01355   0.00000  Uiso   1.00
C201   C     0.65482   0.97841   0.03542   0.00000  Uiso   1.00
C202   C     0.68085   0.17128   0.08999   0.00000  Uiso   1.00
C203   C     0.71896   0.20950   0.05882   0.00000  Uiso   1.00
C204   C     0.76128   0.23313   0.10139   0.00000  Uiso   1.00
C205   C     0.57715   0.15598   0.09414   0.00000  Uiso   1.00
C206   C     0.52808   0.18136   0.06646   0.00000  Uiso   1.00
C207   C     0.48310   0.19213   0.11253   0.00000  Uiso   1.00
H208   H     0.64186   0.10349   0.23970   0.00000  Uiso   1.00
H209   H     0.65717   0.99505   0.21362   0.00000  Uiso   1.00
H210   H     0.73020   0.16982   0.25888   0.00000  Uiso   1.00
H211   H     0.53935   0.14168   0.26652   0.00000  Uiso   1.00
H212   H     0.67240   0.88106   0.15331   0.00000  Uiso   1.00
H213   H     0.82638   0.24958   0.24876   0.00000  Uiso   1.00
H214   H     0.42393   0.19024   0.26487   0.00000  Uiso   1.00
H215   H     0.62825   0.15145   0.99783   0.00000  Uiso   1.00
H216   H     0.64281   0.04565   0.95847   0.00000  Uiso   1.00
H217   H     0.71585   0.22041   0.00374   0.00000  Uiso   1.00
H218   H     0.52500   0.19227   0.01137   0.00000  Uiso   1.00
H219   H     0.66075   0.92212   0.94622   0.00000  Uiso   1.00
H220   H     0.81473   0.29065   0.04167   0.00000  Uiso   1.00
H221   H     0.41229   0.23131   0.05778   0.00000  Uiso   1.00
O222   O     0.67641   0.83112   0.02824   0.00000  Uiso   1.00
O223   O     0.87843   0.31462   0.15347   0.00000  Uiso   1.00
O224   O     0.35043   0.23677   0.17460   0.00000  Uiso   1.00
N225   N     0.66764   0.90524   0.10998   0.00000  Uiso   1.00
N226   N     0.81162   0.24978   0.19921   0.00000  Uiso   1.00
N227   N     0.43537   0.19432   0.21427   0.00000  Uiso   1.00
N228   N     0.66138   0.92734   0.99854   0.00000  Uiso   1.00
N229   N     0.80535   0.27187   0.08778   0.00000  Uiso   1.00
N230   N     0.42910   0.21642   0.10284   0.00000  Uiso   1.00
C231   C     0.36126   0.88552   0.18429   0.00000  Uiso   1.00
C232   C     0.35484   0.93779   0.13658   0.00000  Uiso   1.00
C233   C     0.34593   0.99404   0.15853   0.00000  Uiso   1.00
C234   C     0.34117   0.03573   0.10673   0.00000  Uiso   1.00
C235   C     0.33055   0.11903   0.04347   0.00000  Uiso   1.00
C236   C     0.31515   0.84284   0.16117   0.00000  Uiso   1.00
C237   C     0.27288   0.81925   0.20380   0.00000  Uiso   1.00
C238   C     0.23472   0.78101   0.17270   0.00000  Uiso   1.00
C239   C     0.16251   0.71686   0.14763   0.00000  Uiso   1.00
C240   C     0.41884   0.85813   0.16532   0.00000  Uiso   1.00
C241   C     0.46376   0.84739   0.21145   0.00000  Uiso   1.00
C242   C     0.51290   0.82201   0.18384   0.00000  Uiso   1.00
C243   C     0.60169   0.78161   0.16521   0.00000  Uiso   1.00
C244   C     0.36863   0.85954   0.05324   0.00000  Uiso   1.00
C245   C     0.35884   0.92367   0.06540   0.00000  Uiso   1.00
C246   C     0.35409   0.96529   0.01355   0.00000  Uiso   1.00
C247   C     0.34518   0.02159   0.03542   0.00000  Uiso   1.00
C248   C     0.31915   0.82872   0.08999   0.00000  Uiso   1.00
C249   C     0.28104   0.79050   0.05882   0.00000  Uiso   1.00
C250   C     0.23872   0.76687   0.10139   0.00000  Uiso   1.00
C251   C     0.42285   0.84402   0.09414   0.00000  Uiso   1.00
C252   C     0.47192   0.81864   0.06646   0.00000  Uiso   1.00
C253   C     0.51690   0.80787   0.11253   0.00000  Uiso   1.00
H254   H     0.35814   0.89651   0.23970   0.00000  Uiso   1.00
H255   H     0.34283   0.00495   0.21362   0.00000  Uiso   1.00
H256   H     0.26980   0.83018   0.25888   0.00000  Uiso   1.00
H257   H     0.46065   0.85832   0.26652   0.00000  Uiso   1.00
H258   H     0.32760   0.11894   0.15331   0.00000  Uiso   1.00
H259   H     0.17362   0.75042   0.24876   0.00000  Uiso   1.00
H260   H     0.57607   0.80976   0.26487   0.00000  Uiso   1.00
H261   H     0.37175   0.84855   0.99783   0.00000  Uiso   1.00
H262   H     0.35719   0.95435   0.95847   0.00000  Uiso   1.00
H263   H     0.28415   0.77959   0.00374   0.00000  Uiso   1.00
H264   H     0.47500   0.80773   0.01137   0.00000  Uiso   1.00
H265   H     0.33925   0.07788   0.94622   0.00000  Uiso   1.00
H266   H     0.18527   0.70935   0.04167   0.00000  Uiso   1.00
H267   H     0.58771   0.76869   0.05778   0.00000  Uiso   1.00
O268   O     0.32359   0.16888   0.02824   0.00000  Uiso   1.00
O269   O     0.12157   0.68538   0.15347   0.00000  Uiso   1.00
O270   O     0.64957   0.76323   0.17460   0.00000  Uiso   1.00
N271   N     0.33236   0.09476   0.10998   0.00000  Uiso   1.00
N272   N     0.18838   0.75022   0.19921   0.00000  Uiso   1.00
N273   N     0.56463   0.80568   0.21427   0.00000  Uiso   1.00
N274   N     0.33862   0.07266   0.99854   0.00000  Uiso   1.00
N275   N     0.19465   0.72813   0.08778   0.00000  Uiso   1.00
N276   N     0.57090   0.78358   0.10284   0.00000  Uiso   1.00
C277   C     0.88552   0.63874   0.81571   0.00000  Uiso   1.00
C278   C     0.93779   0.64516   0.86342   0.00000  Uiso   1.00
C279   C     0.99404   0.65407   0.84147   0.00000  Uiso   1.00
C280   C     0.03573   0.65883   0.89327   0.00000  Uiso   1.00
C281   C     0.11903   0.66945   0.95653   0.00000  Uiso   1.00
C282   C     0.84284   0.68485   0.83883   0.00000  Uiso   1.00
C283   C     0.81925   0.72712   0.79620   0.00000  Uiso   1.00
C284   C     0.78101   0.76528   0.82730   0.00000  Uiso   1.00
C285   C     0.71686   0.83749   0.85237   0.00000  Uiso   1.00
C286   C     0.85813   0.58116   0.83468   0.00000  Uiso   1.00
C287   C     0.84739   0.53624   0.78855   0.00000  Uiso   1.00
C288   C     0.82201   0.48710   0.81616   0.00000  Uiso   1.00
C289   C     0.78161   0.39831   0.83479   0.00000  Uiso   1.00
C290   C     0.85954   0.63137   0.94676   0.00000  Uiso   1.00
C291   C     0.92367   0.64116   0.93460   0.00000  Uiso   1.00
C292   C     0.96529   0.64591   0.98645   0.00000  Uiso   1.00
C293   C     0.02159   0.65482   0.96458   0.00000  Uiso   1.00
C294   C     0.82872   0.68085   0.91001   0.00000  Uiso   1.00
C295   C     0.79050   0.71896   0.94118   0.00000  Uiso   1.00
C296   C     0.76687   0.76128   0.89861   0.00000  Uiso   1.00
C297   C     0.84402   0.57715   0.90586   0.00000  Uiso   1.00
C298   C     0.81864   0.52808   0.93354   0.00000  Uiso   1.00
C299   C     0.80787   0.48310   0.88747   0.00000  Uiso   1.00
H300   H     0.89651   0.64186   0.76030   0.00000  Uiso   1.00
H301   H     0.00495   0.65717   0.78638   0.00000  Uiso   1.00
H302   H     0.83018   0.73020   0.74112   0.00000  Uiso   1.00
H303   H     0.85832   0.53935   0.73348   0.00000  Uiso   1.00
H304   H     0.11894   0.67240   0.84669   0.00000  Uiso   1.00
H305   H     0.75042   0.82638   0.75124   0.00000  Uiso   1.00
H306   H     0.80976   0.42393   0.73513   0.00000  Uiso   1.00
H307   H     0.84855   0.62825   0.00217   0.00000  Uiso   1.00
H308   H     0.95435   0.64281   0.04153   0.00000  Uiso   1.00
H309   H     0.77959   0.71585   0.99626   0.00000  Uiso   1.00
H310   H     0.80773   0.52500   0.98863   0.00000  Uiso   1.00
H311   H     0.07788   0.66075   0.05378   0.00000  Uiso   1.00
H312   H     0.70935   0.81473   0.95833   0.00000  Uiso   1.00
H313   H     0.76869   0.41229   0.94222   0.00000  Uiso   1.00
O314   O     0.16888   0.67641   0.97176   0.00000  Uiso   1.00
O315   O     0.68538   0.87843   0.84653   0.00000  Uiso   1.00
O316   O     0.76323   0.35043   0.82540   0.00000  Uiso   1.00
N317   N     0.09476   0.66764   0.89002   0.00000  Uiso   1.00
N318   N     0.75022   0.81162   0.80079   0.00000  Uiso   1.00
N319   N     0.80568   0.43537   0.78573   0.00000  Uiso   1.00
N320   N     0.07266   0.66138   0.00146   0.00000  Uiso   1.00
N321   N     0.72813   0.80535   0.91222   0.00000  Uiso   1.00
N322   N     0.78358   0.42910   0.89716   0.00000  Uiso   1.00
C323   C     0.11448   0.36126   0.81571   0.00000  Uiso   1.00
C324   C     0.06221   0.35484   0.86342   0.00000  Uiso   1.00
C325   C     0.00596   0.34593   0.84147   0.00000  Uiso   1.00
C326   C     0.96427   0.34117   0.89327   0.00000  Uiso   1.00
C327   C     0.88097   0.33055   0.95653   0.00000  Uiso   1.00
C328   C     0.15716   0.31515   0.83883   0.00000  Uiso   1.00
C329   C     0.18075   0.27288   0.79620   0.00000  Uiso   1.00
C330   C     0.21899   0.23472   0.82730   0.00000  Uiso   1.00
C331   C     0.28314   0.16251   0.85237   0.00000  Uiso   1.00
C332   C     0.14187   0.41884   0.83468   0.00000  Uiso   1.00
C333   C     0.15261   0.46376   0.78855   0.00000  Uiso   1.00
C334   C     0.17799   0.51290   0.81616   0.00000  Uiso   1.00
C335   C     0.21839   0.60169   0.83479   0.00000  Uiso   1.00
C336   C     0.14046   0.36863   0.94676   0.00000  Uiso   1.00
C337   C     0.07633   0.35884   0.93460   0.00000  Uiso   1.00
C338   C     0.03471   0.35409   0.98645   0.00000  Uiso   1.00
C339   C     0.97841   0.34518   0.96458   0.00000  Uiso   1.00
C340   C     0.17128   0.31915   0.91001   0.00000  Uiso   1.00
C341   C     0.20950   0.28104   0.94118   0.00000  Uiso   1.00
C342   C     0.23313   0.23872   0.89861   0.00000  Uiso   1.00
C343   C     0.15598   0.42285   0.90586   0.00000  Uiso   1.00
C344   C     0.18136   0.47192   0.93354   0.00000  Uiso   1.00
C345   C     0.19213   0.51690   0.88747   0.00000  Uiso   1.00
H346   H     0.10349   0.35814   0.76030   0.00000  Uiso   1.00
H347   H     0.99505   0.34283   0.78638   0.00000  Uiso   1.00
H348   H     0.16982   0.26980   0.74112   0.00000  Uiso   1.00
H349   H     0.14168   0.46065   0.73348   0.00000  Uiso   1.00
H350   H     0.88106   0.32760   0.84669   0.00000  Uiso   1.00
H351   H     0.24958   0.17362   0.75124   0.00000  Uiso   1.00
H352   H     0.19024   0.57607   0.73513   0.00000  Uiso   1.00
H353   H     0.15145   0.37175   0.00217   0.00000  Uiso   1.00
H354   H     0.04565   0.35719   0.04153   0.00000  Uiso   1.00
H355   H     0.22041   0.28415   0.99626   0.00000  Uiso   1.00
H356   H     0.19227   0.47500   0.98863   0.00000  Uiso   1.00
H357   H     0.92212   0.33925   0.05378   0.00000  Uiso   1.00
H358   H     0.29065   0.18527   0.95833   0.00000  Uiso   1.00
H359   H     0.23131   0.58771   0.94222   0.00000  Uiso   1.00
O360   O     0.83112   0.32359   0.97176   0.00000  Uiso   1.00
O361   O     0.31462   0.12157   0.84653   0.00000  Uiso   1.00
O362   O     0.23677   0.64957   0.82540   0.00000  Uiso   1.00
N363   N     0.90524   0.33236   0.89002   0.00000  Uiso   1.00
N364   N     0.24978   0.18838   0.80079   0.00000  Uiso   1.00
N365   N     0.19432   0.56463   0.78573   0.00000  Uiso   1.00
N366   N     0.92734   0.33862   0.00146   0.00000  Uiso   1.00
N367   N     0.27187   0.19465   0.91222   0.00000  Uiso   1.00
N368   N     0.21642   0.57090   0.89716   0.00000  Uiso   1.00
