data_job_02649
_audit_creation_date              2018-12-19
_audit_creation_method            'Materials Studio'
_symmetry_space_group_name_H-M    'P1'
_symmetry_Int_Tables_number       1
_symmetry_cell_setting            triclinic
loop_
_symmetry_equiv_pos_as_xyz
  x,y,z
_cell_length_a                    9.1468
_cell_length_b                    13.2646
_cell_length_c                    21.0797
_cell_angle_alpha                 103.2772
_cell_angle_beta                  100.3668
_cell_angle_gamma                 80.0437
loop_
_atom_site_label
_atom_site_type_symbol
_atom_site_fract_x
_atom_site_fract_y
_atom_site_fract_z
_atom_site_U_iso_or_equiv
_atom_site_adp_type
_atom_site_occupancy
C1     C     0.82200   0.26020   0.33210   0.00000  Uiso   1.00
C2     C     0.81925   0.17164   0.36676   0.00000  Uiso   1.00
C3     C     0.70102   0.15873   0.39585   0.00000  Uiso   1.00
C4     C     0.72045   0.07265   0.42506   0.00000  Uiso   1.00
C5     C     0.69599   0.94590   0.47889   0.00000  Uiso   1.00
C6     C     0.95949   0.31199   0.36681   0.00000  Uiso   1.00
C7     C     0.95916   0.41708   0.39593   0.00000  Uiso   1.00
C8     C     0.09665   0.44914   0.42516   0.00000  Uiso   1.00
C9     C     0.28992   0.54029   0.47903   0.00000  Uiso   1.00
C10    C     0.85499   0.20795   0.26283   0.00000  Uiso   1.00
C11    C     0.76683   0.22559   0.20452   0.00000  Uiso   1.00
C12    C     0.81636   0.17007   0.14620   0.00000  Uiso   1.00
C13    C     0.84739   0.09970   0.03863   0.00000  Uiso   1.00
C14    C     0.06676   0.13028   0.33223   0.00000  Uiso   1.00
C15    C     0.95220   0.10108   0.36684   0.00000  Uiso   1.00
C16    C     0.97181   0.01499   0.39600   0.00000  Uiso   1.00
C17    C     0.85362   0.00195   0.42512   0.00000  Uiso   1.00
C18    C     0.09243   0.24143   0.36688   0.00000  Uiso   1.00
C19    C     0.22995   0.27334   0.39607   0.00000  Uiso   1.00
C20    C     0.22983   0.37845   0.42523   0.00000  Uiso   1.00
C21    C     0.98794   0.13738   0.26290   0.00000  Uiso   1.00
C22    C     0.03762   0.08184   0.20466   0.00000  Uiso   1.00
C23    C     0.94954   0.09938   0.14627   0.00000  Uiso   1.00
H24    H     0.71851   0.31515   0.33205   0.00000  Uiso   1.00
H25    H     0.59816   0.21336   0.39579   0.00000  Uiso   1.00
H26    H     0.85627   0.47167   0.39586   0.00000  Uiso   1.00
H27    H     0.66396   0.28020   0.20448   0.00000  Uiso   1.00
H28    H     0.52338   0.06942   0.46652   0.00000  Uiso   1.00
H29    H     0.06762   0.61408   0.46665   0.00000  Uiso   1.00
H30    H     0.66210   0.21033   0.06308   0.00000  Uiso   1.00
H31    H     0.17027   0.07535   0.33229   0.00000  Uiso   1.00
H32    H     0.07470   0.96039   0.39604   0.00000  Uiso   1.00
H33    H     0.33281   0.21871   0.39612   0.00000  Uiso   1.00
H34    H     0.14050   0.02724   0.20474   0.00000  Uiso   1.00
H35    H     0.91016   0.86410   0.46672   0.00000  Uiso   1.00
H36    H     0.45441   0.40877   0.46685   0.00000  Uiso   1.00
H37    H     0.04889   0.00502   0.06329   0.00000  Uiso   1.00
O38    O     0.64578   0.89549   0.50858   0.00000  Uiso   1.00
O39    O     0.35980   0.61007   0.50873   0.00000  Uiso   1.00
O40    O     0.82777   0.08036   0.97927   0.00000  Uiso   1.00
N41    N     0.62751   0.03686   0.45781   0.00000  Uiso   1.00
N42    N     0.13634   0.54608   0.45793   0.00000  Uiso   1.00
N43    N     0.75724   0.16864   0.08063   0.00000  Uiso   1.00
N44    N     0.83564   0.92638   0.45792   0.00000  Uiso   1.00
N45    N     0.34447   0.43561   0.45804   0.00000  Uiso   1.00
N46    N     0.96536   0.05816   0.08074   0.00000  Uiso   1.00
C47    C     0.17800   0.73980   0.66790   0.00000  Uiso   1.00
C48    C     0.18075   0.82836   0.63324   0.00000  Uiso   1.00
C49    C     0.29898   0.84127   0.60415   0.00000  Uiso   1.00
C50    C     0.27955   0.92735   0.57494   0.00000  Uiso   1.00
C51    C     0.30401   0.05410   0.52111   0.00000  Uiso   1.00
C52    C     0.04051   0.68801   0.63319   0.00000  Uiso   1.00
C53    C     0.04084   0.58292   0.60407   0.00000  Uiso   1.00
C54    C     0.90335   0.55086   0.57484   0.00000  Uiso   1.00
C55    C     0.71008   0.45971   0.52097   0.00000  Uiso   1.00
C56    C     0.14501   0.79205   0.73717   0.00000  Uiso   1.00
C57    C     0.23317   0.77441   0.79548   0.00000  Uiso   1.00
C58    C     0.18364   0.82993   0.85380   0.00000  Uiso   1.00
C59    C     0.15261   0.90030   0.96137   0.00000  Uiso   1.00
C60    C     0.93324   0.86972   0.66777   0.00000  Uiso   1.00
C61    C     0.04780   0.89892   0.63316   0.00000  Uiso   1.00
C62    C     0.02819   0.98501   0.60400   0.00000  Uiso   1.00
C63    C     0.14638   0.99805   0.57488   0.00000  Uiso   1.00
C64    C     0.90757   0.75857   0.63312   0.00000  Uiso   1.00
C65    C     0.77005   0.72666   0.60393   0.00000  Uiso   1.00
C66    C     0.77017   0.62155   0.57477   0.00000  Uiso   1.00
C67    C     0.01206   0.86262   0.73710   0.00000  Uiso   1.00
C68    C     0.96238   0.91816   0.79534   0.00000  Uiso   1.00
C69    C     0.05046   0.90062   0.85373   0.00000  Uiso   1.00
H70    H     0.28149   0.68485   0.66795   0.00000  Uiso   1.00
H71    H     0.40184   0.78664   0.60421   0.00000  Uiso   1.00
H72    H     0.14373   0.52833   0.60414   0.00000  Uiso   1.00
H73    H     0.33604   0.71980   0.79552   0.00000  Uiso   1.00
H74    H     0.47662   0.93058   0.53348   0.00000  Uiso   1.00
H75    H     0.93238   0.38592   0.53335   0.00000  Uiso   1.00
H76    H     0.33790   0.78967   0.93692   0.00000  Uiso   1.00
H77    H     0.82973   0.92465   0.66771   0.00000  Uiso   1.00
H78    H     0.92530   0.03961   0.60396   0.00000  Uiso   1.00
H79    H     0.66719   0.78129   0.60388   0.00000  Uiso   1.00
H80    H     0.85950   0.97276   0.79526   0.00000  Uiso   1.00
H81    H     0.08984   0.13590   0.53328   0.00000  Uiso   1.00
H82    H     0.54559   0.59123   0.53315   0.00000  Uiso   1.00
H83    H     0.95111   0.99498   0.93671   0.00000  Uiso   1.00
O84    O     0.35422   0.10451   0.49142   0.00000  Uiso   1.00
O85    O     0.64020   0.38993   0.49127   0.00000  Uiso   1.00
O86    O     0.17223   0.91964   0.02073   0.00000  Uiso   1.00
N87    N     0.37249   0.96314   0.54219   0.00000  Uiso   1.00
N88    N     0.86366   0.45392   0.54207   0.00000  Uiso   1.00
N89    N     0.24276   0.83136   0.91937   0.00000  Uiso   1.00
N90    N     0.16436   0.07362   0.54208   0.00000  Uiso   1.00
N91    N     0.65553   0.56439   0.54196   0.00000  Uiso   1.00
N92    N     0.03464   0.94184   0.91926   0.00000  Uiso   1.00
