data_job_05371
_audit_creation_date              2018-12-19
_audit_creation_method            'Materials Studio'
_symmetry_space_group_name_H-M    'P1'
_symmetry_Int_Tables_number       1
_symmetry_cell_setting            triclinic
loop_
_symmetry_equiv_pos_as_xyz
  x,y,z
_cell_length_a                    17.5861
_cell_length_b                    17.5861
_cell_length_c                    16.1721
_cell_angle_alpha                 90.0000
_cell_angle_beta                  90.0000
_cell_angle_gamma                 90.0000
loop_
_atom_site_label
_atom_site_type_symbol
_atom_site_fract_x
_atom_site_fract_y
_atom_site_fract_z
_atom_site_U_iso_or_equiv
_atom_site_adp_type
_atom_site_occupancy
C1     C     0.92149   0.65428   0.39277   0.00000  Uiso   1.00
C2     C     0.97222   0.63440   0.46613   0.00000  Uiso   1.00
C3     C     0.04180   0.59739   0.46179   0.00000  Uiso   1.00
C4     C     0.07945   0.58444   0.53592   0.00000  Uiso   1.00
C5     C     0.16290   0.55000   0.63831   0.00000  Uiso   1.00
C6     C     0.84453   0.61782   0.41054   0.00000  Uiso   1.00
C7     C     0.80676   0.56689   0.35945   0.00000  Uiso   1.00
C8     C     0.73691   0.54000   0.38679   0.00000  Uiso   1.00
C9     C     0.62210   0.47986   0.40285   0.00000  Uiso   1.00
C10    C     0.90875   0.73995   0.39716   0.00000  Uiso   1.00
C11    C     0.92494   0.79171   0.33482   0.00000  Uiso   1.00
C12    C     0.90915   0.86764   0.35089   0.00000  Uiso   1.00
C13    C     0.89404   0.99713   0.34618   0.00000  Uiso   1.00
C14    C     0.86462   0.69709   0.53214   0.00000  Uiso   1.00
C15    C     0.94132   0.65765   0.54183   0.00000  Uiso   1.00
C16    C     0.97888   0.64476   0.61599   0.00000  Uiso   1.00
C17    C     0.04851   0.60774   0.61176   0.00000  Uiso   1.00
C18    C     0.81364   0.64107   0.48624   0.00000  Uiso   1.00
C19    C     0.74383   0.61425   0.51365   0.00000  Uiso   1.00
C20    C     0.70596   0.56329   0.46263   0.00000  Uiso   1.00
C21    C     0.87786   0.76321   0.47286   0.00000  Uiso   1.00
C22    C     0.86202   0.83907   0.48903   0.00000  Uiso   1.00
C23    C     0.87820   0.89094   0.42673   0.00000  Uiso   1.00
H24    H     0.94554   0.63618   0.33383   0.00000  Uiso   1.00
H25    H     0.06569   0.57940   0.40319   0.00000  Uiso   1.00
H26    H     0.83067   0.54891   0.30087   0.00000  Uiso   1.00
H27    H     0.94885   0.77370   0.27625   0.00000  Uiso   1.00
H28    H     0.18526   0.52668   0.51347   0.00000  Uiso   1.00
H29    H     0.68971   0.46242   0.29771   0.00000  Uiso   1.00
H30    H     0.93890   0.93642   0.24578   0.00000  Uiso   1.00
H31    H     0.84056   0.71519   0.59108   0.00000  Uiso   1.00
H32    H     0.95496   0.66275   0.67456   0.00000  Uiso   1.00
H33    H     0.71994   0.63226   0.57224   0.00000  Uiso   1.00
H34    H     0.83812   0.85705   0.54762   0.00000  Uiso   1.00
H35    H     0.09538   0.59433   0.73373   0.00000  Uiso   1.00
H36    H     0.59983   0.53007   0.51796   0.00000  Uiso   1.00
H37    H     0.84903   0.00407   0.46604   0.00000  Uiso   1.00
O38    O     0.21745   0.52456   0.67387   0.00000  Uiso   1.00
O39    O     0.56731   0.44026   0.39079   0.00000  Uiso   1.00
O40    O     0.89424   0.06214   0.32267   0.00000  Uiso   1.00
N41    N     0.14841   0.54981   0.55385   0.00000  Uiso   1.00
N42    N     0.68511   0.48972   0.35213   0.00000  Uiso   1.00
N43    N     0.91806   0.93287   0.30358   0.00000  Uiso   1.00
N44    N     0.10005   0.58622   0.67237   0.00000  Uiso   1.00
N45    N     0.63675   0.52612   0.47065   0.00000  Uiso   1.00
N46    N     0.86970   0.96927   0.42210   0.00000  Uiso   1.00
C47    C     0.07851   0.34572   0.39277   0.00000  Uiso   1.00
C48    C     0.02778   0.36560   0.46613   0.00000  Uiso   1.00
C49    C     0.95820   0.40261   0.46179   0.00000  Uiso   1.00
C50    C     0.92055   0.41556   0.53592   0.00000  Uiso   1.00
C51    C     0.83710   0.45000   0.63831   0.00000  Uiso   1.00
C52    C     0.15547   0.38218   0.41054   0.00000  Uiso   1.00
C53    C     0.19324   0.43311   0.35945   0.00000  Uiso   1.00
C54    C     0.26309   0.46000   0.38679   0.00000  Uiso   1.00
C55    C     0.37790   0.52014   0.40285   0.00000  Uiso   1.00
C56    C     0.09125   0.26005   0.39716   0.00000  Uiso   1.00
C57    C     0.07506   0.20829   0.33482   0.00000  Uiso   1.00
C58    C     0.09085   0.13236   0.35089   0.00000  Uiso   1.00
C59    C     0.10596   0.00287   0.34618   0.00000  Uiso   1.00
C60    C     0.13538   0.30291   0.53214   0.00000  Uiso   1.00
C61    C     0.05868   0.34235   0.54183   0.00000  Uiso   1.00
C62    C     0.02112   0.35524   0.61599   0.00000  Uiso   1.00
C63    C     0.95149   0.39226   0.61176   0.00000  Uiso   1.00
C64    C     0.18636   0.35893   0.48624   0.00000  Uiso   1.00
C65    C     0.25617   0.38575   0.51365   0.00000  Uiso   1.00
C66    C     0.29404   0.43671   0.46263   0.00000  Uiso   1.00
C67    C     0.12214   0.23679   0.47286   0.00000  Uiso   1.00
C68    C     0.13798   0.16093   0.48903   0.00000  Uiso   1.00
C69    C     0.12180   0.10906   0.42673   0.00000  Uiso   1.00
H70    H     0.05446   0.36382   0.33383   0.00000  Uiso   1.00
H71    H     0.93431   0.42060   0.40319   0.00000  Uiso   1.00
H72    H     0.16933   0.45109   0.30087   0.00000  Uiso   1.00
H73    H     0.05115   0.22630   0.27625   0.00000  Uiso   1.00
H74    H     0.81474   0.47332   0.51347   0.00000  Uiso   1.00
H75    H     0.31029   0.53758   0.29771   0.00000  Uiso   1.00
H76    H     0.06110   0.06358   0.24578   0.00000  Uiso   1.00
H77    H     0.15944   0.28481   0.59108   0.00000  Uiso   1.00
H78    H     0.04504   0.33725   0.67456   0.00000  Uiso   1.00
H79    H     0.28006   0.36774   0.57224   0.00000  Uiso   1.00
H80    H     0.16188   0.14295   0.54762   0.00000  Uiso   1.00
H81    H     0.90462   0.40567   0.73373   0.00000  Uiso   1.00
H82    H     0.40017   0.46993   0.51796   0.00000  Uiso   1.00
H83    H     0.15097   0.99593   0.46604   0.00000  Uiso   1.00
O84    O     0.78255   0.47544   0.67387   0.00000  Uiso   1.00
O85    O     0.43269   0.55974   0.39079   0.00000  Uiso   1.00
O86    O     0.10576   0.93786   0.32267   0.00000  Uiso   1.00
N87    N     0.85159   0.45019   0.55385   0.00000  Uiso   1.00
N88    N     0.31489   0.51028   0.35213   0.00000  Uiso   1.00
N89    N     0.08194   0.06713   0.30358   0.00000  Uiso   1.00
N90    N     0.89995   0.41378   0.67237   0.00000  Uiso   1.00
N91    N     0.36325   0.47388   0.47065   0.00000  Uiso   1.00
N92    N     0.13030   0.03073   0.42210   0.00000  Uiso   1.00
C93    C     0.65428   0.07851   0.60723   0.00000  Uiso   1.00
C94    C     0.63440   0.02778   0.53387   0.00000  Uiso   1.00
C95    C     0.59739   0.95820   0.53821   0.00000  Uiso   1.00
C96    C     0.58444   0.92055   0.46408   0.00000  Uiso   1.00
C97    C     0.55000   0.83710   0.36169   0.00000  Uiso   1.00
C98    C     0.61782   0.15547   0.58946   0.00000  Uiso   1.00
C99    C     0.56689   0.19324   0.64055   0.00000  Uiso   1.00
C100   C     0.54000   0.26309   0.61321   0.00000  Uiso   1.00
C101   C     0.47986   0.37790   0.59715   0.00000  Uiso   1.00
C102   C     0.73995   0.09125   0.60284   0.00000  Uiso   1.00
C103   C     0.79171   0.07506   0.66518   0.00000  Uiso   1.00
C104   C     0.86764   0.09085   0.64911   0.00000  Uiso   1.00
C105   C     0.99713   0.10596   0.65382   0.00000  Uiso   1.00
C106   C     0.69709   0.13538   0.46786   0.00000  Uiso   1.00
C107   C     0.65765   0.05868   0.45817   0.00000  Uiso   1.00
C108   C     0.64476   0.02112   0.38401   0.00000  Uiso   1.00
C109   C     0.60774   0.95149   0.38824   0.00000  Uiso   1.00
C110   C     0.64107   0.18636   0.51376   0.00000  Uiso   1.00
C111   C     0.61425   0.25617   0.48635   0.00000  Uiso   1.00
C112   C     0.56329   0.29404   0.53737   0.00000  Uiso   1.00
C113   C     0.76321   0.12214   0.52714   0.00000  Uiso   1.00
C114   C     0.83907   0.13798   0.51097   0.00000  Uiso   1.00
C115   C     0.89094   0.12180   0.57327   0.00000  Uiso   1.00
H116   H     0.63618   0.05446   0.66617   0.00000  Uiso   1.00
H117   H     0.57940   0.93431   0.59681   0.00000  Uiso   1.00
H118   H     0.54891   0.16933   0.69913   0.00000  Uiso   1.00
H119   H     0.77370   0.05115   0.72375   0.00000  Uiso   1.00
H120   H     0.52668   0.81474   0.48653   0.00000  Uiso   1.00
H121   H     0.46242   0.31029   0.70229   0.00000  Uiso   1.00
H122   H     0.93642   0.06110   0.75422   0.00000  Uiso   1.00
H123   H     0.71519   0.15944   0.40892   0.00000  Uiso   1.00
H124   H     0.66275   0.04504   0.32544   0.00000  Uiso   1.00
H125   H     0.63226   0.28006   0.42776   0.00000  Uiso   1.00
H126   H     0.85705   0.16188   0.45238   0.00000  Uiso   1.00
H127   H     0.59433   0.90462   0.26627   0.00000  Uiso   1.00
H128   H     0.53007   0.40017   0.48204   0.00000  Uiso   1.00
H129   H     0.00407   0.15097   0.53396   0.00000  Uiso   1.00
O130   O     0.52456   0.78255   0.32613   0.00000  Uiso   1.00
O131   O     0.44026   0.43269   0.60921   0.00000  Uiso   1.00
O132   O     0.06214   0.10576   0.67733   0.00000  Uiso   1.00
N133   N     0.54981   0.85159   0.44615   0.00000  Uiso   1.00
N134   N     0.48972   0.31489   0.64787   0.00000  Uiso   1.00
N135   N     0.93287   0.08194   0.69642   0.00000  Uiso   1.00
N136   N     0.58622   0.89995   0.32763   0.00000  Uiso   1.00
N137   N     0.52612   0.36325   0.52935   0.00000  Uiso   1.00
N138   N     0.96927   0.13030   0.57790   0.00000  Uiso   1.00
C139   C     0.34572   0.92149   0.60723   0.00000  Uiso   1.00
C140   C     0.36560   0.97222   0.53387   0.00000  Uiso   1.00
C141   C     0.40261   0.04180   0.53821   0.00000  Uiso   1.00
C142   C     0.41556   0.07945   0.46408   0.00000  Uiso   1.00
C143   C     0.45000   0.16290   0.36169   0.00000  Uiso   1.00
C144   C     0.38218   0.84453   0.58946   0.00000  Uiso   1.00
C145   C     0.43311   0.80676   0.64055   0.00000  Uiso   1.00
C146   C     0.46000   0.73691   0.61321   0.00000  Uiso   1.00
C147   C     0.52014   0.62210   0.59715   0.00000  Uiso   1.00
C148   C     0.26005   0.90875   0.60284   0.00000  Uiso   1.00
C149   C     0.20829   0.92494   0.66518   0.00000  Uiso   1.00
C150   C     0.13236   0.90915   0.64911   0.00000  Uiso   1.00
C151   C     0.00287   0.89404   0.65382   0.00000  Uiso   1.00
C152   C     0.30291   0.86462   0.46786   0.00000  Uiso   1.00
C153   C     0.34235   0.94132   0.45817   0.00000  Uiso   1.00
C154   C     0.35524   0.97888   0.38401   0.00000  Uiso   1.00
C155   C     0.39226   0.04851   0.38824   0.00000  Uiso   1.00
C156   C     0.35893   0.81364   0.51376   0.00000  Uiso   1.00
C157   C     0.38575   0.74383   0.48635   0.00000  Uiso   1.00
C158   C     0.43671   0.70596   0.53737   0.00000  Uiso   1.00
C159   C     0.23679   0.87786   0.52714   0.00000  Uiso   1.00
C160   C     0.16093   0.86202   0.51097   0.00000  Uiso   1.00
C161   C     0.10906   0.87820   0.57327   0.00000  Uiso   1.00
H162   H     0.36382   0.94554   0.66617   0.00000  Uiso   1.00
H163   H     0.42060   0.06569   0.59681   0.00000  Uiso   1.00
H164   H     0.45109   0.83067   0.69913   0.00000  Uiso   1.00
H165   H     0.22630   0.94885   0.72375   0.00000  Uiso   1.00
H166   H     0.47332   0.18526   0.48653   0.00000  Uiso   1.00
H167   H     0.53758   0.68971   0.70229   0.00000  Uiso   1.00
H168   H     0.06358   0.93890   0.75422   0.00000  Uiso   1.00
H169   H     0.28481   0.84056   0.40892   0.00000  Uiso   1.00
H170   H     0.33725   0.95496   0.32544   0.00000  Uiso   1.00
H171   H     0.36774   0.71994   0.42776   0.00000  Uiso   1.00
H172   H     0.14295   0.83812   0.45238   0.00000  Uiso   1.00
H173   H     0.40567   0.09538   0.26627   0.00000  Uiso   1.00
H174   H     0.46993   0.59983   0.48204   0.00000  Uiso   1.00
H175   H     0.99593   0.84903   0.53396   0.00000  Uiso   1.00
O176   O     0.47544   0.21745   0.32613   0.00000  Uiso   1.00
O177   O     0.55974   0.56731   0.60921   0.00000  Uiso   1.00
O178   O     0.93786   0.89424   0.67733   0.00000  Uiso   1.00
N179   N     0.45019   0.14841   0.44615   0.00000  Uiso   1.00
N180   N     0.51028   0.68511   0.64787   0.00000  Uiso   1.00
N181   N     0.06713   0.91806   0.69642   0.00000  Uiso   1.00
N182   N     0.41378   0.10005   0.32763   0.00000  Uiso   1.00
N183   N     0.47388   0.63675   0.52935   0.00000  Uiso   1.00
N184   N     0.03073   0.86970   0.57790   0.00000  Uiso   1.00
C185   C     0.57851   0.15428   0.10723   0.00000  Uiso   1.00
C186   C     0.52778   0.13440   0.03387   0.00000  Uiso   1.00
C187   C     0.45820   0.09739   0.03821   0.00000  Uiso   1.00
C188   C     0.42055   0.08444   0.96408   0.00000  Uiso   1.00
C189   C     0.33710   0.05000   0.86169   0.00000  Uiso   1.00
C190   C     0.65547   0.11782   0.08946   0.00000  Uiso   1.00
C191   C     0.69324   0.06689   0.14055   0.00000  Uiso   1.00
C192   C     0.76309   0.04000   0.11321   0.00000  Uiso   1.00
C193   C     0.87790   0.97986   0.09715   0.00000  Uiso   1.00
C194   C     0.59125   0.23995   0.10284   0.00000  Uiso   1.00
C195   C     0.57506   0.29171   0.16518   0.00000  Uiso   1.00
C196   C     0.59085   0.36764   0.14911   0.00000  Uiso   1.00
C197   C     0.60596   0.49713   0.15382   0.00000  Uiso   1.00
C198   C     0.63538   0.19709   0.96786   0.00000  Uiso   1.00
C199   C     0.55868   0.15765   0.95817   0.00000  Uiso   1.00
C200   C     0.52112   0.14476   0.88401   0.00000  Uiso   1.00
C201   C     0.45149   0.10774   0.88824   0.00000  Uiso   1.00
C202   C     0.68636   0.14107   0.01376   0.00000  Uiso   1.00
C203   C     0.75617   0.11425   0.98635   0.00000  Uiso   1.00
C204   C     0.79404   0.06329   0.03737   0.00000  Uiso   1.00
C205   C     0.62214   0.26321   0.02714   0.00000  Uiso   1.00
C206   C     0.63798   0.33907   0.01097   0.00000  Uiso   1.00
C207   C     0.62180   0.39094   0.07327   0.00000  Uiso   1.00
H208   H     0.55446   0.13618   0.16617   0.00000  Uiso   1.00
H209   H     0.43431   0.07940   0.09681   0.00000  Uiso   1.00
H210   H     0.66933   0.04891   0.19913   0.00000  Uiso   1.00
H211   H     0.55115   0.27370   0.22375   0.00000  Uiso   1.00
H212   H     0.31474   0.02668   0.98653   0.00000  Uiso   1.00
H213   H     0.81029   0.96242   0.20229   0.00000  Uiso   1.00
H214   H     0.56110   0.43642   0.25422   0.00000  Uiso   1.00
H215   H     0.65944   0.21519   0.90892   0.00000  Uiso   1.00
H216   H     0.54504   0.16275   0.82544   0.00000  Uiso   1.00
H217   H     0.78006   0.13226   0.92776   0.00000  Uiso   1.00
H218   H     0.66188   0.35705   0.95238   0.00000  Uiso   1.00
H219   H     0.40462   0.09433   0.76627   0.00000  Uiso   1.00
H220   H     0.90017   0.03007   0.98204   0.00000  Uiso   1.00
H221   H     0.65097   0.50407   0.03396   0.00000  Uiso   1.00
O222   O     0.28255   0.02456   0.82613   0.00000  Uiso   1.00
O223   O     0.93269   0.94026   0.10921   0.00000  Uiso   1.00
O224   O     0.60576   0.56214   0.17733   0.00000  Uiso   1.00
N225   N     0.35159   0.04981   0.94615   0.00000  Uiso   1.00
N226   N     0.81489   0.98972   0.14787   0.00000  Uiso   1.00
N227   N     0.58194   0.43287   0.19642   0.00000  Uiso   1.00
N228   N     0.39995   0.08622   0.82763   0.00000  Uiso   1.00
N229   N     0.86325   0.02612   0.02935   0.00000  Uiso   1.00
N230   N     0.63030   0.46927   0.07790   0.00000  Uiso   1.00
C231   C     0.42149   0.84572   0.10723   0.00000  Uiso   1.00
C232   C     0.47222   0.86560   0.03387   0.00000  Uiso   1.00
C233   C     0.54180   0.90261   0.03821   0.00000  Uiso   1.00
C234   C     0.57945   0.91556   0.96408   0.00000  Uiso   1.00
C235   C     0.66290   0.95000   0.86169   0.00000  Uiso   1.00
C236   C     0.34453   0.88218   0.08946   0.00000  Uiso   1.00
C237   C     0.30676   0.93311   0.14055   0.00000  Uiso   1.00
C238   C     0.23691   0.96000   0.11321   0.00000  Uiso   1.00
C239   C     0.12210   0.02014   0.09715   0.00000  Uiso   1.00
C240   C     0.40875   0.76005   0.10284   0.00000  Uiso   1.00
C241   C     0.42494   0.70829   0.16518   0.00000  Uiso   1.00
C242   C     0.40915   0.63236   0.14911   0.00000  Uiso   1.00
C243   C     0.39404   0.50287   0.15382   0.00000  Uiso   1.00
C244   C     0.36462   0.80291   0.96786   0.00000  Uiso   1.00
C245   C     0.44132   0.84235   0.95817   0.00000  Uiso   1.00
C246   C     0.47888   0.85524   0.88401   0.00000  Uiso   1.00
C247   C     0.54851   0.89226   0.88824   0.00000  Uiso   1.00
C248   C     0.31364   0.85893   0.01376   0.00000  Uiso   1.00
C249   C     0.24383   0.88575   0.98635   0.00000  Uiso   1.00
C250   C     0.20596   0.93671   0.03737   0.00000  Uiso   1.00
C251   C     0.37786   0.73679   0.02714   0.00000  Uiso   1.00
C252   C     0.36202   0.66093   0.01097   0.00000  Uiso   1.00
C253   C     0.37820   0.60906   0.07327   0.00000  Uiso   1.00
H254   H     0.44554   0.86382   0.16617   0.00000  Uiso   1.00
H255   H     0.56569   0.92060   0.09681   0.00000  Uiso   1.00
H256   H     0.33067   0.95109   0.19913   0.00000  Uiso   1.00
H257   H     0.44885   0.72630   0.22375   0.00000  Uiso   1.00
H258   H     0.68526   0.97332   0.98653   0.00000  Uiso   1.00
H259   H     0.18971   0.03758   0.20229   0.00000  Uiso   1.00
H260   H     0.43890   0.56358   0.25422   0.00000  Uiso   1.00
H261   H     0.34056   0.78481   0.90892   0.00000  Uiso   1.00
H262   H     0.45496   0.83725   0.82544   0.00000  Uiso   1.00
H263   H     0.21994   0.86774   0.92776   0.00000  Uiso   1.00
H264   H     0.33812   0.64295   0.95238   0.00000  Uiso   1.00
H265   H     0.59538   0.90567   0.76627   0.00000  Uiso   1.00
H266   H     0.09983   0.96993   0.98204   0.00000  Uiso   1.00
H267   H     0.34903   0.49593   0.03396   0.00000  Uiso   1.00
O268   O     0.71745   0.97544   0.82613   0.00000  Uiso   1.00
O269   O     0.06731   0.05974   0.10921   0.00000  Uiso   1.00
O270   O     0.39424   0.43786   0.17733   0.00000  Uiso   1.00
N271   N     0.64841   0.95019   0.94615   0.00000  Uiso   1.00
N272   N     0.18511   0.01028   0.14787   0.00000  Uiso   1.00
N273   N     0.41806   0.56713   0.19642   0.00000  Uiso   1.00
N274   N     0.60005   0.91378   0.82763   0.00000  Uiso   1.00
N275   N     0.13675   0.97388   0.02935   0.00000  Uiso   1.00
N276   N     0.36970   0.53073   0.07790   0.00000  Uiso   1.00
C277   C     0.84572   0.57851   0.89277   0.00000  Uiso   1.00
C278   C     0.86560   0.52778   0.96613   0.00000  Uiso   1.00
C279   C     0.90261   0.45820   0.96179   0.00000  Uiso   1.00
C280   C     0.91556   0.42055   0.03592   0.00000  Uiso   1.00
C281   C     0.95000   0.33710   0.13831   0.00000  Uiso   1.00
C282   C     0.88218   0.65547   0.91054   0.00000  Uiso   1.00
C283   C     0.93311   0.69324   0.85945   0.00000  Uiso   1.00
C284   C     0.96000   0.76309   0.88679   0.00000  Uiso   1.00
C285   C     0.02014   0.87790   0.90285   0.00000  Uiso   1.00
C286   C     0.76005   0.59125   0.89716   0.00000  Uiso   1.00
C287   C     0.70829   0.57506   0.83482   0.00000  Uiso   1.00
C288   C     0.63236   0.59085   0.85089   0.00000  Uiso   1.00
C289   C     0.50287   0.60596   0.84618   0.00000  Uiso   1.00
C290   C     0.80291   0.63538   0.03214   0.00000  Uiso   1.00
C291   C     0.84235   0.55868   0.04183   0.00000  Uiso   1.00
C292   C     0.85524   0.52112   0.11599   0.00000  Uiso   1.00
C293   C     0.89226   0.45149   0.11176   0.00000  Uiso   1.00
C294   C     0.85893   0.68636   0.98624   0.00000  Uiso   1.00
C295   C     0.88575   0.75617   0.01365   0.00000  Uiso   1.00
C296   C     0.93671   0.79404   0.96263   0.00000  Uiso   1.00
C297   C     0.73679   0.62214   0.97286   0.00000  Uiso   1.00
C298   C     0.66093   0.63798   0.98903   0.00000  Uiso   1.00
C299   C     0.60906   0.62180   0.92673   0.00000  Uiso   1.00
H300   H     0.86382   0.55446   0.83383   0.00000  Uiso   1.00
H301   H     0.92060   0.43431   0.90319   0.00000  Uiso   1.00
H302   H     0.95109   0.66933   0.80087   0.00000  Uiso   1.00
H303   H     0.72630   0.55115   0.77625   0.00000  Uiso   1.00
H304   H     0.97332   0.31474   0.01347   0.00000  Uiso   1.00
H305   H     0.03758   0.81029   0.79771   0.00000  Uiso   1.00
H306   H     0.56358   0.56110   0.74578   0.00000  Uiso   1.00
H307   H     0.78481   0.65944   0.09108   0.00000  Uiso   1.00
H308   H     0.83725   0.54504   0.17456   0.00000  Uiso   1.00
H309   H     0.86774   0.78006   0.07224   0.00000  Uiso   1.00
H310   H     0.64295   0.66188   0.04762   0.00000  Uiso   1.00
H311   H     0.90567   0.40462   0.23373   0.00000  Uiso   1.00
H312   H     0.96993   0.90017   0.01796   0.00000  Uiso   1.00
H313   H     0.49593   0.65097   0.96604   0.00000  Uiso   1.00
O314   O     0.97544   0.28255   0.17387   0.00000  Uiso   1.00
O315   O     0.05974   0.93269   0.89079   0.00000  Uiso   1.00
O316   O     0.43786   0.60576   0.82267   0.00000  Uiso   1.00
N317   N     0.95019   0.35159   0.05385   0.00000  Uiso   1.00
N318   N     0.01028   0.81489   0.85213   0.00000  Uiso   1.00
N319   N     0.56713   0.58194   0.80358   0.00000  Uiso   1.00
N320   N     0.91378   0.39995   0.17237   0.00000  Uiso   1.00
N321   N     0.97388   0.86325   0.97065   0.00000  Uiso   1.00
N322   N     0.53073   0.63030   0.92210   0.00000  Uiso   1.00
C323   C     0.15428   0.42149   0.89277   0.00000  Uiso   1.00
C324   C     0.13440   0.47222   0.96613   0.00000  Uiso   1.00
C325   C     0.09739   0.54180   0.96179   0.00000  Uiso   1.00
C326   C     0.08444   0.57945   0.03592   0.00000  Uiso   1.00
C327   C     0.05000   0.66290   0.13831   0.00000  Uiso   1.00
C328   C     0.11782   0.34453   0.91054   0.00000  Uiso   1.00
C329   C     0.06689   0.30676   0.85945   0.00000  Uiso   1.00
C330   C     0.04000   0.23691   0.88679   0.00000  Uiso   1.00
C331   C     0.97986   0.12210   0.90285   0.00000  Uiso   1.00
C332   C     0.23995   0.40875   0.89716   0.00000  Uiso   1.00
C333   C     0.29171   0.42494   0.83482   0.00000  Uiso   1.00
C334   C     0.36764   0.40915   0.85089   0.00000  Uiso   1.00
C335   C     0.49713   0.39404   0.84618   0.00000  Uiso   1.00
C336   C     0.19709   0.36462   0.03214   0.00000  Uiso   1.00
C337   C     0.15765   0.44132   0.04183   0.00000  Uiso   1.00
C338   C     0.14476   0.47888   0.11599   0.00000  Uiso   1.00
C339   C     0.10774   0.54851   0.11176   0.00000  Uiso   1.00
C340   C     0.14107   0.31364   0.98624   0.00000  Uiso   1.00
C341   C     0.11425   0.24383   0.01365   0.00000  Uiso   1.00
C342   C     0.06329   0.20596   0.96263   0.00000  Uiso   1.00
C343   C     0.26321   0.37786   0.97286   0.00000  Uiso   1.00
C344   C     0.33907   0.36202   0.98903   0.00000  Uiso   1.00
C345   C     0.39094   0.37820   0.92673   0.00000  Uiso   1.00
H346   H     0.13618   0.44554   0.83383   0.00000  Uiso   1.00
H347   H     0.07940   0.56569   0.90319   0.00000  Uiso   1.00
H348   H     0.04891   0.33067   0.80087   0.00000  Uiso   1.00
H349   H     0.27370   0.44885   0.77625   0.00000  Uiso   1.00
H350   H     0.02668   0.68526   0.01347   0.00000  Uiso   1.00
H351   H     0.96242   0.18971   0.79771   0.00000  Uiso   1.00
H352   H     0.43642   0.43890   0.74578   0.00000  Uiso   1.00
H353   H     0.21519   0.34056   0.09108   0.00000  Uiso   1.00
H354   H     0.16275   0.45496   0.17456   0.00000  Uiso   1.00
H355   H     0.13226   0.21994   0.07224   0.00000  Uiso   1.00
H356   H     0.35705   0.33812   0.04762   0.00000  Uiso   1.00
H357   H     0.09433   0.59538   0.23373   0.00000  Uiso   1.00
H358   H     0.03007   0.09983   0.01796   0.00000  Uiso   1.00
H359   H     0.50407   0.34903   0.96604   0.00000  Uiso   1.00
O360   O     0.02456   0.71745   0.17387   0.00000  Uiso   1.00
O361   O     0.94026   0.06731   0.89079   0.00000  Uiso   1.00
O362   O     0.56214   0.39424   0.82267   0.00000  Uiso   1.00
N363   N     0.04981   0.64841   0.05385   0.00000  Uiso   1.00
N364   N     0.98972   0.18511   0.85213   0.00000  Uiso   1.00
N365   N     0.43287   0.41806   0.80358   0.00000  Uiso   1.00
N366   N     0.08622   0.60005   0.17237   0.00000  Uiso   1.00
N367   N     0.02612   0.13675   0.97065   0.00000  Uiso   1.00
N368   N     0.46927   0.36970   0.92210   0.00000  Uiso   1.00
