data_job_01321
_audit_creation_date              2018-12-19
_audit_creation_method            'Materials Studio'
_symmetry_space_group_name_H-M    'P1'
_symmetry_Int_Tables_number       1
_symmetry_cell_setting            triclinic
loop_
_symmetry_equiv_pos_as_xyz
  x,y,z
_cell_length_a                    13.3844
_cell_length_b                    30.1768
_cell_length_c                    13.1369
_cell_angle_alpha                 90.0000
_cell_angle_beta                  92.1399
_cell_angle_gamma                 90.0000
loop_
_atom_site_label
_atom_site_type_symbol
_atom_site_fract_x
_atom_site_fract_y
_atom_site_fract_z
_atom_site_U_iso_or_equiv
_atom_site_adp_type
_atom_site_occupancy
C1     C     0.95925   0.66199   0.50231   0.00000  Uiso   1.00
C2     C     0.87309   0.64052   0.55688   0.00000  Uiso   1.00
C3     C     0.84420   0.65053   0.65460   0.00000  Uiso   1.00
C4     C     0.76350   0.62719   0.69082   0.00000  Uiso   1.00
C5     C     0.63734   0.59873   0.78461   0.00000  Uiso   1.00
C6     C     0.02760   0.62416   0.47202   0.00000  Uiso   1.00
C7     C     0.12863   0.62043   0.49839   0.00000  Uiso   1.00
C8     C     0.17801   0.58332   0.46317   0.00000  Uiso   1.00
C9     C     0.29175   0.52948   0.42515   0.00000  Uiso   1.00
C10    C     0.91407   0.68067   0.40305   0.00000  Uiso   1.00
C11    C     0.91966   0.72445   0.37140   0.00000  Uiso   1.00
C12    C     0.87347   0.73491   0.27809   0.00000  Uiso   1.00
C13    C     0.81094   0.76881   0.13298   0.00000  Uiso   1.00
C14    C     0.86731   0.60272   0.39288   0.00000  Uiso   1.00
C15    C     0.82315   0.60833   0.49744   0.00000  Uiso   1.00
C16    C     0.74247   0.58496   0.53352   0.00000  Uiso   1.00
C17    C     0.71347   0.59494   0.63128   0.00000  Uiso   1.00
C18    C     0.97767   0.59197   0.41258   0.00000  Uiso   1.00
C19    C     0.02691   0.55486   0.37731   0.00000  Uiso   1.00
C20    C     0.12798   0.55107   0.40362   0.00000  Uiso   1.00
C21    C     0.86413   0.64848   0.34360   0.00000  Uiso   1.00
C22    C     0.81793   0.65888   0.25032   0.00000  Uiso   1.00
C23    C     0.82344   0.70266   0.21854   0.00000  Uiso   1.00
H24    H     0.99814   0.68705   0.54859   0.00000  Uiso   1.00
H25    H     0.88287   0.67544   0.70058   0.00000  Uiso   1.00
H26    H     0.16726   0.64535   0.54438   0.00000  Uiso   1.00
H27    H     0.95832   0.74935   0.41741   0.00000  Uiso   1.00
H28    H     0.73308   0.64837   0.84289   0.00000  Uiso   1.00
H29    H     0.33273   0.58492   0.51350   0.00000  Uiso   1.00
H30    H     0.89214   0.80422   0.24577   0.00000  Uiso   1.00
H31    H     0.82843   0.57766   0.34660   0.00000  Uiso   1.00
H32    H     0.70384   0.56005   0.48750   0.00000  Uiso   1.00
H33    H     0.98824   0.52996   0.33131   0.00000  Uiso   1.00
H34    H     0.77929   0.63396   0.20435   0.00000  Uiso   1.00
H35    H     0.58777   0.55471   0.66995   0.00000  Uiso   1.00
H36    H     0.18743   0.49126   0.34057   0.00000  Uiso   1.00
H37    H     0.74683   0.71057   0.07284   0.00000  Uiso   1.00
O38    O     0.58155   0.59192   0.85277   0.00000  Uiso   1.00
O39    O     0.36828   0.50868   0.42062   0.00000  Uiso   1.00
O40    O     0.79023   0.79641   0.06937   0.00000  Uiso   1.00
N41    N     0.71596   0.62875   0.78284   0.00000  Uiso   1.00
N42    N     0.27661   0.56942   0.47490   0.00000  Uiso   1.00
N43    N     0.86471   0.77445   0.22458   0.00000  Uiso   1.00
N44    N     0.63777   0.57836   0.68978   0.00000  Uiso   1.00
N45    N     0.19842   0.51903   0.38185   0.00000  Uiso   1.00
N46    N     0.78652   0.72406   0.13153   0.00000  Uiso   1.00
C47    C     0.45925   0.16199   0.50231   0.00000  Uiso   1.00
C48    C     0.37309   0.14052   0.55688   0.00000  Uiso   1.00
C49    C     0.34420   0.15053   0.65460   0.00000  Uiso   1.00
C50    C     0.26350   0.12719   0.69082   0.00000  Uiso   1.00
C51    C     0.13734   0.09873   0.78461   0.00000  Uiso   1.00
C52    C     0.52760   0.12416   0.47202   0.00000  Uiso   1.00
C53    C     0.62863   0.12043   0.49839   0.00000  Uiso   1.00
C54    C     0.67801   0.08332   0.46317   0.00000  Uiso   1.00
C55    C     0.79175   0.02948   0.42515   0.00000  Uiso   1.00
C56    C     0.41407   0.18067   0.40305   0.00000  Uiso   1.00
C57    C     0.41966   0.22445   0.37140   0.00000  Uiso   1.00
C58    C     0.37347   0.23491   0.27809   0.00000  Uiso   1.00
C59    C     0.31094   0.26881   0.13298   0.00000  Uiso   1.00
C60    C     0.36731   0.10272   0.39288   0.00000  Uiso   1.00
C61    C     0.32315   0.10833   0.49744   0.00000  Uiso   1.00
C62    C     0.24247   0.08496   0.53352   0.00000  Uiso   1.00
C63    C     0.21347   0.09494   0.63128   0.00000  Uiso   1.00
C64    C     0.47767   0.09197   0.41258   0.00000  Uiso   1.00
C65    C     0.52691   0.05486   0.37731   0.00000  Uiso   1.00
C66    C     0.62798   0.05107   0.40362   0.00000  Uiso   1.00
C67    C     0.36413   0.14848   0.34360   0.00000  Uiso   1.00
C68    C     0.31793   0.15888   0.25032   0.00000  Uiso   1.00
C69    C     0.32344   0.20266   0.21854   0.00000  Uiso   1.00
H70    H     0.49814   0.18705   0.54859   0.00000  Uiso   1.00
H71    H     0.38287   0.17544   0.70058   0.00000  Uiso   1.00
H72    H     0.66726   0.14535   0.54438   0.00000  Uiso   1.00
H73    H     0.45832   0.24935   0.41741   0.00000  Uiso   1.00
H74    H     0.23308   0.14837   0.84289   0.00000  Uiso   1.00
H75    H     0.83273   0.08492   0.51350   0.00000  Uiso   1.00
H76    H     0.39214   0.30422   0.24577   0.00000  Uiso   1.00
H77    H     0.32843   0.07766   0.34660   0.00000  Uiso   1.00
H78    H     0.20384   0.06005   0.48750   0.00000  Uiso   1.00
H79    H     0.48824   0.02996   0.33131   0.00000  Uiso   1.00
H80    H     0.27929   0.13396   0.20435   0.00000  Uiso   1.00
H81    H     0.08777   0.05471   0.66995   0.00000  Uiso   1.00
H82    H     0.68743   0.99126   0.34057   0.00000  Uiso   1.00
H83    H     0.24683   0.21057   0.07284   0.00000  Uiso   1.00
O84    O     0.08155   0.09192   0.85277   0.00000  Uiso   1.00
O85    O     0.86828   0.00868   0.42062   0.00000  Uiso   1.00
O86    O     0.29023   0.29641   0.06937   0.00000  Uiso   1.00
N87    N     0.21596   0.12875   0.78284   0.00000  Uiso   1.00
N88    N     0.77661   0.06942   0.47490   0.00000  Uiso   1.00
N89    N     0.36471   0.27445   0.22458   0.00000  Uiso   1.00
N90    N     0.13777   0.07836   0.68978   0.00000  Uiso   1.00
N91    N     0.69842   0.01903   0.38185   0.00000  Uiso   1.00
N92    N     0.28652   0.22406   0.13153   0.00000  Uiso   1.00
C93    C     0.04075   0.66199   0.99769   0.00000  Uiso   1.00
C94    C     0.12691   0.64052   0.94312   0.00000  Uiso   1.00
C95    C     0.15580   0.65053   0.84540   0.00000  Uiso   1.00
C96    C     0.23650   0.62719   0.80918   0.00000  Uiso   1.00
C97    C     0.36266   0.59873   0.71539   0.00000  Uiso   1.00
C98    C     0.97240   0.62416   0.02798   0.00000  Uiso   1.00
C99    C     0.87137   0.62043   0.00161   0.00000  Uiso   1.00
C100   C     0.82199   0.58332   0.03683   0.00000  Uiso   1.00
C101   C     0.70825   0.52948   0.07485   0.00000  Uiso   1.00
C102   C     0.08593   0.68067   0.09695   0.00000  Uiso   1.00
C103   C     0.08034   0.72445   0.12860   0.00000  Uiso   1.00
C104   C     0.12653   0.73491   0.22191   0.00000  Uiso   1.00
C105   C     0.18906   0.76881   0.36702   0.00000  Uiso   1.00
C106   C     0.13269   0.60272   0.10712   0.00000  Uiso   1.00
C107   C     0.17685   0.60833   0.00256   0.00000  Uiso   1.00
C108   C     0.25753   0.58496   0.96648   0.00000  Uiso   1.00
C109   C     0.28653   0.59494   0.86872   0.00000  Uiso   1.00
C110   C     0.02233   0.59197   0.08742   0.00000  Uiso   1.00
C111   C     0.97309   0.55486   0.12269   0.00000  Uiso   1.00
C112   C     0.87202   0.55107   0.09638   0.00000  Uiso   1.00
C113   C     0.13587   0.64848   0.15640   0.00000  Uiso   1.00
C114   C     0.18207   0.65888   0.24968   0.00000  Uiso   1.00
C115   C     0.17656   0.70266   0.28146   0.00000  Uiso   1.00
H116   H     0.00186   0.68705   0.95141   0.00000  Uiso   1.00
H117   H     0.11713   0.67544   0.79942   0.00000  Uiso   1.00
H118   H     0.83274   0.64535   0.95562   0.00000  Uiso   1.00
H119   H     0.04168   0.74935   0.08259   0.00000  Uiso   1.00
H120   H     0.26692   0.64837   0.65711   0.00000  Uiso   1.00
H121   H     0.66727   0.58492   0.98650   0.00000  Uiso   1.00
H122   H     0.10786   0.80422   0.25423   0.00000  Uiso   1.00
H123   H     0.17157   0.57766   0.15340   0.00000  Uiso   1.00
H124   H     0.29616   0.56005   0.01250   0.00000  Uiso   1.00
H125   H     0.01176   0.52996   0.16869   0.00000  Uiso   1.00
H126   H     0.22071   0.63396   0.29565   0.00000  Uiso   1.00
H127   H     0.41223   0.55471   0.83005   0.00000  Uiso   1.00
H128   H     0.81257   0.49126   0.15943   0.00000  Uiso   1.00
H129   H     0.25317   0.71057   0.42716   0.00000  Uiso   1.00
O130   O     0.41845   0.59192   0.64723   0.00000  Uiso   1.00
O131   O     0.63172   0.50868   0.07938   0.00000  Uiso   1.00
O132   O     0.20977   0.79641   0.43063   0.00000  Uiso   1.00
N133   N     0.28404   0.62875   0.71716   0.00000  Uiso   1.00
N134   N     0.72339   0.56942   0.02510   0.00000  Uiso   1.00
N135   N     0.13529   0.77445   0.27542   0.00000  Uiso   1.00
N136   N     0.36223   0.57836   0.81022   0.00000  Uiso   1.00
N137   N     0.80158   0.51903   0.11815   0.00000  Uiso   1.00
N138   N     0.21348   0.72406   0.36847   0.00000  Uiso   1.00
C139   C     0.54075   0.16199   0.99769   0.00000  Uiso   1.00
C140   C     0.62691   0.14052   0.94312   0.00000  Uiso   1.00
C141   C     0.65580   0.15053   0.84540   0.00000  Uiso   1.00
C142   C     0.73650   0.12719   0.80918   0.00000  Uiso   1.00
C143   C     0.86266   0.09873   0.71539   0.00000  Uiso   1.00
C144   C     0.47240   0.12416   0.02798   0.00000  Uiso   1.00
C145   C     0.37137   0.12043   0.00161   0.00000  Uiso   1.00
C146   C     0.32199   0.08332   0.03683   0.00000  Uiso   1.00
C147   C     0.20825   0.02948   0.07485   0.00000  Uiso   1.00
C148   C     0.58593   0.18067   0.09695   0.00000  Uiso   1.00
C149   C     0.58034   0.22445   0.12860   0.00000  Uiso   1.00
C150   C     0.62653   0.23491   0.22191   0.00000  Uiso   1.00
C151   C     0.68906   0.26881   0.36702   0.00000  Uiso   1.00
C152   C     0.63269   0.10272   0.10712   0.00000  Uiso   1.00
C153   C     0.67685   0.10833   0.00256   0.00000  Uiso   1.00
C154   C     0.75753   0.08496   0.96648   0.00000  Uiso   1.00
C155   C     0.78653   0.09494   0.86872   0.00000  Uiso   1.00
C156   C     0.52233   0.09197   0.08742   0.00000  Uiso   1.00
C157   C     0.47309   0.05486   0.12269   0.00000  Uiso   1.00
C158   C     0.37202   0.05107   0.09638   0.00000  Uiso   1.00
C159   C     0.63587   0.14848   0.15640   0.00000  Uiso   1.00
C160   C     0.68207   0.15888   0.24968   0.00000  Uiso   1.00
C161   C     0.67656   0.20266   0.28146   0.00000  Uiso   1.00
H162   H     0.50186   0.18705   0.95141   0.00000  Uiso   1.00
H163   H     0.61713   0.17544   0.79942   0.00000  Uiso   1.00
H164   H     0.33274   0.14535   0.95562   0.00000  Uiso   1.00
H165   H     0.54168   0.24935   0.08259   0.00000  Uiso   1.00
H166   H     0.76692   0.14837   0.65711   0.00000  Uiso   1.00
H167   H     0.16727   0.08492   0.98650   0.00000  Uiso   1.00
H168   H     0.60786   0.30422   0.25423   0.00000  Uiso   1.00
H169   H     0.67157   0.07766   0.15340   0.00000  Uiso   1.00
H170   H     0.79616   0.06005   0.01250   0.00000  Uiso   1.00
H171   H     0.51176   0.02996   0.16869   0.00000  Uiso   1.00
H172   H     0.72071   0.13396   0.29565   0.00000  Uiso   1.00
H173   H     0.91223   0.05471   0.83005   0.00000  Uiso   1.00
H174   H     0.31257   0.99126   0.15943   0.00000  Uiso   1.00
H175   H     0.75317   0.21057   0.42716   0.00000  Uiso   1.00
O176   O     0.91845   0.09192   0.64723   0.00000  Uiso   1.00
O177   O     0.13172   0.00868   0.07938   0.00000  Uiso   1.00
O178   O     0.70977   0.29641   0.43063   0.00000  Uiso   1.00
N179   N     0.78404   0.12875   0.71716   0.00000  Uiso   1.00
N180   N     0.22339   0.06942   0.02510   0.00000  Uiso   1.00
N181   N     0.63529   0.27445   0.27542   0.00000  Uiso   1.00
N182   N     0.86223   0.07836   0.81022   0.00000  Uiso   1.00
N183   N     0.30158   0.01903   0.11815   0.00000  Uiso   1.00
N184   N     0.71348   0.22406   0.36847   0.00000  Uiso   1.00
C185   C     0.04075   0.33801   0.49769   0.00000  Uiso   1.00
C186   C     0.12691   0.35948   0.44312   0.00000  Uiso   1.00
C187   C     0.15580   0.34947   0.34540   0.00000  Uiso   1.00
C188   C     0.23650   0.37281   0.30918   0.00000  Uiso   1.00
C189   C     0.36266   0.40127   0.21539   0.00000  Uiso   1.00
C190   C     0.97240   0.37584   0.52798   0.00000  Uiso   1.00
C191   C     0.87137   0.37957   0.50161   0.00000  Uiso   1.00
C192   C     0.82199   0.41668   0.53683   0.00000  Uiso   1.00
C193   C     0.70825   0.47052   0.57485   0.00000  Uiso   1.00
C194   C     0.08593   0.31933   0.59695   0.00000  Uiso   1.00
C195   C     0.08034   0.27555   0.62860   0.00000  Uiso   1.00
C196   C     0.12653   0.26509   0.72191   0.00000  Uiso   1.00
C197   C     0.18906   0.23119   0.86702   0.00000  Uiso   1.00
C198   C     0.13269   0.39728   0.60712   0.00000  Uiso   1.00
C199   C     0.17685   0.39167   0.50256   0.00000  Uiso   1.00
C200   C     0.25753   0.41504   0.46648   0.00000  Uiso   1.00
C201   C     0.28653   0.40506   0.36872   0.00000  Uiso   1.00
C202   C     0.02233   0.40803   0.58742   0.00000  Uiso   1.00
C203   C     0.97309   0.44514   0.62269   0.00000  Uiso   1.00
C204   C     0.87202   0.44893   0.59638   0.00000  Uiso   1.00
C205   C     0.13587   0.35152   0.65640   0.00000  Uiso   1.00
C206   C     0.18207   0.34112   0.74968   0.00000  Uiso   1.00
C207   C     0.17656   0.29734   0.78146   0.00000  Uiso   1.00
H208   H     0.00186   0.31295   0.45141   0.00000  Uiso   1.00
H209   H     0.11713   0.32456   0.29942   0.00000  Uiso   1.00
H210   H     0.83274   0.35465   0.45562   0.00000  Uiso   1.00
H211   H     0.04168   0.25065   0.58259   0.00000  Uiso   1.00
H212   H     0.26692   0.35163   0.15711   0.00000  Uiso   1.00
H213   H     0.66727   0.41508   0.48650   0.00000  Uiso   1.00
H214   H     0.10786   0.19578   0.75423   0.00000  Uiso   1.00
H215   H     0.17157   0.42234   0.65340   0.00000  Uiso   1.00
H216   H     0.29616   0.43995   0.51250   0.00000  Uiso   1.00
H217   H     0.01176   0.47004   0.66869   0.00000  Uiso   1.00
H218   H     0.22071   0.36604   0.79565   0.00000  Uiso   1.00
H219   H     0.41223   0.44529   0.33005   0.00000  Uiso   1.00
H220   H     0.81257   0.50874   0.65943   0.00000  Uiso   1.00
H221   H     0.25317   0.28943   0.92716   0.00000  Uiso   1.00
O222   O     0.41845   0.40808   0.14723   0.00000  Uiso   1.00
O223   O     0.63172   0.49132   0.57938   0.00000  Uiso   1.00
O224   O     0.20977   0.20359   0.93063   0.00000  Uiso   1.00
N225   N     0.28404   0.37125   0.21716   0.00000  Uiso   1.00
N226   N     0.72339   0.43058   0.52510   0.00000  Uiso   1.00
N227   N     0.13529   0.22555   0.77542   0.00000  Uiso   1.00
N228   N     0.36223   0.42164   0.31022   0.00000  Uiso   1.00
N229   N     0.80158   0.48097   0.61815   0.00000  Uiso   1.00
N230   N     0.21348   0.27594   0.86847   0.00000  Uiso   1.00
C231   C     0.54075   0.83801   0.49769   0.00000  Uiso   1.00
C232   C     0.62691   0.85948   0.44312   0.00000  Uiso   1.00
C233   C     0.65580   0.84947   0.34540   0.00000  Uiso   1.00
C234   C     0.73650   0.87281   0.30918   0.00000  Uiso   1.00
C235   C     0.86266   0.90127   0.21539   0.00000  Uiso   1.00
C236   C     0.47240   0.87584   0.52798   0.00000  Uiso   1.00
C237   C     0.37137   0.87957   0.50161   0.00000  Uiso   1.00
C238   C     0.32199   0.91668   0.53683   0.00000  Uiso   1.00
C239   C     0.20825   0.97052   0.57485   0.00000  Uiso   1.00
C240   C     0.58593   0.81933   0.59695   0.00000  Uiso   1.00
C241   C     0.58034   0.77555   0.62860   0.00000  Uiso   1.00
C242   C     0.62653   0.76509   0.72191   0.00000  Uiso   1.00
C243   C     0.68906   0.73119   0.86702   0.00000  Uiso   1.00
C244   C     0.63269   0.89728   0.60712   0.00000  Uiso   1.00
C245   C     0.67685   0.89167   0.50256   0.00000  Uiso   1.00
C246   C     0.75753   0.91504   0.46648   0.00000  Uiso   1.00
C247   C     0.78653   0.90506   0.36872   0.00000  Uiso   1.00
C248   C     0.52233   0.90803   0.58742   0.00000  Uiso   1.00
C249   C     0.47309   0.94514   0.62269   0.00000  Uiso   1.00
C250   C     0.37202   0.94893   0.59638   0.00000  Uiso   1.00
C251   C     0.63587   0.85152   0.65640   0.00000  Uiso   1.00
C252   C     0.68207   0.84112   0.74968   0.00000  Uiso   1.00
C253   C     0.67656   0.79734   0.78146   0.00000  Uiso   1.00
H254   H     0.50186   0.81295   0.45141   0.00000  Uiso   1.00
H255   H     0.61713   0.82456   0.29942   0.00000  Uiso   1.00
H256   H     0.33274   0.85465   0.45562   0.00000  Uiso   1.00
H257   H     0.54168   0.75065   0.58259   0.00000  Uiso   1.00
H258   H     0.76692   0.85163   0.15711   0.00000  Uiso   1.00
H259   H     0.16727   0.91508   0.48650   0.00000  Uiso   1.00
H260   H     0.60786   0.69578   0.75423   0.00000  Uiso   1.00
H261   H     0.67157   0.92234   0.65340   0.00000  Uiso   1.00
H262   H     0.79616   0.93995   0.51250   0.00000  Uiso   1.00
H263   H     0.51176   0.97004   0.66869   0.00000  Uiso   1.00
H264   H     0.72071   0.86604   0.79565   0.00000  Uiso   1.00
H265   H     0.91223   0.94529   0.33005   0.00000  Uiso   1.00
H266   H     0.31257   0.00874   0.65943   0.00000  Uiso   1.00
H267   H     0.75317   0.78943   0.92716   0.00000  Uiso   1.00
O268   O     0.91845   0.90808   0.14723   0.00000  Uiso   1.00
O269   O     0.13172   0.99132   0.57938   0.00000  Uiso   1.00
O270   O     0.70977   0.70359   0.93063   0.00000  Uiso   1.00
N271   N     0.78404   0.87125   0.21716   0.00000  Uiso   1.00
N272   N     0.22339   0.93058   0.52510   0.00000  Uiso   1.00
N273   N     0.63529   0.72555   0.77542   0.00000  Uiso   1.00
N274   N     0.86223   0.92164   0.31022   0.00000  Uiso   1.00
N275   N     0.30158   0.98097   0.61815   0.00000  Uiso   1.00
N276   N     0.71348   0.77594   0.86847   0.00000  Uiso   1.00
C277   C     0.95925   0.33801   0.00231   0.00000  Uiso   1.00
C278   C     0.87309   0.35948   0.05688   0.00000  Uiso   1.00
C279   C     0.84420   0.34947   0.15460   0.00000  Uiso   1.00
C280   C     0.76350   0.37281   0.19082   0.00000  Uiso   1.00
C281   C     0.63734   0.40127   0.28461   0.00000  Uiso   1.00
C282   C     0.02760   0.37584   0.97202   0.00000  Uiso   1.00
C283   C     0.12863   0.37957   0.99839   0.00000  Uiso   1.00
C284   C     0.17801   0.41668   0.96317   0.00000  Uiso   1.00
C285   C     0.29175   0.47052   0.92515   0.00000  Uiso   1.00
C286   C     0.91407   0.31933   0.90305   0.00000  Uiso   1.00
C287   C     0.91966   0.27555   0.87140   0.00000  Uiso   1.00
C288   C     0.87347   0.26509   0.77809   0.00000  Uiso   1.00
C289   C     0.81094   0.23119   0.63298   0.00000  Uiso   1.00
C290   C     0.86731   0.39728   0.89288   0.00000  Uiso   1.00
C291   C     0.82315   0.39167   0.99744   0.00000  Uiso   1.00
C292   C     0.74247   0.41504   0.03352   0.00000  Uiso   1.00
C293   C     0.71347   0.40506   0.13128   0.00000  Uiso   1.00
C294   C     0.97767   0.40803   0.91258   0.00000  Uiso   1.00
C295   C     0.02691   0.44514   0.87731   0.00000  Uiso   1.00
C296   C     0.12798   0.44893   0.90362   0.00000  Uiso   1.00
C297   C     0.86413   0.35152   0.84360   0.00000  Uiso   1.00
C298   C     0.81793   0.34112   0.75032   0.00000  Uiso   1.00
C299   C     0.82344   0.29734   0.71854   0.00000  Uiso   1.00
H300   H     0.99814   0.31295   0.04859   0.00000  Uiso   1.00
H301   H     0.88287   0.32456   0.20058   0.00000  Uiso   1.00
H302   H     0.16726   0.35465   0.04438   0.00000  Uiso   1.00
H303   H     0.95832   0.25065   0.91741   0.00000  Uiso   1.00
H304   H     0.73308   0.35163   0.34289   0.00000  Uiso   1.00
H305   H     0.33273   0.41508   0.01350   0.00000  Uiso   1.00
H306   H     0.89214   0.19578   0.74577   0.00000  Uiso   1.00
H307   H     0.82843   0.42234   0.84660   0.00000  Uiso   1.00
H308   H     0.70384   0.43995   0.98750   0.00000  Uiso   1.00
H309   H     0.98824   0.47004   0.83131   0.00000  Uiso   1.00
H310   H     0.77929   0.36604   0.70435   0.00000  Uiso   1.00
H311   H     0.58777   0.44529   0.16995   0.00000  Uiso   1.00
H312   H     0.18743   0.50874   0.84057   0.00000  Uiso   1.00
H313   H     0.74683   0.28943   0.57284   0.00000  Uiso   1.00
O314   O     0.58155   0.40808   0.35277   0.00000  Uiso   1.00
O315   O     0.36828   0.49132   0.92062   0.00000  Uiso   1.00
O316   O     0.79023   0.20359   0.56937   0.00000  Uiso   1.00
N317   N     0.71596   0.37125   0.28284   0.00000  Uiso   1.00
N318   N     0.27661   0.43058   0.97490   0.00000  Uiso   1.00
N319   N     0.86471   0.22555   0.72458   0.00000  Uiso   1.00
N320   N     0.63777   0.42164   0.18978   0.00000  Uiso   1.00
N321   N     0.19842   0.48097   0.88185   0.00000  Uiso   1.00
N322   N     0.78652   0.27594   0.63153   0.00000  Uiso   1.00
C323   C     0.45925   0.83801   0.00231   0.00000  Uiso   1.00
C324   C     0.37309   0.85948   0.05688   0.00000  Uiso   1.00
C325   C     0.34420   0.84947   0.15460   0.00000  Uiso   1.00
C326   C     0.26350   0.87281   0.19082   0.00000  Uiso   1.00
C327   C     0.13734   0.90127   0.28461   0.00000  Uiso   1.00
C328   C     0.52760   0.87584   0.97202   0.00000  Uiso   1.00
C329   C     0.62863   0.87957   0.99839   0.00000  Uiso   1.00
C330   C     0.67801   0.91668   0.96317   0.00000  Uiso   1.00
C331   C     0.79175   0.97052   0.92515   0.00000  Uiso   1.00
C332   C     0.41407   0.81933   0.90305   0.00000  Uiso   1.00
C333   C     0.41966   0.77555   0.87140   0.00000  Uiso   1.00
C334   C     0.37347   0.76509   0.77809   0.00000  Uiso   1.00
C335   C     0.31094   0.73119   0.63298   0.00000  Uiso   1.00
C336   C     0.36731   0.89728   0.89288   0.00000  Uiso   1.00
C337   C     0.32315   0.89167   0.99744   0.00000  Uiso   1.00
C338   C     0.24247   0.91504   0.03352   0.00000  Uiso   1.00
C339   C     0.21347   0.90506   0.13128   0.00000  Uiso   1.00
C340   C     0.47767   0.90803   0.91258   0.00000  Uiso   1.00
C341   C     0.52691   0.94514   0.87731   0.00000  Uiso   1.00
C342   C     0.62798   0.94893   0.90362   0.00000  Uiso   1.00
C343   C     0.36413   0.85152   0.84360   0.00000  Uiso   1.00
C344   C     0.31793   0.84112   0.75032   0.00000  Uiso   1.00
C345   C     0.32344   0.79734   0.71854   0.00000  Uiso   1.00
H346   H     0.49814   0.81295   0.04859   0.00000  Uiso   1.00
H347   H     0.38287   0.82456   0.20058   0.00000  Uiso   1.00
H348   H     0.66726   0.85465   0.04438   0.00000  Uiso   1.00
H349   H     0.45832   0.75065   0.91741   0.00000  Uiso   1.00
H350   H     0.23308   0.85163   0.34289   0.00000  Uiso   1.00
H351   H     0.83273   0.91508   0.01350   0.00000  Uiso   1.00
H352   H     0.39214   0.69578   0.74577   0.00000  Uiso   1.00
H353   H     0.32843   0.92234   0.84660   0.00000  Uiso   1.00
H354   H     0.20384   0.93995   0.98750   0.00000  Uiso   1.00
H355   H     0.48824   0.97004   0.83131   0.00000  Uiso   1.00
H356   H     0.27929   0.86604   0.70435   0.00000  Uiso   1.00
H357   H     0.08777   0.94529   0.16995   0.00000  Uiso   1.00
H358   H     0.68743   0.00874   0.84057   0.00000  Uiso   1.00
H359   H     0.24683   0.78943   0.57284   0.00000  Uiso   1.00
O360   O     0.08155   0.90808   0.35277   0.00000  Uiso   1.00
O361   O     0.86828   0.99132   0.92062   0.00000  Uiso   1.00
O362   O     0.29023   0.70359   0.56937   0.00000  Uiso   1.00
N363   N     0.21596   0.87125   0.28284   0.00000  Uiso   1.00
N364   N     0.77661   0.93058   0.97490   0.00000  Uiso   1.00
N365   N     0.36471   0.72555   0.72458   0.00000  Uiso   1.00
N366   N     0.13777   0.92164   0.18978   0.00000  Uiso   1.00
N367   N     0.69842   0.98097   0.88185   0.00000  Uiso   1.00
N368   N     0.28652   0.77594   0.63153   0.00000  Uiso   1.00
