data_job_03239
_audit_creation_date              2018-12-19
_audit_creation_method            'Materials Studio'
_symmetry_space_group_name_H-M    'P1'
_symmetry_Int_Tables_number       1
_symmetry_cell_setting            triclinic
loop_
_symmetry_equiv_pos_as_xyz
  x,y,z
_cell_length_a                    41.0131
_cell_length_b                    13.1427
_cell_length_c                    12.2761
_cell_angle_alpha                 90.0000
_cell_angle_beta                  90.0000
_cell_angle_gamma                 90.0000
loop_
_atom_site_label
_atom_site_type_symbol
_atom_site_fract_x
_atom_site_fract_y
_atom_site_fract_z
_atom_site_U_iso_or_equiv
_atom_site_adp_type
_atom_site_occupancy
C1     C     0.59045   0.89117   0.72035   0.00000  Uiso   1.00
C2     C     0.62702   0.91123   0.71409   0.00000  Uiso   1.00
C3     C     0.65140   0.84133   0.73738   0.00000  Uiso   1.00
C4     C     0.68339   0.87448   0.72679   0.00000  Uiso   1.00
C5     C     0.73907   0.89051   0.72210   0.00000  Uiso   1.00
C6     C     0.57668   0.97118   0.79766   0.00000  Uiso   1.00
C7     C     0.55874   0.95169   0.89122   0.00000  Uiso   1.00
C8     C     0.54835   0.03533   0.95096   0.00000  Uiso   1.00
C9     C     0.52586   0.14444   0.07599   0.00000  Uiso   1.00
C10    C     0.57684   0.91663   0.60800   0.00000  Uiso   1.00
C11    C     0.55903   0.85129   0.54209   0.00000  Uiso   1.00
C12    C     0.54877   0.88900   0.44216   0.00000  Uiso   1.00
C13    C     0.52653   0.91342   0.27271   0.00000  Uiso   1.00
C14    C     0.60389   0.07436   0.66009   0.00000  Uiso   1.00
C15    C     0.63432   0.01073   0.68136   0.00000  Uiso   1.00
C16    C     0.66628   0.04400   0.67072   0.00000  Uiso   1.00
C17    C     0.69070   0.97416   0.69399   0.00000  Uiso   1.00
C18    C     0.58398   0.07068   0.76494   0.00000  Uiso   1.00
C19    C     0.57361   0.15437   0.82455   0.00000  Uiso   1.00
C20    C     0.55566   0.13501   0.91818   0.00000  Uiso   1.00
C21    C     0.58415   0.01613   0.57527   0.00000  Uiso   1.00
C22    C     0.57390   0.05396   0.47543   0.00000  Uiso   1.00
C23    C     0.55608   0.98868   0.40938   0.00000  Uiso   1.00
H24    H     0.58476   0.81371   0.74583   0.00000  Uiso   1.00
H25    H     0.64574   0.76433   0.76272   0.00000  Uiso   1.00
H26    H     0.55309   0.87468   0.91652   0.00000  Uiso   1.00
H27    H     0.55339   0.77429   0.56745   0.00000  Uiso   1.00
H28    H     0.71657   0.75349   0.76705   0.00000  Uiso   1.00
H29    H     0.52121   0.98616   0.09133   0.00000  Uiso   1.00
H30    H     0.52182   0.77447   0.35524   0.00000  Uiso   1.00
H31    H     0.60957   0.15183   0.63461   0.00000  Uiso   1.00
H32    H     0.67192   0.12101   0.64539   0.00000  Uiso   1.00
H33    H     0.57927   0.23135   0.79920   0.00000  Uiso   1.00
H34    H     0.57956   0.13096   0.45012   0.00000  Uiso   1.00
H35    H     0.73782   0.04298   0.67183   0.00000  Uiso   1.00
H36    H     0.54245   0.27565   0.99611   0.00000  Uiso   1.00
H37    H     0.54306   0.06396   0.26002   0.00000  Uiso   1.00
O38    O     0.76776   0.87187   0.72857   0.00000  Uiso   1.00
O39    O     0.51144   0.17713   0.15400   0.00000  Uiso   1.00
O40    O     0.51225   0.89939   0.18827   0.00000  Uiso   1.00
N41    N     0.71302   0.82584   0.74314   0.00000  Uiso   1.00
N42    N     0.53037   0.04338   0.04633   0.00000  Uiso   1.00
N43    N     0.53093   0.84547   0.35816   0.00000  Uiso   1.00
N44    N     0.72445   0.98161   0.69190   0.00000  Uiso   1.00
N45    N     0.54180   0.19915   0.99509   0.00000  Uiso   1.00
N46    N     0.54236   0.00125   0.30692   0.00000  Uiso   1.00
C47    C     0.90955   0.60883   0.72035   0.00000  Uiso   1.00
C48    C     0.87298   0.58877   0.71409   0.00000  Uiso   1.00
C49    C     0.84860   0.65867   0.73738   0.00000  Uiso   1.00
C50    C     0.81661   0.62552   0.72679   0.00000  Uiso   1.00
C51    C     0.76093   0.60949   0.72210   0.00000  Uiso   1.00
C52    C     0.92332   0.52882   0.79766   0.00000  Uiso   1.00
C53    C     0.94126   0.54831   0.89122   0.00000  Uiso   1.00
C54    C     0.95165   0.46467   0.95096   0.00000  Uiso   1.00
C55    C     0.97414   0.35556   0.07599   0.00000  Uiso   1.00
C56    C     0.92316   0.58337   0.60800   0.00000  Uiso   1.00
C57    C     0.94097   0.64871   0.54209   0.00000  Uiso   1.00
C58    C     0.95123   0.61100   0.44216   0.00000  Uiso   1.00
C59    C     0.97347   0.58658   0.27271   0.00000  Uiso   1.00
C60    C     0.89611   0.42564   0.66009   0.00000  Uiso   1.00
C61    C     0.86568   0.48927   0.68136   0.00000  Uiso   1.00
C62    C     0.83372   0.45600   0.67072   0.00000  Uiso   1.00
C63    C     0.80930   0.52584   0.69399   0.00000  Uiso   1.00
C64    C     0.91602   0.42932   0.76494   0.00000  Uiso   1.00
C65    C     0.92639   0.34563   0.82455   0.00000  Uiso   1.00
C66    C     0.94434   0.36499   0.91818   0.00000  Uiso   1.00
C67    C     0.91585   0.48387   0.57527   0.00000  Uiso   1.00
C68    C     0.92610   0.44604   0.47543   0.00000  Uiso   1.00
C69    C     0.94392   0.51132   0.40938   0.00000  Uiso   1.00
H70    H     0.91524   0.68629   0.74583   0.00000  Uiso   1.00
H71    H     0.85426   0.73567   0.76272   0.00000  Uiso   1.00
H72    H     0.94691   0.62532   0.91652   0.00000  Uiso   1.00
H73    H     0.94661   0.72571   0.56745   0.00000  Uiso   1.00
H74    H     0.78343   0.74651   0.76705   0.00000  Uiso   1.00
H75    H     0.97879   0.51384   0.09133   0.00000  Uiso   1.00
H76    H     0.97818   0.72553   0.35524   0.00000  Uiso   1.00
H77    H     0.89043   0.34817   0.63461   0.00000  Uiso   1.00
H78    H     0.82808   0.37899   0.64539   0.00000  Uiso   1.00
H79    H     0.92073   0.26865   0.79920   0.00000  Uiso   1.00
H80    H     0.92044   0.36904   0.45012   0.00000  Uiso   1.00
H81    H     0.76218   0.45702   0.67183   0.00000  Uiso   1.00
H82    H     0.95755   0.22435   0.99611   0.00000  Uiso   1.00
H83    H     0.95694   0.43604   0.26002   0.00000  Uiso   1.00
O84    O     0.73224   0.62813   0.72857   0.00000  Uiso   1.00
O85    O     0.98856   0.32287   0.15400   0.00000  Uiso   1.00
O86    O     0.98775   0.60061   0.18827   0.00000  Uiso   1.00
N87    N     0.78698   0.67416   0.74314   0.00000  Uiso   1.00
N88    N     0.96963   0.45662   0.04633   0.00000  Uiso   1.00
N89    N     0.96907   0.65453   0.35816   0.00000  Uiso   1.00
N90    N     0.77555   0.51839   0.69190   0.00000  Uiso   1.00
N91    N     0.95820   0.30085   0.99509   0.00000  Uiso   1.00
N92    N     0.95764   0.49875   0.30692   0.00000  Uiso   1.00
C93    C     0.40955   0.39117   0.77965   0.00000  Uiso   1.00
C94    C     0.37298   0.41123   0.78591   0.00000  Uiso   1.00
C95    C     0.34860   0.34133   0.76262   0.00000  Uiso   1.00
C96    C     0.31661   0.37448   0.77321   0.00000  Uiso   1.00
C97    C     0.26093   0.39051   0.77790   0.00000  Uiso   1.00
C98    C     0.42332   0.47118   0.70234   0.00000  Uiso   1.00
C99    C     0.44126   0.45169   0.60878   0.00000  Uiso   1.00
C100   C     0.45165   0.53533   0.54904   0.00000  Uiso   1.00
C101   C     0.47414   0.64444   0.42401   0.00000  Uiso   1.00
C102   C     0.42316   0.41663   0.89200   0.00000  Uiso   1.00
C103   C     0.44097   0.35129   0.95791   0.00000  Uiso   1.00
C104   C     0.45123   0.38900   0.05784   0.00000  Uiso   1.00
C105   C     0.47347   0.41342   0.22729   0.00000  Uiso   1.00
C106   C     0.39611   0.57436   0.83991   0.00000  Uiso   1.00
C107   C     0.36568   0.51073   0.81864   0.00000  Uiso   1.00
C108   C     0.33372   0.54400   0.82928   0.00000  Uiso   1.00
C109   C     0.30930   0.47416   0.80601   0.00000  Uiso   1.00
C110   C     0.41602   0.57068   0.73506   0.00000  Uiso   1.00
C111   C     0.42639   0.65437   0.67545   0.00000  Uiso   1.00
C112   C     0.44434   0.63501   0.58182   0.00000  Uiso   1.00
C113   C     0.41585   0.51613   0.92473   0.00000  Uiso   1.00
C114   C     0.42610   0.55396   0.02457   0.00000  Uiso   1.00
C115   C     0.44392   0.48868   0.09062   0.00000  Uiso   1.00
H116   H     0.41524   0.31371   0.75417   0.00000  Uiso   1.00
H117   H     0.35426   0.26433   0.73728   0.00000  Uiso   1.00
H118   H     0.44691   0.37468   0.58348   0.00000  Uiso   1.00
H119   H     0.44661   0.27429   0.93255   0.00000  Uiso   1.00
H120   H     0.28343   0.25349   0.73295   0.00000  Uiso   1.00
H121   H     0.47879   0.48616   0.40867   0.00000  Uiso   1.00
H122   H     0.47818   0.27447   0.14476   0.00000  Uiso   1.00
H123   H     0.39043   0.65183   0.86539   0.00000  Uiso   1.00
H124   H     0.32808   0.62101   0.85461   0.00000  Uiso   1.00
H125   H     0.42073   0.73135   0.70080   0.00000  Uiso   1.00
H126   H     0.42044   0.63096   0.04988   0.00000  Uiso   1.00
H127   H     0.26218   0.54298   0.82817   0.00000  Uiso   1.00
H128   H     0.45755   0.77565   0.50389   0.00000  Uiso   1.00
H129   H     0.45694   0.56396   0.23998   0.00000  Uiso   1.00
O130   O     0.23224   0.37187   0.77143   0.00000  Uiso   1.00
O131   O     0.48856   0.67713   0.34600   0.00000  Uiso   1.00
O132   O     0.48775   0.39939   0.31173   0.00000  Uiso   1.00
N133   N     0.28698   0.32584   0.75686   0.00000  Uiso   1.00
N134   N     0.46963   0.54338   0.45367   0.00000  Uiso   1.00
N135   N     0.46907   0.34547   0.14184   0.00000  Uiso   1.00
N136   N     0.27555   0.48161   0.80810   0.00000  Uiso   1.00
N137   N     0.45820   0.69915   0.50491   0.00000  Uiso   1.00
N138   N     0.45764   0.50125   0.19308   0.00000  Uiso   1.00
C139   C     0.09045   0.10883   0.77965   0.00000  Uiso   1.00
C140   C     0.12702   0.08877   0.78591   0.00000  Uiso   1.00
C141   C     0.15140   0.15867   0.76262   0.00000  Uiso   1.00
C142   C     0.18339   0.12552   0.77321   0.00000  Uiso   1.00
C143   C     0.23907   0.10949   0.77790   0.00000  Uiso   1.00
C144   C     0.07668   0.02882   0.70234   0.00000  Uiso   1.00
C145   C     0.05874   0.04831   0.60878   0.00000  Uiso   1.00
C146   C     0.04835   0.96467   0.54904   0.00000  Uiso   1.00
C147   C     0.02586   0.85556   0.42401   0.00000  Uiso   1.00
C148   C     0.07684   0.08337   0.89200   0.00000  Uiso   1.00
C149   C     0.05903   0.14871   0.95791   0.00000  Uiso   1.00
C150   C     0.04877   0.11100   0.05784   0.00000  Uiso   1.00
C151   C     0.02653   0.08658   0.22729   0.00000  Uiso   1.00
C152   C     0.10389   0.92564   0.83991   0.00000  Uiso   1.00
C153   C     0.13432   0.98927   0.81864   0.00000  Uiso   1.00
C154   C     0.16628   0.95600   0.82928   0.00000  Uiso   1.00
C155   C     0.19070   0.02584   0.80601   0.00000  Uiso   1.00
C156   C     0.08398   0.92932   0.73506   0.00000  Uiso   1.00
C157   C     0.07361   0.84563   0.67545   0.00000  Uiso   1.00
C158   C     0.05566   0.86499   0.58182   0.00000  Uiso   1.00
C159   C     0.08415   0.98387   0.92473   0.00000  Uiso   1.00
C160   C     0.07390   0.94604   0.02457   0.00000  Uiso   1.00
C161   C     0.05608   0.01132   0.09062   0.00000  Uiso   1.00
H162   H     0.08476   0.18629   0.75417   0.00000  Uiso   1.00
H163   H     0.14574   0.23567   0.73728   0.00000  Uiso   1.00
H164   H     0.05309   0.12532   0.58348   0.00000  Uiso   1.00
H165   H     0.05339   0.22571   0.93255   0.00000  Uiso   1.00
H166   H     0.21657   0.24651   0.73295   0.00000  Uiso   1.00
H167   H     0.02121   0.01384   0.40867   0.00000  Uiso   1.00
H168   H     0.02182   0.22553   0.14476   0.00000  Uiso   1.00
H169   H     0.10957   0.84817   0.86539   0.00000  Uiso   1.00
H170   H     0.17192   0.87899   0.85461   0.00000  Uiso   1.00
H171   H     0.07927   0.76865   0.70080   0.00000  Uiso   1.00
H172   H     0.07956   0.86904   0.04988   0.00000  Uiso   1.00
H173   H     0.23782   0.95702   0.82817   0.00000  Uiso   1.00
H174   H     0.04245   0.72435   0.50389   0.00000  Uiso   1.00
H175   H     0.04306   0.93604   0.23998   0.00000  Uiso   1.00
O176   O     0.26776   0.12813   0.77143   0.00000  Uiso   1.00
O177   O     0.01144   0.82287   0.34600   0.00000  Uiso   1.00
O178   O     0.01225   0.10061   0.31173   0.00000  Uiso   1.00
N179   N     0.21302   0.17416   0.75686   0.00000  Uiso   1.00
N180   N     0.03037   0.95662   0.45367   0.00000  Uiso   1.00
N181   N     0.03093   0.15453   0.14184   0.00000  Uiso   1.00
N182   N     0.22445   0.01839   0.80810   0.00000  Uiso   1.00
N183   N     0.04180   0.80085   0.50491   0.00000  Uiso   1.00
N184   N     0.04236   0.99875   0.19308   0.00000  Uiso   1.00
C185   C     0.40955   0.10883   0.27965   0.00000  Uiso   1.00
C186   C     0.37298   0.08877   0.28591   0.00000  Uiso   1.00
C187   C     0.34860   0.15867   0.26262   0.00000  Uiso   1.00
C188   C     0.31661   0.12552   0.27321   0.00000  Uiso   1.00
C189   C     0.26093   0.10949   0.27790   0.00000  Uiso   1.00
C190   C     0.42332   0.02882   0.20234   0.00000  Uiso   1.00
C191   C     0.44126   0.04831   0.10878   0.00000  Uiso   1.00
C192   C     0.45165   0.96467   0.04904   0.00000  Uiso   1.00
C193   C     0.47414   0.85556   0.92401   0.00000  Uiso   1.00
C194   C     0.42316   0.08337   0.39200   0.00000  Uiso   1.00
C195   C     0.44097   0.14871   0.45791   0.00000  Uiso   1.00
C196   C     0.45123   0.11100   0.55784   0.00000  Uiso   1.00
C197   C     0.47347   0.08658   0.72729   0.00000  Uiso   1.00
C198   C     0.39611   0.92564   0.33991   0.00000  Uiso   1.00
C199   C     0.36568   0.98927   0.31864   0.00000  Uiso   1.00
C200   C     0.33372   0.95600   0.32928   0.00000  Uiso   1.00
C201   C     0.30930   0.02584   0.30601   0.00000  Uiso   1.00
C202   C     0.41602   0.92932   0.23506   0.00000  Uiso   1.00
C203   C     0.42639   0.84563   0.17545   0.00000  Uiso   1.00
C204   C     0.44434   0.86499   0.08182   0.00000  Uiso   1.00
C205   C     0.41585   0.98387   0.42473   0.00000  Uiso   1.00
C206   C     0.42610   0.94604   0.52457   0.00000  Uiso   1.00
C207   C     0.44392   0.01132   0.59062   0.00000  Uiso   1.00
H208   H     0.41524   0.18629   0.25417   0.00000  Uiso   1.00
H209   H     0.35426   0.23567   0.23728   0.00000  Uiso   1.00
H210   H     0.44691   0.12532   0.08348   0.00000  Uiso   1.00
H211   H     0.44661   0.22571   0.43255   0.00000  Uiso   1.00
H212   H     0.28343   0.24651   0.23295   0.00000  Uiso   1.00
H213   H     0.47879   0.01384   0.90867   0.00000  Uiso   1.00
H214   H     0.47818   0.22553   0.64476   0.00000  Uiso   1.00
H215   H     0.39043   0.84817   0.36539   0.00000  Uiso   1.00
H216   H     0.32808   0.87899   0.35461   0.00000  Uiso   1.00
H217   H     0.42073   0.76865   0.20080   0.00000  Uiso   1.00
H218   H     0.42044   0.86904   0.54988   0.00000  Uiso   1.00
H219   H     0.26218   0.95702   0.32817   0.00000  Uiso   1.00
H220   H     0.45755   0.72435   0.00389   0.00000  Uiso   1.00
H221   H     0.45694   0.93604   0.73998   0.00000  Uiso   1.00
O222   O     0.23224   0.12813   0.27143   0.00000  Uiso   1.00
O223   O     0.48856   0.82287   0.84600   0.00000  Uiso   1.00
O224   O     0.48775   0.10061   0.81173   0.00000  Uiso   1.00
N225   N     0.28698   0.17416   0.25686   0.00000  Uiso   1.00
N226   N     0.46963   0.95662   0.95367   0.00000  Uiso   1.00
N227   N     0.46907   0.15453   0.64184   0.00000  Uiso   1.00
N228   N     0.27555   0.01839   0.30810   0.00000  Uiso   1.00
N229   N     0.45820   0.80085   0.00491   0.00000  Uiso   1.00
N230   N     0.45764   0.99875   0.69308   0.00000  Uiso   1.00
C231   C     0.09045   0.39117   0.27965   0.00000  Uiso   1.00
C232   C     0.12702   0.41123   0.28591   0.00000  Uiso   1.00
C233   C     0.15140   0.34133   0.26262   0.00000  Uiso   1.00
C234   C     0.18339   0.37448   0.27321   0.00000  Uiso   1.00
C235   C     0.23907   0.39051   0.27790   0.00000  Uiso   1.00
C236   C     0.07668   0.47118   0.20234   0.00000  Uiso   1.00
C237   C     0.05874   0.45169   0.10878   0.00000  Uiso   1.00
C238   C     0.04835   0.53533   0.04904   0.00000  Uiso   1.00
C239   C     0.02586   0.64444   0.92401   0.00000  Uiso   1.00
C240   C     0.07684   0.41663   0.39200   0.00000  Uiso   1.00
C241   C     0.05903   0.35129   0.45791   0.00000  Uiso   1.00
C242   C     0.04877   0.38900   0.55784   0.00000  Uiso   1.00
C243   C     0.02653   0.41342   0.72729   0.00000  Uiso   1.00
C244   C     0.10389   0.57436   0.33991   0.00000  Uiso   1.00
C245   C     0.13432   0.51073   0.31864   0.00000  Uiso   1.00
C246   C     0.16628   0.54400   0.32928   0.00000  Uiso   1.00
C247   C     0.19070   0.47416   0.30601   0.00000  Uiso   1.00
C248   C     0.08398   0.57068   0.23506   0.00000  Uiso   1.00
C249   C     0.07361   0.65437   0.17545   0.00000  Uiso   1.00
C250   C     0.05566   0.63501   0.08182   0.00000  Uiso   1.00
C251   C     0.08415   0.51613   0.42473   0.00000  Uiso   1.00
C252   C     0.07390   0.55396   0.52457   0.00000  Uiso   1.00
C253   C     0.05608   0.48868   0.59062   0.00000  Uiso   1.00
H254   H     0.08476   0.31371   0.25417   0.00000  Uiso   1.00
H255   H     0.14574   0.26433   0.23728   0.00000  Uiso   1.00
H256   H     0.05309   0.37468   0.08348   0.00000  Uiso   1.00
H257   H     0.05339   0.27429   0.43255   0.00000  Uiso   1.00
H258   H     0.21657   0.25349   0.23295   0.00000  Uiso   1.00
H259   H     0.02121   0.48616   0.90867   0.00000  Uiso   1.00
H260   H     0.02182   0.27447   0.64476   0.00000  Uiso   1.00
H261   H     0.10957   0.65183   0.36539   0.00000  Uiso   1.00
H262   H     0.17192   0.62101   0.35461   0.00000  Uiso   1.00
H263   H     0.07927   0.73135   0.20080   0.00000  Uiso   1.00
H264   H     0.07956   0.63096   0.54988   0.00000  Uiso   1.00
H265   H     0.23782   0.54298   0.32817   0.00000  Uiso   1.00
H266   H     0.04245   0.77565   0.00389   0.00000  Uiso   1.00
H267   H     0.04306   0.56396   0.73998   0.00000  Uiso   1.00
O268   O     0.26776   0.37187   0.27143   0.00000  Uiso   1.00
O269   O     0.01144   0.67713   0.84600   0.00000  Uiso   1.00
O270   O     0.01225   0.39939   0.81173   0.00000  Uiso   1.00
N271   N     0.21302   0.32584   0.25686   0.00000  Uiso   1.00
N272   N     0.03037   0.54338   0.95367   0.00000  Uiso   1.00
N273   N     0.03093   0.34547   0.64184   0.00000  Uiso   1.00
N274   N     0.22445   0.48161   0.30810   0.00000  Uiso   1.00
N275   N     0.04180   0.69915   0.00491   0.00000  Uiso   1.00
N276   N     0.04236   0.50125   0.69308   0.00000  Uiso   1.00
C277   C     0.59045   0.60883   0.22035   0.00000  Uiso   1.00
C278   C     0.62702   0.58877   0.21409   0.00000  Uiso   1.00
C279   C     0.65140   0.65867   0.23738   0.00000  Uiso   1.00
C280   C     0.68339   0.62552   0.22679   0.00000  Uiso   1.00
C281   C     0.73907   0.60949   0.22210   0.00000  Uiso   1.00
C282   C     0.57668   0.52882   0.29766   0.00000  Uiso   1.00
C283   C     0.55874   0.54831   0.39122   0.00000  Uiso   1.00
C284   C     0.54835   0.46467   0.45096   0.00000  Uiso   1.00
C285   C     0.52586   0.35556   0.57599   0.00000  Uiso   1.00
C286   C     0.57684   0.58337   0.10800   0.00000  Uiso   1.00
C287   C     0.55903   0.64871   0.04209   0.00000  Uiso   1.00
C288   C     0.54877   0.61100   0.94216   0.00000  Uiso   1.00
C289   C     0.52653   0.58658   0.77271   0.00000  Uiso   1.00
C290   C     0.60389   0.42564   0.16009   0.00000  Uiso   1.00
C291   C     0.63432   0.48927   0.18136   0.00000  Uiso   1.00
C292   C     0.66628   0.45600   0.17072   0.00000  Uiso   1.00
C293   C     0.69070   0.52584   0.19399   0.00000  Uiso   1.00
C294   C     0.58398   0.42932   0.26494   0.00000  Uiso   1.00
C295   C     0.57361   0.34563   0.32455   0.00000  Uiso   1.00
C296   C     0.55566   0.36499   0.41818   0.00000  Uiso   1.00
C297   C     0.58415   0.48387   0.07527   0.00000  Uiso   1.00
C298   C     0.57390   0.44604   0.97543   0.00000  Uiso   1.00
C299   C     0.55608   0.51132   0.90938   0.00000  Uiso   1.00
H300   H     0.58476   0.68629   0.24583   0.00000  Uiso   1.00
H301   H     0.64574   0.73567   0.26272   0.00000  Uiso   1.00
H302   H     0.55309   0.62532   0.41652   0.00000  Uiso   1.00
H303   H     0.55339   0.72571   0.06745   0.00000  Uiso   1.00
H304   H     0.71657   0.74651   0.26705   0.00000  Uiso   1.00
H305   H     0.52121   0.51384   0.59133   0.00000  Uiso   1.00
H306   H     0.52182   0.72553   0.85524   0.00000  Uiso   1.00
H307   H     0.60957   0.34817   0.13461   0.00000  Uiso   1.00
H308   H     0.67192   0.37899   0.14539   0.00000  Uiso   1.00
H309   H     0.57927   0.26865   0.29920   0.00000  Uiso   1.00
H310   H     0.57956   0.36904   0.95012   0.00000  Uiso   1.00
H311   H     0.73782   0.45702   0.17183   0.00000  Uiso   1.00
H312   H     0.54245   0.22435   0.49611   0.00000  Uiso   1.00
H313   H     0.54306   0.43604   0.76002   0.00000  Uiso   1.00
O314   O     0.76776   0.62813   0.22857   0.00000  Uiso   1.00
O315   O     0.51144   0.32287   0.65400   0.00000  Uiso   1.00
O316   O     0.51225   0.60061   0.68827   0.00000  Uiso   1.00
N317   N     0.71302   0.67416   0.24314   0.00000  Uiso   1.00
N318   N     0.53037   0.45662   0.54633   0.00000  Uiso   1.00
N319   N     0.53093   0.65453   0.85816   0.00000  Uiso   1.00
N320   N     0.72445   0.51839   0.19190   0.00000  Uiso   1.00
N321   N     0.54180   0.30085   0.49509   0.00000  Uiso   1.00
N322   N     0.54236   0.49875   0.80692   0.00000  Uiso   1.00
C323   C     0.90955   0.89117   0.22035   0.00000  Uiso   1.00
C324   C     0.87298   0.91123   0.21409   0.00000  Uiso   1.00
C325   C     0.84860   0.84133   0.23738   0.00000  Uiso   1.00
C326   C     0.81661   0.87448   0.22679   0.00000  Uiso   1.00
C327   C     0.76093   0.89051   0.22210   0.00000  Uiso   1.00
C328   C     0.92332   0.97118   0.29766   0.00000  Uiso   1.00
C329   C     0.94126   0.95169   0.39122   0.00000  Uiso   1.00
C330   C     0.95165   0.03533   0.45096   0.00000  Uiso   1.00
C331   C     0.97414   0.14444   0.57599   0.00000  Uiso   1.00
C332   C     0.92316   0.91663   0.10800   0.00000  Uiso   1.00
C333   C     0.94097   0.85129   0.04209   0.00000  Uiso   1.00
C334   C     0.95123   0.88900   0.94216   0.00000  Uiso   1.00
C335   C     0.97347   0.91342   0.77271   0.00000  Uiso   1.00
C336   C     0.89611   0.07436   0.16009   0.00000  Uiso   1.00
C337   C     0.86568   0.01073   0.18136   0.00000  Uiso   1.00
C338   C     0.83372   0.04400   0.17072   0.00000  Uiso   1.00
C339   C     0.80930   0.97416   0.19399   0.00000  Uiso   1.00
C340   C     0.91602   0.07068   0.26494   0.00000  Uiso   1.00
C341   C     0.92639   0.15437   0.32455   0.00000  Uiso   1.00
C342   C     0.94434   0.13501   0.41818   0.00000  Uiso   1.00
C343   C     0.91585   0.01613   0.07527   0.00000  Uiso   1.00
C344   C     0.92610   0.05396   0.97543   0.00000  Uiso   1.00
C345   C     0.94392   0.98868   0.90938   0.00000  Uiso   1.00
H346   H     0.91524   0.81371   0.24583   0.00000  Uiso   1.00
H347   H     0.85426   0.76433   0.26272   0.00000  Uiso   1.00
H348   H     0.94691   0.87468   0.41652   0.00000  Uiso   1.00
H349   H     0.94661   0.77429   0.06745   0.00000  Uiso   1.00
H350   H     0.78343   0.75349   0.26705   0.00000  Uiso   1.00
H351   H     0.97879   0.98616   0.59133   0.00000  Uiso   1.00
H352   H     0.97818   0.77447   0.85524   0.00000  Uiso   1.00
H353   H     0.89043   0.15183   0.13461   0.00000  Uiso   1.00
H354   H     0.82808   0.12101   0.14539   0.00000  Uiso   1.00
H355   H     0.92073   0.23135   0.29920   0.00000  Uiso   1.00
H356   H     0.92044   0.13096   0.95012   0.00000  Uiso   1.00
H357   H     0.76218   0.04298   0.17183   0.00000  Uiso   1.00
H358   H     0.95755   0.27565   0.49611   0.00000  Uiso   1.00
H359   H     0.95694   0.06396   0.76002   0.00000  Uiso   1.00
O360   O     0.73224   0.87187   0.22857   0.00000  Uiso   1.00
O361   O     0.98856   0.17713   0.65400   0.00000  Uiso   1.00
O362   O     0.98775   0.89939   0.68827   0.00000  Uiso   1.00
N363   N     0.78698   0.82584   0.24314   0.00000  Uiso   1.00
N364   N     0.96963   0.04338   0.54633   0.00000  Uiso   1.00
N365   N     0.96907   0.84547   0.85816   0.00000  Uiso   1.00
N366   N     0.77555   0.98161   0.19190   0.00000  Uiso   1.00
N367   N     0.95820   0.19915   0.49509   0.00000  Uiso   1.00
N368   N     0.95764   0.00125   0.80692   0.00000  Uiso   1.00
