data_job_01312
_audit_creation_date              2018-12-19
_audit_creation_method            'Materials Studio'
_symmetry_space_group_name_H-M    'P1'
_symmetry_Int_Tables_number       1
_symmetry_cell_setting            triclinic
loop_
_symmetry_equiv_pos_as_xyz
  x,y,z
_cell_length_a                    25.5813
_cell_length_b                    15.4405
_cell_length_c                    17.5350
_cell_angle_alpha                 90.0000
_cell_angle_beta                  95.9542
_cell_angle_gamma                 90.0000
loop_
_atom_site_label
_atom_site_type_symbol
_atom_site_fract_x
_atom_site_fract_y
_atom_site_fract_z
_atom_site_U_iso_or_equiv
_atom_site_adp_type
_atom_site_occupancy
C1     C     0.87074   0.75859   0.23462   0.00000  Uiso   1.00
C2     C     0.89396   0.77608   0.15946   0.00000  Uiso   1.00
C3     C     0.92228   0.84914   0.14284   0.00000  Uiso   1.00
C4     C     0.94016   0.85295   0.07082   0.00000  Uiso   1.00
C5     C     0.97773   0.89031   0.96222   0.00000  Uiso   1.00
C6     C     0.81215   0.74335   0.21328   0.00000  Uiso   1.00
C7     C     0.77169   0.78889   0.24193   0.00000  Uiso   1.00
C8     C     0.72071   0.76513   0.21523   0.00000  Uiso   1.00
C9     C     0.63127   0.75164   0.19023   0.00000  Uiso   1.00
C10    C     0.89338   0.67191   0.26373   0.00000  Uiso   1.00
C11    C     0.92119   0.65737   0.33480   0.00000  Uiso   1.00
C12    C     0.93859   0.57346   0.35057   0.00000  Uiso   1.00
C13    C     0.97526   0.44905   0.40390   0.00000  Uiso   1.00
C14    C     0.85216   0.63541   0.13626   0.00000  Uiso   1.00
C15    C     0.88386   0.70918   0.10603   0.00000  Uiso   1.00
C16    C     0.90172   0.71287   0.03402   0.00000  Uiso   1.00
C17    C     0.93006   0.78592   0.01730   0.00000  Uiso   1.00
C18    C     0.80206   0.67645   0.15986   0.00000  Uiso   1.00
C19    C     0.75113   0.65261   0.13311   0.00000  Uiso   1.00
C20    C     0.71060   0.69810   0.16170   0.00000  Uiso   1.00
C21    C     0.88328   0.60501   0.21030   0.00000  Uiso   1.00
C22    C     0.90064   0.52110   0.22597   0.00000  Uiso   1.00
C23    C     0.92848   0.50643   0.29705   0.00000  Uiso   1.00
H24    H     0.87860   0.81067   0.27622   0.00000  Uiso   1.00
H25    H     0.93007   0.90091   0.18420   0.00000  Uiso   1.00
H26    H     0.77951   0.84065   0.28328   0.00000  Uiso   1.00
H27    H     0.92900   0.70916   0.37613   0.00000  Uiso   1.00
H28    H     0.98268   0.97146   0.05862   0.00000  Uiso   1.00
H29    H     0.66521   0.84439   0.26754   0.00000  Uiso   1.00
H30    H     0.98042   0.56711   0.46334   0.00000  Uiso   1.00
H31    H     0.84430   0.58333   0.09467   0.00000  Uiso   1.00
H32    H     0.89390   0.66109   0.99269   0.00000  Uiso   1.00
H33    H     0.74333   0.60084   0.09176   0.00000  Uiso   1.00
H34    H     0.89282   0.46934   0.18461   0.00000  Uiso   1.00
H35    H     0.95332   0.77682   0.90317   0.00000  Uiso   1.00
H36    H     0.63584   0.64975   0.11211   0.00000  Uiso   1.00
H37    H     0.95106   0.37247   0.30790   0.00000  Uiso   1.00
O38    O     0.00123   0.92941   0.91707   0.00000  Uiso   1.00
O39    O     0.58472   0.76269   0.19119   0.00000  Uiso   1.00
O40    O     0.99828   0.39891   0.44807   0.00000  Uiso   1.00
N41    N     0.96897   0.91497   0.03603   0.00000  Uiso   1.00
N42    N     0.67215   0.79618   0.23136   0.00000  Uiso   1.00
N43    N     0.96684   0.53694   0.41442   0.00000  Uiso   1.00
N44    N     0.95317   0.81024   0.95239   0.00000  Uiso   1.00
N45    N     0.65636   0.69144   0.14772   0.00000  Uiso   1.00
N46    N     0.95104   0.43221   0.33078   0.00000  Uiso   1.00
C47    C     0.37074   0.25859   0.23462   0.00000  Uiso   1.00
C48    C     0.39396   0.27608   0.15946   0.00000  Uiso   1.00
C49    C     0.42228   0.34914   0.14284   0.00000  Uiso   1.00
C50    C     0.44016   0.35295   0.07082   0.00000  Uiso   1.00
C51    C     0.47773   0.39031   0.96222   0.00000  Uiso   1.00
C52    C     0.31215   0.24335   0.21328   0.00000  Uiso   1.00
C53    C     0.27169   0.28889   0.24193   0.00000  Uiso   1.00
C54    C     0.22071   0.26513   0.21523   0.00000  Uiso   1.00
C55    C     0.13127   0.25164   0.19023   0.00000  Uiso   1.00
C56    C     0.39338   0.17191   0.26373   0.00000  Uiso   1.00
C57    C     0.42119   0.15737   0.33480   0.00000  Uiso   1.00
C58    C     0.43859   0.07346   0.35057   0.00000  Uiso   1.00
C59    C     0.47526   0.94905   0.40390   0.00000  Uiso   1.00
C60    C     0.35216   0.13541   0.13626   0.00000  Uiso   1.00
C61    C     0.38386   0.20918   0.10603   0.00000  Uiso   1.00
C62    C     0.40172   0.21287   0.03402   0.00000  Uiso   1.00
C63    C     0.43006   0.28592   0.01730   0.00000  Uiso   1.00
C64    C     0.30206   0.17645   0.15986   0.00000  Uiso   1.00
C65    C     0.25113   0.15261   0.13311   0.00000  Uiso   1.00
C66    C     0.21060   0.19810   0.16170   0.00000  Uiso   1.00
C67    C     0.38328   0.10501   0.21030   0.00000  Uiso   1.00
C68    C     0.40064   0.02110   0.22597   0.00000  Uiso   1.00
C69    C     0.42848   0.00643   0.29705   0.00000  Uiso   1.00
H70    H     0.37860   0.31067   0.27622   0.00000  Uiso   1.00
H71    H     0.43007   0.40091   0.18420   0.00000  Uiso   1.00
H72    H     0.27951   0.34065   0.28328   0.00000  Uiso   1.00
H73    H     0.42900   0.20916   0.37613   0.00000  Uiso   1.00
H74    H     0.48268   0.47146   0.05862   0.00000  Uiso   1.00
H75    H     0.16521   0.34439   0.26754   0.00000  Uiso   1.00
H76    H     0.48042   0.06711   0.46334   0.00000  Uiso   1.00
H77    H     0.34430   0.08333   0.09467   0.00000  Uiso   1.00
H78    H     0.39390   0.16109   0.99269   0.00000  Uiso   1.00
H79    H     0.24333   0.10084   0.09176   0.00000  Uiso   1.00
H80    H     0.39282   0.96934   0.18461   0.00000  Uiso   1.00
H81    H     0.45332   0.27682   0.90317   0.00000  Uiso   1.00
H82    H     0.13584   0.14975   0.11211   0.00000  Uiso   1.00
H83    H     0.45106   0.87247   0.30790   0.00000  Uiso   1.00
O84    O     0.50123   0.42941   0.91707   0.00000  Uiso   1.00
O85    O     0.08472   0.26269   0.19119   0.00000  Uiso   1.00
O86    O     0.49828   0.89891   0.44807   0.00000  Uiso   1.00
N87    N     0.46897   0.41497   0.03603   0.00000  Uiso   1.00
N88    N     0.17215   0.29618   0.23136   0.00000  Uiso   1.00
N89    N     0.46684   0.03694   0.41442   0.00000  Uiso   1.00
N90    N     0.45317   0.31024   0.95239   0.00000  Uiso   1.00
N91    N     0.15636   0.19144   0.14772   0.00000  Uiso   1.00
N92    N     0.45104   0.93221   0.33078   0.00000  Uiso   1.00
C93    C     0.12926   0.75859   0.26538   0.00000  Uiso   1.00
C94    C     0.10604   0.77608   0.34054   0.00000  Uiso   1.00
C95    C     0.07772   0.84914   0.35716   0.00000  Uiso   1.00
C96    C     0.05984   0.85295   0.42918   0.00000  Uiso   1.00
C97    C     0.02227   0.89031   0.53778   0.00000  Uiso   1.00
C98    C     0.18785   0.74335   0.28672   0.00000  Uiso   1.00
C99    C     0.22831   0.78889   0.25807   0.00000  Uiso   1.00
C100   C     0.27929   0.76513   0.28477   0.00000  Uiso   1.00
C101   C     0.36873   0.75164   0.30977   0.00000  Uiso   1.00
C102   C     0.10662   0.67191   0.23627   0.00000  Uiso   1.00
C103   C     0.07881   0.65737   0.16520   0.00000  Uiso   1.00
C104   C     0.06141   0.57346   0.14943   0.00000  Uiso   1.00
C105   C     0.02474   0.44905   0.09610   0.00000  Uiso   1.00
C106   C     0.14784   0.63541   0.36374   0.00000  Uiso   1.00
C107   C     0.11614   0.70918   0.39397   0.00000  Uiso   1.00
C108   C     0.09828   0.71287   0.46598   0.00000  Uiso   1.00
C109   C     0.06994   0.78592   0.48270   0.00000  Uiso   1.00
C110   C     0.19794   0.67645   0.34014   0.00000  Uiso   1.00
C111   C     0.24887   0.65261   0.36689   0.00000  Uiso   1.00
C112   C     0.28940   0.69810   0.33830   0.00000  Uiso   1.00
C113   C     0.11672   0.60501   0.28970   0.00000  Uiso   1.00
C114   C     0.09936   0.52110   0.27403   0.00000  Uiso   1.00
C115   C     0.07152   0.50643   0.20295   0.00000  Uiso   1.00
H116   H     0.12140   0.81067   0.22378   0.00000  Uiso   1.00
H117   H     0.06993   0.90091   0.31580   0.00000  Uiso   1.00
H118   H     0.22049   0.84065   0.21672   0.00000  Uiso   1.00
H119   H     0.07100   0.70916   0.12387   0.00000  Uiso   1.00
H120   H     0.01732   0.97146   0.44138   0.00000  Uiso   1.00
H121   H     0.33479   0.84439   0.23246   0.00000  Uiso   1.00
H122   H     0.01958   0.56711   0.03666   0.00000  Uiso   1.00
H123   H     0.15570   0.58333   0.40533   0.00000  Uiso   1.00
H124   H     0.10610   0.66109   0.50731   0.00000  Uiso   1.00
H125   H     0.25667   0.60084   0.40824   0.00000  Uiso   1.00
H126   H     0.10718   0.46934   0.31539   0.00000  Uiso   1.00
H127   H     0.04668   0.77682   0.59683   0.00000  Uiso   1.00
H128   H     0.36416   0.64975   0.38789   0.00000  Uiso   1.00
H129   H     0.04894   0.37247   0.19210   0.00000  Uiso   1.00
O130   O     0.99877   0.92941   0.58293   0.00000  Uiso   1.00
O131   O     0.41528   0.76269   0.30881   0.00000  Uiso   1.00
O132   O     0.00172   0.39891   0.05193   0.00000  Uiso   1.00
N133   N     0.03103   0.91497   0.46397   0.00000  Uiso   1.00
N134   N     0.32785   0.79618   0.26864   0.00000  Uiso   1.00
N135   N     0.03316   0.53694   0.08558   0.00000  Uiso   1.00
N136   N     0.04683   0.81024   0.54761   0.00000  Uiso   1.00
N137   N     0.34364   0.69144   0.35228   0.00000  Uiso   1.00
N138   N     0.04896   0.43221   0.16922   0.00000  Uiso   1.00
C139   C     0.62926   0.25859   0.26538   0.00000  Uiso   1.00
C140   C     0.60604   0.27608   0.34054   0.00000  Uiso   1.00
C141   C     0.57772   0.34914   0.35716   0.00000  Uiso   1.00
C142   C     0.55984   0.35295   0.42918   0.00000  Uiso   1.00
C143   C     0.52227   0.39031   0.53778   0.00000  Uiso   1.00
C144   C     0.68785   0.24335   0.28672   0.00000  Uiso   1.00
C145   C     0.72831   0.28889   0.25807   0.00000  Uiso   1.00
C146   C     0.77929   0.26513   0.28477   0.00000  Uiso   1.00
C147   C     0.86873   0.25164   0.30977   0.00000  Uiso   1.00
C148   C     0.60662   0.17191   0.23627   0.00000  Uiso   1.00
C149   C     0.57881   0.15737   0.16520   0.00000  Uiso   1.00
C150   C     0.56141   0.07346   0.14943   0.00000  Uiso   1.00
C151   C     0.52474   0.94905   0.09610   0.00000  Uiso   1.00
C152   C     0.64784   0.13541   0.36374   0.00000  Uiso   1.00
C153   C     0.61614   0.20918   0.39397   0.00000  Uiso   1.00
C154   C     0.59828   0.21287   0.46598   0.00000  Uiso   1.00
C155   C     0.56994   0.28592   0.48270   0.00000  Uiso   1.00
C156   C     0.69794   0.17645   0.34014   0.00000  Uiso   1.00
C157   C     0.74887   0.15261   0.36689   0.00000  Uiso   1.00
C158   C     0.78940   0.19810   0.33830   0.00000  Uiso   1.00
C159   C     0.61672   0.10501   0.28970   0.00000  Uiso   1.00
C160   C     0.59936   0.02110   0.27403   0.00000  Uiso   1.00
C161   C     0.57152   0.00643   0.20295   0.00000  Uiso   1.00
H162   H     0.62140   0.31067   0.22378   0.00000  Uiso   1.00
H163   H     0.56993   0.40091   0.31580   0.00000  Uiso   1.00
H164   H     0.72049   0.34065   0.21672   0.00000  Uiso   1.00
H165   H     0.57100   0.20916   0.12387   0.00000  Uiso   1.00
H166   H     0.51732   0.47146   0.44138   0.00000  Uiso   1.00
H167   H     0.83479   0.34439   0.23246   0.00000  Uiso   1.00
H168   H     0.51958   0.06711   0.03666   0.00000  Uiso   1.00
H169   H     0.65570   0.08333   0.40533   0.00000  Uiso   1.00
H170   H     0.60610   0.16109   0.50731   0.00000  Uiso   1.00
H171   H     0.75667   0.10084   0.40824   0.00000  Uiso   1.00
H172   H     0.60718   0.96934   0.31539   0.00000  Uiso   1.00
H173   H     0.54668   0.27682   0.59683   0.00000  Uiso   1.00
H174   H     0.86416   0.14975   0.38789   0.00000  Uiso   1.00
H175   H     0.54894   0.87247   0.19210   0.00000  Uiso   1.00
O176   O     0.49877   0.42941   0.58293   0.00000  Uiso   1.00
O177   O     0.91528   0.26269   0.30881   0.00000  Uiso   1.00
O178   O     0.50172   0.89891   0.05193   0.00000  Uiso   1.00
N179   N     0.53103   0.41497   0.46397   0.00000  Uiso   1.00
N180   N     0.82785   0.29618   0.26864   0.00000  Uiso   1.00
N181   N     0.53316   0.03694   0.08558   0.00000  Uiso   1.00
N182   N     0.54683   0.31024   0.54761   0.00000  Uiso   1.00
N183   N     0.84364   0.19144   0.35228   0.00000  Uiso   1.00
N184   N     0.54896   0.93221   0.16922   0.00000  Uiso   1.00
C185   C     0.12926   0.24141   0.76538   0.00000  Uiso   1.00
C186   C     0.10604   0.22392   0.84054   0.00000  Uiso   1.00
C187   C     0.07772   0.15086   0.85716   0.00000  Uiso   1.00
C188   C     0.05984   0.14705   0.92918   0.00000  Uiso   1.00
C189   C     0.02227   0.10969   0.03778   0.00000  Uiso   1.00
C190   C     0.18785   0.25665   0.78672   0.00000  Uiso   1.00
C191   C     0.22831   0.21111   0.75807   0.00000  Uiso   1.00
C192   C     0.27929   0.23487   0.78477   0.00000  Uiso   1.00
C193   C     0.36873   0.24836   0.80977   0.00000  Uiso   1.00
C194   C     0.10662   0.32809   0.73627   0.00000  Uiso   1.00
C195   C     0.07881   0.34263   0.66520   0.00000  Uiso   1.00
C196   C     0.06141   0.42654   0.64943   0.00000  Uiso   1.00
C197   C     0.02474   0.55095   0.59610   0.00000  Uiso   1.00
C198   C     0.14784   0.36459   0.86374   0.00000  Uiso   1.00
C199   C     0.11614   0.29082   0.89397   0.00000  Uiso   1.00
C200   C     0.09828   0.28713   0.96598   0.00000  Uiso   1.00
C201   C     0.06994   0.21408   0.98270   0.00000  Uiso   1.00
C202   C     0.19794   0.32355   0.84014   0.00000  Uiso   1.00
C203   C     0.24887   0.34739   0.86689   0.00000  Uiso   1.00
C204   C     0.28940   0.30190   0.83830   0.00000  Uiso   1.00
C205   C     0.11672   0.39499   0.78970   0.00000  Uiso   1.00
C206   C     0.09936   0.47890   0.77403   0.00000  Uiso   1.00
C207   C     0.07152   0.49357   0.70295   0.00000  Uiso   1.00
H208   H     0.12140   0.18933   0.72378   0.00000  Uiso   1.00
H209   H     0.06993   0.09909   0.81580   0.00000  Uiso   1.00
H210   H     0.22049   0.15935   0.71672   0.00000  Uiso   1.00
H211   H     0.07100   0.29084   0.62387   0.00000  Uiso   1.00
H212   H     0.01732   0.02854   0.94138   0.00000  Uiso   1.00
H213   H     0.33479   0.15561   0.73246   0.00000  Uiso   1.00
H214   H     0.01958   0.43289   0.53666   0.00000  Uiso   1.00
H215   H     0.15570   0.41667   0.90533   0.00000  Uiso   1.00
H216   H     0.10610   0.33891   0.00731   0.00000  Uiso   1.00
H217   H     0.25667   0.39916   0.90824   0.00000  Uiso   1.00
H218   H     0.10718   0.53066   0.81539   0.00000  Uiso   1.00
H219   H     0.04668   0.22318   0.09683   0.00000  Uiso   1.00
H220   H     0.36416   0.35025   0.88789   0.00000  Uiso   1.00
H221   H     0.04894   0.62753   0.69210   0.00000  Uiso   1.00
O222   O     0.99877   0.07059   0.08293   0.00000  Uiso   1.00
O223   O     0.41528   0.23731   0.80881   0.00000  Uiso   1.00
O224   O     0.00172   0.60109   0.55193   0.00000  Uiso   1.00
N225   N     0.03103   0.08503   0.96397   0.00000  Uiso   1.00
N226   N     0.32785   0.20382   0.76864   0.00000  Uiso   1.00
N227   N     0.03316   0.46306   0.58558   0.00000  Uiso   1.00
N228   N     0.04683   0.18976   0.04761   0.00000  Uiso   1.00
N229   N     0.34364   0.30856   0.85228   0.00000  Uiso   1.00
N230   N     0.04896   0.56779   0.66922   0.00000  Uiso   1.00
C231   C     0.62926   0.74141   0.76538   0.00000  Uiso   1.00
C232   C     0.60604   0.72392   0.84054   0.00000  Uiso   1.00
C233   C     0.57772   0.65086   0.85716   0.00000  Uiso   1.00
C234   C     0.55984   0.64705   0.92918   0.00000  Uiso   1.00
C235   C     0.52227   0.60969   0.03778   0.00000  Uiso   1.00
C236   C     0.68785   0.75665   0.78672   0.00000  Uiso   1.00
C237   C     0.72831   0.71111   0.75807   0.00000  Uiso   1.00
C238   C     0.77929   0.73487   0.78477   0.00000  Uiso   1.00
C239   C     0.86873   0.74836   0.80977   0.00000  Uiso   1.00
C240   C     0.60662   0.82809   0.73627   0.00000  Uiso   1.00
C241   C     0.57881   0.84263   0.66520   0.00000  Uiso   1.00
C242   C     0.56141   0.92654   0.64943   0.00000  Uiso   1.00
C243   C     0.52474   0.05095   0.59610   0.00000  Uiso   1.00
C244   C     0.64784   0.86459   0.86374   0.00000  Uiso   1.00
C245   C     0.61614   0.79082   0.89397   0.00000  Uiso   1.00
C246   C     0.59828   0.78713   0.96598   0.00000  Uiso   1.00
C247   C     0.56994   0.71408   0.98270   0.00000  Uiso   1.00
C248   C     0.69794   0.82355   0.84014   0.00000  Uiso   1.00
C249   C     0.74887   0.84739   0.86689   0.00000  Uiso   1.00
C250   C     0.78940   0.80190   0.83830   0.00000  Uiso   1.00
C251   C     0.61672   0.89499   0.78970   0.00000  Uiso   1.00
C252   C     0.59936   0.97890   0.77403   0.00000  Uiso   1.00
C253   C     0.57152   0.99357   0.70295   0.00000  Uiso   1.00
H254   H     0.62140   0.68933   0.72378   0.00000  Uiso   1.00
H255   H     0.56993   0.59909   0.81580   0.00000  Uiso   1.00
H256   H     0.72049   0.65935   0.71672   0.00000  Uiso   1.00
H257   H     0.57100   0.79084   0.62387   0.00000  Uiso   1.00
H258   H     0.51732   0.52854   0.94138   0.00000  Uiso   1.00
H259   H     0.83479   0.65561   0.73246   0.00000  Uiso   1.00
H260   H     0.51958   0.93289   0.53666   0.00000  Uiso   1.00
H261   H     0.65570   0.91667   0.90533   0.00000  Uiso   1.00
H262   H     0.60610   0.83891   0.00731   0.00000  Uiso   1.00
H263   H     0.75667   0.89916   0.90824   0.00000  Uiso   1.00
H264   H     0.60718   0.03066   0.81539   0.00000  Uiso   1.00
H265   H     0.54668   0.72318   0.09683   0.00000  Uiso   1.00
H266   H     0.86416   0.85025   0.88789   0.00000  Uiso   1.00
H267   H     0.54894   0.12753   0.69210   0.00000  Uiso   1.00
O268   O     0.49877   0.57059   0.08293   0.00000  Uiso   1.00
O269   O     0.91528   0.73731   0.80881   0.00000  Uiso   1.00
O270   O     0.50172   0.10109   0.55193   0.00000  Uiso   1.00
N271   N     0.53103   0.58503   0.96397   0.00000  Uiso   1.00
N272   N     0.82785   0.70382   0.76864   0.00000  Uiso   1.00
N273   N     0.53316   0.96306   0.58558   0.00000  Uiso   1.00
N274   N     0.54683   0.68976   0.04761   0.00000  Uiso   1.00
N275   N     0.84364   0.80856   0.85228   0.00000  Uiso   1.00
N276   N     0.54896   0.06779   0.66922   0.00000  Uiso   1.00
C277   C     0.87074   0.24141   0.73462   0.00000  Uiso   1.00
C278   C     0.89396   0.22392   0.65946   0.00000  Uiso   1.00
C279   C     0.92228   0.15086   0.64284   0.00000  Uiso   1.00
C280   C     0.94016   0.14705   0.57082   0.00000  Uiso   1.00
C281   C     0.97773   0.10969   0.46222   0.00000  Uiso   1.00
C282   C     0.81215   0.25665   0.71328   0.00000  Uiso   1.00
C283   C     0.77169   0.21111   0.74193   0.00000  Uiso   1.00
C284   C     0.72071   0.23487   0.71523   0.00000  Uiso   1.00
C285   C     0.63127   0.24836   0.69023   0.00000  Uiso   1.00
C286   C     0.89338   0.32809   0.76373   0.00000  Uiso   1.00
C287   C     0.92119   0.34263   0.83480   0.00000  Uiso   1.00
C288   C     0.93859   0.42654   0.85057   0.00000  Uiso   1.00
C289   C     0.97526   0.55095   0.90390   0.00000  Uiso   1.00
C290   C     0.85216   0.36459   0.63626   0.00000  Uiso   1.00
C291   C     0.88386   0.29082   0.60603   0.00000  Uiso   1.00
C292   C     0.90172   0.28713   0.53402   0.00000  Uiso   1.00
C293   C     0.93006   0.21408   0.51730   0.00000  Uiso   1.00
C294   C     0.80206   0.32355   0.65986   0.00000  Uiso   1.00
C295   C     0.75113   0.34739   0.63311   0.00000  Uiso   1.00
C296   C     0.71060   0.30190   0.66170   0.00000  Uiso   1.00
C297   C     0.88328   0.39499   0.71030   0.00000  Uiso   1.00
C298   C     0.90064   0.47890   0.72597   0.00000  Uiso   1.00
C299   C     0.92848   0.49357   0.79705   0.00000  Uiso   1.00
H300   H     0.87860   0.18933   0.77622   0.00000  Uiso   1.00
H301   H     0.93007   0.09909   0.68420   0.00000  Uiso   1.00
H302   H     0.77951   0.15935   0.78328   0.00000  Uiso   1.00
H303   H     0.92900   0.29084   0.87613   0.00000  Uiso   1.00
H304   H     0.98268   0.02854   0.55862   0.00000  Uiso   1.00
H305   H     0.66521   0.15561   0.76754   0.00000  Uiso   1.00
H306   H     0.98042   0.43289   0.96334   0.00000  Uiso   1.00
H307   H     0.84430   0.41667   0.59467   0.00000  Uiso   1.00
H308   H     0.89390   0.33891   0.49269   0.00000  Uiso   1.00
H309   H     0.74333   0.39916   0.59176   0.00000  Uiso   1.00
H310   H     0.89282   0.53066   0.68461   0.00000  Uiso   1.00
H311   H     0.95332   0.22318   0.40317   0.00000  Uiso   1.00
H312   H     0.63584   0.35025   0.61211   0.00000  Uiso   1.00
H313   H     0.95106   0.62753   0.80790   0.00000  Uiso   1.00
O314   O     0.00123   0.07059   0.41707   0.00000  Uiso   1.00
O315   O     0.58472   0.23731   0.69119   0.00000  Uiso   1.00
O316   O     0.99828   0.60109   0.94807   0.00000  Uiso   1.00
N317   N     0.96897   0.08503   0.53603   0.00000  Uiso   1.00
N318   N     0.67215   0.20382   0.73136   0.00000  Uiso   1.00
N319   N     0.96684   0.46306   0.91442   0.00000  Uiso   1.00
N320   N     0.95317   0.18976   0.45239   0.00000  Uiso   1.00
N321   N     0.65636   0.30856   0.64772   0.00000  Uiso   1.00
N322   N     0.95104   0.56779   0.83078   0.00000  Uiso   1.00
C323   C     0.37074   0.74141   0.73462   0.00000  Uiso   1.00
C324   C     0.39396   0.72392   0.65946   0.00000  Uiso   1.00
C325   C     0.42228   0.65086   0.64284   0.00000  Uiso   1.00
C326   C     0.44016   0.64705   0.57082   0.00000  Uiso   1.00
C327   C     0.47773   0.60969   0.46222   0.00000  Uiso   1.00
C328   C     0.31215   0.75665   0.71328   0.00000  Uiso   1.00
C329   C     0.27169   0.71111   0.74193   0.00000  Uiso   1.00
C330   C     0.22071   0.73487   0.71523   0.00000  Uiso   1.00
C331   C     0.13127   0.74836   0.69023   0.00000  Uiso   1.00
C332   C     0.39338   0.82809   0.76373   0.00000  Uiso   1.00
C333   C     0.42119   0.84263   0.83480   0.00000  Uiso   1.00
C334   C     0.43859   0.92654   0.85057   0.00000  Uiso   1.00
C335   C     0.47526   0.05095   0.90390   0.00000  Uiso   1.00
C336   C     0.35216   0.86459   0.63626   0.00000  Uiso   1.00
C337   C     0.38386   0.79082   0.60603   0.00000  Uiso   1.00
C338   C     0.40172   0.78713   0.53402   0.00000  Uiso   1.00
C339   C     0.43006   0.71408   0.51730   0.00000  Uiso   1.00
C340   C     0.30206   0.82355   0.65986   0.00000  Uiso   1.00
C341   C     0.25113   0.84739   0.63311   0.00000  Uiso   1.00
C342   C     0.21060   0.80190   0.66170   0.00000  Uiso   1.00
C343   C     0.38328   0.89499   0.71030   0.00000  Uiso   1.00
C344   C     0.40064   0.97890   0.72597   0.00000  Uiso   1.00
C345   C     0.42848   0.99357   0.79705   0.00000  Uiso   1.00
H346   H     0.37860   0.68933   0.77622   0.00000  Uiso   1.00
H347   H     0.43007   0.59909   0.68420   0.00000  Uiso   1.00
H348   H     0.27951   0.65935   0.78328   0.00000  Uiso   1.00
H349   H     0.42900   0.79084   0.87613   0.00000  Uiso   1.00
H350   H     0.48268   0.52854   0.55862   0.00000  Uiso   1.00
H351   H     0.16521   0.65561   0.76754   0.00000  Uiso   1.00
H352   H     0.48042   0.93289   0.96334   0.00000  Uiso   1.00
H353   H     0.34430   0.91667   0.59467   0.00000  Uiso   1.00
H354   H     0.39390   0.83891   0.49269   0.00000  Uiso   1.00
H355   H     0.24333   0.89916   0.59176   0.00000  Uiso   1.00
H356   H     0.39282   0.03066   0.68461   0.00000  Uiso   1.00
H357   H     0.45332   0.72318   0.40317   0.00000  Uiso   1.00
H358   H     0.13584   0.85025   0.61211   0.00000  Uiso   1.00
H359   H     0.45106   0.12753   0.80790   0.00000  Uiso   1.00
O360   O     0.50123   0.57059   0.41707   0.00000  Uiso   1.00
O361   O     0.08472   0.73731   0.69119   0.00000  Uiso   1.00
O362   O     0.49828   0.10109   0.94807   0.00000  Uiso   1.00
N363   N     0.46897   0.58503   0.53603   0.00000  Uiso   1.00
N364   N     0.17215   0.70382   0.73136   0.00000  Uiso   1.00
N365   N     0.46684   0.96306   0.91442   0.00000  Uiso   1.00
N366   N     0.45317   0.68976   0.45239   0.00000  Uiso   1.00
N367   N     0.15636   0.80856   0.64772   0.00000  Uiso   1.00
N368   N     0.45104   0.06779   0.83078   0.00000  Uiso   1.00
