data_job_04791
_audit_creation_date              2018-12-19
_audit_creation_method            'Materials Studio'
_symmetry_space_group_name_H-M    'P1'
_symmetry_Int_Tables_number       1
_symmetry_cell_setting            triclinic
loop_
_symmetry_equiv_pos_as_xyz
  x,y,z
_cell_length_a                    27.7629
_cell_length_b                    13.6817
_cell_length_c                    12.5223
_cell_angle_alpha                 90.0000
_cell_angle_beta                  90.0000
_cell_angle_gamma                 90.0000
loop_
_atom_site_label
_atom_site_type_symbol
_atom_site_fract_x
_atom_site_fract_y
_atom_site_fract_z
_atom_site_U_iso_or_equiv
_atom_site_adp_type
_atom_site_occupancy
C1     C     0.84143   0.55642   0.16460   0.00000  Uiso   1.00
C2     C     0.86686   0.48930   0.24381   0.00000  Uiso   1.00
C3     C     0.84693   0.45179   0.33682   0.00000  Uiso   1.00
C4     C     0.87608   0.39176   0.39857   0.00000  Uiso   1.00
C5     C     0.90836   0.29088   0.52620   0.00000  Uiso   1.00
C6     C     0.87291   0.64735   0.15520   0.00000  Uiso   1.00
C7     C     0.85807   0.74273   0.17369   0.00000  Uiso   1.00
C8     C     0.89232   0.81573   0.16082   0.00000  Uiso   1.00
C9     C     0.93399   0.96024   0.15080   0.00000  Uiso   1.00
C10    C     0.84430   0.50526   0.05660   0.00000  Uiso   1.00
C11    C     0.80539   0.48118   0.99217   0.00000  Uiso   1.00
C12    C     0.81555   0.43457   0.89628   0.00000  Uiso   1.00
C13    C     0.81278   0.35845   0.73318   0.00000  Uiso   1.00
C14    C     0.92864   0.51650   0.10887   0.00000  Uiso   1.00
C15    C     0.91423   0.46762   0.21354   0.00000  Uiso   1.00
C16    C     0.94342   0.40762   0.27516   0.00000  Uiso   1.00
C17    C     0.92354   0.37003   0.36824   0.00000  Uiso   1.00
C18    C     0.92028   0.62567   0.12493   0.00000  Uiso   1.00
C19    C     0.95456   0.69855   0.11203   0.00000  Uiso   1.00
C20    C     0.93977   0.79401   0.13050   0.00000  Uiso   1.00
C21    C     0.89166   0.48357   0.02633   0.00000  Uiso   1.00
C22    C     0.90188   0.43700   0.93052   0.00000  Uiso   1.00
C23    C     0.86300   0.41285   0.86596   0.00000  Uiso   1.00
H24    H     0.80456   0.57331   0.18817   0.00000  Uiso   1.00
H25    H     0.81027   0.46860   0.36022   0.00000  Uiso   1.00
H26    H     0.82141   0.75948   0.19710   0.00000  Uiso   1.00
H27    H     0.76874   0.49797   0.01562   0.00000  Uiso   1.00
H28    H     0.83751   0.34298   0.53765   0.00000  Uiso   1.00
H29    H     0.86098   0.95632   0.19367   0.00000  Uiso   1.00
H30    H     0.74992   0.40488   0.81098   0.00000  Uiso   1.00
H31    H     0.96553   0.49962   0.08530   0.00000  Uiso   1.00
H32    H     0.98007   0.39086   0.25172   0.00000  Uiso   1.00
H33    H     0.99121   0.68175   0.08860   0.00000  Uiso   1.00
H34    H     0.93854   0.42023   0.90712   0.00000  Uiso   1.00
H35    H     0.97532   0.27988   0.44959   0.00000  Uiso   1.00
H36    H     0.99880   0.89324   0.10560   0.00000  Uiso   1.00
H37    H     0.88774   0.34178   0.72291   0.00000  Uiso   1.00
O38    O     0.91309   0.24124   0.60496   0.00000  Uiso   1.00
O39    O     0.94388   0.04593   0.15365   0.00000  Uiso   1.00
O40    O     0.79818   0.32244   0.65158   0.00000  Uiso   1.00
N41    N     0.86794   0.34304   0.49407   0.00000  Uiso   1.00
N42    N     0.88989   0.91648   0.17249   0.00000  Uiso   1.00
N43    N     0.78606   0.40095   0.81469   0.00000  Uiso   1.00
N44    N     0.94210   0.30908   0.44669   0.00000  Uiso   1.00
N45    N     0.96405   0.88253   0.12510   0.00000  Uiso   1.00
N46    N     0.86022   0.36699   0.76730   0.00000  Uiso   1.00
C47    C     0.34207   0.05436   0.00628   0.00000  Uiso   1.00
C48    C     0.36786   0.98744   0.08511   0.00000  Uiso   1.00
C49    C     0.34823   0.94948   0.17820   0.00000  Uiso   1.00
C50    C     0.37769   0.88972   0.23955   0.00000  Uiso   1.00
C51    C     0.41054   0.78905   0.36665   0.00000  Uiso   1.00
C52    C     0.37322   0.14574   0.99681   0.00000  Uiso   1.00
C53    C     0.35809   0.24087   0.01565   0.00000  Uiso   1.00
C54    C     0.39207   0.31437   0.00265   0.00000  Uiso   1.00
C55    C     0.43324   0.45946   0.99259   0.00000  Uiso   1.00
C56    C     0.34490   0.00344   0.89814   0.00000  Uiso   1.00
C57    C     0.30596   0.97895   0.83400   0.00000  Uiso   1.00
C58    C     0.31610   0.93268   0.73791   0.00000  Uiso   1.00
C59    C     0.31329   0.85683   0.57465   0.00000  Uiso   1.00
C60    C     0.42930   0.01574   0.94967   0.00000  Uiso   1.00
C61    C     0.41524   0.96647   0.05436   0.00000  Uiso   1.00
C62    C     0.44475   0.90675   0.11558   0.00000  Uiso   1.00
C63    C     0.42516   0.86871   0.20875   0.00000  Uiso   1.00
C64    C     0.42061   0.12477   0.96606   0.00000  Uiso   1.00
C65    C     0.45461   0.19815   0.95302   0.00000  Uiso   1.00
C66    C     0.43954   0.29336   0.97185   0.00000  Uiso   1.00
C67    C     0.39228   0.98247   0.86739   0.00000  Uiso   1.00
C68    C     0.40248   0.93623   0.77138   0.00000  Uiso   1.00
C69    C     0.36357   0.91167   0.70711   0.00000  Uiso   1.00
H70    H     0.30518   0.07069   0.03021   0.00000  Uiso   1.00
H71    H     0.31156   0.96573   0.20197   0.00000  Uiso   1.00
H72    H     0.32142   0.25708   0.03943   0.00000  Uiso   1.00
H73    H     0.26930   0.99520   0.85782   0.00000  Uiso   1.00
H74    H     0.33953   0.84014   0.37886   0.00000  Uiso   1.00
H75    H     0.36033   0.45447   0.03610   0.00000  Uiso   1.00
H76    H     0.25041   0.90224   0.65312   0.00000  Uiso   1.00
H77    H     0.46620   0.99942   0.92573   0.00000  Uiso   1.00
H78    H     0.48141   0.89054   0.09176   0.00000  Uiso   1.00
H79    H     0.49128   0.18189   0.92923   0.00000  Uiso   1.00
H80    H     0.43915   0.92001   0.74761   0.00000  Uiso   1.00
H81    H     0.47740   0.77912   0.28941   0.00000  Uiso   1.00
H82    H     0.49819   0.39344   0.94665   0.00000  Uiso   1.00
H83    H     0.38828   0.84122   0.56368   0.00000  Uiso   1.00
O84    O     0.41557   0.73932   0.44526   0.00000  Uiso   1.00
O85    O     0.44286   0.54529   0.99555   0.00000  Uiso   1.00
O86    O     0.29865   0.82078   0.49310   0.00000  Uiso   1.00
N87    N     0.36989   0.84071   0.33501   0.00000  Uiso   1.00
N88    N     0.38934   0.41506   0.01457   0.00000  Uiso   1.00
N89    N     0.28657   0.89880   0.65650   0.00000  Uiso   1.00
N90    N     0.44407   0.80787   0.28688   0.00000  Uiso   1.00
N91    N     0.46352   0.38222   0.96644   0.00000  Uiso   1.00
N92    N     0.36076   0.86596   0.60837   0.00000  Uiso   1.00
C93    C     0.15857   0.44358   0.16460   0.00000  Uiso   1.00
C94    C     0.13314   0.51070   0.24381   0.00000  Uiso   1.00
C95    C     0.15307   0.54821   0.33682   0.00000  Uiso   1.00
C96    C     0.12392   0.60824   0.39857   0.00000  Uiso   1.00
C97    C     0.09164   0.70912   0.52620   0.00000  Uiso   1.00
C98    C     0.12709   0.35265   0.15520   0.00000  Uiso   1.00
C99    C     0.14193   0.25727   0.17369   0.00000  Uiso   1.00
C100   C     0.10768   0.18427   0.16082   0.00000  Uiso   1.00
C101   C     0.06601   0.03976   0.15080   0.00000  Uiso   1.00
C102   C     0.15570   0.49474   0.05660   0.00000  Uiso   1.00
C103   C     0.19461   0.51882   0.99217   0.00000  Uiso   1.00
C104   C     0.18445   0.56543   0.89628   0.00000  Uiso   1.00
C105   C     0.18722   0.64155   0.73318   0.00000  Uiso   1.00
C106   C     0.07136   0.48350   0.10887   0.00000  Uiso   1.00
C107   C     0.08577   0.53238   0.21354   0.00000  Uiso   1.00
C108   C     0.05658   0.59238   0.27516   0.00000  Uiso   1.00
C109   C     0.07646   0.62997   0.36824   0.00000  Uiso   1.00
C110   C     0.07972   0.37433   0.12493   0.00000  Uiso   1.00
C111   C     0.04544   0.30145   0.11203   0.00000  Uiso   1.00
C112   C     0.06023   0.20599   0.13050   0.00000  Uiso   1.00
C113   C     0.10834   0.51643   0.02633   0.00000  Uiso   1.00
C114   C     0.09812   0.56300   0.93052   0.00000  Uiso   1.00
C115   C     0.13700   0.58715   0.86596   0.00000  Uiso   1.00
H116   H     0.19544   0.42669   0.18817   0.00000  Uiso   1.00
H117   H     0.18973   0.53140   0.36022   0.00000  Uiso   1.00
H118   H     0.17859   0.24052   0.19710   0.00000  Uiso   1.00
H119   H     0.23126   0.50203   0.01562   0.00000  Uiso   1.00
H120   H     0.16249   0.65702   0.53765   0.00000  Uiso   1.00
H121   H     0.13902   0.04368   0.19367   0.00000  Uiso   1.00
H122   H     0.25008   0.59512   0.81098   0.00000  Uiso   1.00
H123   H     0.03447   0.50038   0.08530   0.00000  Uiso   1.00
H124   H     0.01993   0.60914   0.25172   0.00000  Uiso   1.00
H125   H     0.00879   0.31825   0.08860   0.00000  Uiso   1.00
H126   H     0.06146   0.57977   0.90712   0.00000  Uiso   1.00
H127   H     0.02468   0.72012   0.44959   0.00000  Uiso   1.00
H128   H     0.00120   0.10676   0.10560   0.00000  Uiso   1.00
H129   H     0.11226   0.65822   0.72291   0.00000  Uiso   1.00
O130   O     0.08691   0.75876   0.60496   0.00000  Uiso   1.00
O131   O     0.05612   0.95407   0.15365   0.00000  Uiso   1.00
O132   O     0.20182   0.67756   0.65158   0.00000  Uiso   1.00
N133   N     0.13206   0.65696   0.49407   0.00000  Uiso   1.00
N134   N     0.11011   0.08352   0.17249   0.00000  Uiso   1.00
N135   N     0.21394   0.59905   0.81469   0.00000  Uiso   1.00
N136   N     0.05790   0.69092   0.44669   0.00000  Uiso   1.00
N137   N     0.03595   0.11747   0.12510   0.00000  Uiso   1.00
N138   N     0.13978   0.63301   0.76730   0.00000  Uiso   1.00
C139   C     0.65793   0.94564   0.00628   0.00000  Uiso   1.00
C140   C     0.63214   0.01256   0.08511   0.00000  Uiso   1.00
C141   C     0.65177   0.05052   0.17820   0.00000  Uiso   1.00
C142   C     0.62231   0.11028   0.23955   0.00000  Uiso   1.00
C143   C     0.58946   0.21095   0.36665   0.00000  Uiso   1.00
C144   C     0.62678   0.85426   0.99681   0.00000  Uiso   1.00
C145   C     0.64191   0.75913   0.01565   0.00000  Uiso   1.00
C146   C     0.60793   0.68563   0.00265   0.00000  Uiso   1.00
C147   C     0.56676   0.54054   0.99259   0.00000  Uiso   1.00
C148   C     0.65510   0.99656   0.89814   0.00000  Uiso   1.00
C149   C     0.69404   0.02105   0.83400   0.00000  Uiso   1.00
C150   C     0.68390   0.06732   0.73791   0.00000  Uiso   1.00
C151   C     0.68671   0.14317   0.57465   0.00000  Uiso   1.00
C152   C     0.57070   0.98426   0.94967   0.00000  Uiso   1.00
C153   C     0.58476   0.03353   0.05436   0.00000  Uiso   1.00
C154   C     0.55525   0.09325   0.11558   0.00000  Uiso   1.00
C155   C     0.57484   0.13129   0.20875   0.00000  Uiso   1.00
C156   C     0.57939   0.87523   0.96606   0.00000  Uiso   1.00
C157   C     0.54539   0.80185   0.95302   0.00000  Uiso   1.00
C158   C     0.56046   0.70664   0.97185   0.00000  Uiso   1.00
C159   C     0.60772   0.01753   0.86739   0.00000  Uiso   1.00
C160   C     0.59752   0.06377   0.77138   0.00000  Uiso   1.00
C161   C     0.63643   0.08833   0.70711   0.00000  Uiso   1.00
H162   H     0.69482   0.92931   0.03021   0.00000  Uiso   1.00
H163   H     0.68844   0.03427   0.20197   0.00000  Uiso   1.00
H164   H     0.67858   0.74292   0.03943   0.00000  Uiso   1.00
H165   H     0.73070   0.00480   0.85782   0.00000  Uiso   1.00
H166   H     0.66047   0.15986   0.37886   0.00000  Uiso   1.00
H167   H     0.63967   0.54553   0.03610   0.00000  Uiso   1.00
H168   H     0.74959   0.09776   0.65312   0.00000  Uiso   1.00
H169   H     0.53380   0.00058   0.92573   0.00000  Uiso   1.00
H170   H     0.51859   0.10946   0.09176   0.00000  Uiso   1.00
H171   H     0.50872   0.81811   0.92923   0.00000  Uiso   1.00
H172   H     0.56085   0.07999   0.74761   0.00000  Uiso   1.00
H173   H     0.52260   0.22088   0.28941   0.00000  Uiso   1.00
H174   H     0.50181   0.60656   0.94665   0.00000  Uiso   1.00
H175   H     0.61172   0.15878   0.56368   0.00000  Uiso   1.00
O176   O     0.58443   0.26068   0.44526   0.00000  Uiso   1.00
O177   O     0.55714   0.45471   0.99555   0.00000  Uiso   1.00
O178   O     0.70135   0.17922   0.49310   0.00000  Uiso   1.00
N179   N     0.63011   0.15929   0.33501   0.00000  Uiso   1.00
N180   N     0.61066   0.58494   0.01457   0.00000  Uiso   1.00
N181   N     0.71343   0.10120   0.65650   0.00000  Uiso   1.00
N182   N     0.55593   0.19213   0.28688   0.00000  Uiso   1.00
N183   N     0.53648   0.61778   0.96644   0.00000  Uiso   1.00
N184   N     0.63924   0.13404   0.60837   0.00000  Uiso   1.00
C185   C     0.84143   0.94358   0.66460   0.00000  Uiso   1.00
C186   C     0.86686   0.01070   0.74381   0.00000  Uiso   1.00
C187   C     0.84693   0.04821   0.83682   0.00000  Uiso   1.00
C188   C     0.87608   0.10824   0.89857   0.00000  Uiso   1.00
C189   C     0.90836   0.20912   0.02620   0.00000  Uiso   1.00
C190   C     0.87291   0.85265   0.65520   0.00000  Uiso   1.00
C191   C     0.85807   0.75727   0.67369   0.00000  Uiso   1.00
C192   C     0.89232   0.68427   0.66082   0.00000  Uiso   1.00
C193   C     0.93399   0.53976   0.65080   0.00000  Uiso   1.00
C194   C     0.84430   0.99474   0.55660   0.00000  Uiso   1.00
C195   C     0.80539   0.01882   0.49217   0.00000  Uiso   1.00
C196   C     0.81555   0.06543   0.39628   0.00000  Uiso   1.00
C197   C     0.81278   0.14155   0.23318   0.00000  Uiso   1.00
C198   C     0.92864   0.98350   0.60887   0.00000  Uiso   1.00
C199   C     0.91423   0.03238   0.71354   0.00000  Uiso   1.00
C200   C     0.94342   0.09238   0.77516   0.00000  Uiso   1.00
C201   C     0.92354   0.12997   0.86824   0.00000  Uiso   1.00
C202   C     0.92028   0.87433   0.62493   0.00000  Uiso   1.00
C203   C     0.95456   0.80145   0.61203   0.00000  Uiso   1.00
C204   C     0.93977   0.70599   0.63050   0.00000  Uiso   1.00
C205   C     0.89166   0.01643   0.52633   0.00000  Uiso   1.00
C206   C     0.90188   0.06300   0.43052   0.00000  Uiso   1.00
C207   C     0.86300   0.08715   0.36596   0.00000  Uiso   1.00
H208   H     0.80456   0.92669   0.68817   0.00000  Uiso   1.00
H209   H     0.81027   0.03140   0.86022   0.00000  Uiso   1.00
H210   H     0.82141   0.74052   0.69710   0.00000  Uiso   1.00
H211   H     0.76874   0.00203   0.51562   0.00000  Uiso   1.00
H212   H     0.83751   0.15702   0.03765   0.00000  Uiso   1.00
H213   H     0.86098   0.54368   0.69367   0.00000  Uiso   1.00
H214   H     0.74992   0.09512   0.31098   0.00000  Uiso   1.00
H215   H     0.96553   0.00038   0.58530   0.00000  Uiso   1.00
H216   H     0.98007   0.10914   0.75172   0.00000  Uiso   1.00
H217   H     0.99121   0.81825   0.58860   0.00000  Uiso   1.00
H218   H     0.93854   0.07977   0.40712   0.00000  Uiso   1.00
H219   H     0.97532   0.22012   0.94959   0.00000  Uiso   1.00
H220   H     0.99880   0.60676   0.60560   0.00000  Uiso   1.00
H221   H     0.88774   0.15822   0.22291   0.00000  Uiso   1.00
O222   O     0.91309   0.25876   0.10496   0.00000  Uiso   1.00
O223   O     0.94388   0.45407   0.65365   0.00000  Uiso   1.00
O224   O     0.79818   0.17756   0.15158   0.00000  Uiso   1.00
N225   N     0.86794   0.15696   0.99407   0.00000  Uiso   1.00
N226   N     0.88989   0.58352   0.67249   0.00000  Uiso   1.00
N227   N     0.78606   0.09905   0.31469   0.00000  Uiso   1.00
N228   N     0.94210   0.19092   0.94669   0.00000  Uiso   1.00
N229   N     0.96405   0.61747   0.62510   0.00000  Uiso   1.00
N230   N     0.86022   0.13301   0.26730   0.00000  Uiso   1.00
C231   C     0.34207   0.44564   0.50628   0.00000  Uiso   1.00
C232   C     0.36786   0.51256   0.58511   0.00000  Uiso   1.00
C233   C     0.34823   0.55052   0.67820   0.00000  Uiso   1.00
C234   C     0.37769   0.61028   0.73955   0.00000  Uiso   1.00
C235   C     0.41054   0.71095   0.86665   0.00000  Uiso   1.00
C236   C     0.37322   0.35426   0.49681   0.00000  Uiso   1.00
C237   C     0.35809   0.25913   0.51565   0.00000  Uiso   1.00
C238   C     0.39207   0.18563   0.50265   0.00000  Uiso   1.00
C239   C     0.43324   0.04054   0.49259   0.00000  Uiso   1.00
C240   C     0.34490   0.49656   0.39814   0.00000  Uiso   1.00
C241   C     0.30596   0.52105   0.33400   0.00000  Uiso   1.00
C242   C     0.31610   0.56732   0.23791   0.00000  Uiso   1.00
C243   C     0.31329   0.64317   0.07465   0.00000  Uiso   1.00
C244   C     0.42930   0.48426   0.44967   0.00000  Uiso   1.00
C245   C     0.41524   0.53353   0.55436   0.00000  Uiso   1.00
C246   C     0.44475   0.59325   0.61558   0.00000  Uiso   1.00
C247   C     0.42516   0.63129   0.70875   0.00000  Uiso   1.00
C248   C     0.42061   0.37523   0.46606   0.00000  Uiso   1.00
C249   C     0.45461   0.30185   0.45302   0.00000  Uiso   1.00
C250   C     0.43954   0.20664   0.47185   0.00000  Uiso   1.00
C251   C     0.39228   0.51753   0.36739   0.00000  Uiso   1.00
C252   C     0.40248   0.56377   0.27138   0.00000  Uiso   1.00
C253   C     0.36357   0.58833   0.20711   0.00000  Uiso   1.00
H254   H     0.30518   0.42931   0.53021   0.00000  Uiso   1.00
H255   H     0.31156   0.53427   0.70197   0.00000  Uiso   1.00
H256   H     0.32142   0.24292   0.53943   0.00000  Uiso   1.00
H257   H     0.26930   0.50480   0.35782   0.00000  Uiso   1.00
H258   H     0.33953   0.65986   0.87886   0.00000  Uiso   1.00
H259   H     0.36033   0.04553   0.53610   0.00000  Uiso   1.00
H260   H     0.25041   0.59776   0.15312   0.00000  Uiso   1.00
H261   H     0.46620   0.50058   0.42573   0.00000  Uiso   1.00
H262   H     0.48141   0.60946   0.59176   0.00000  Uiso   1.00
H263   H     0.49128   0.31811   0.42923   0.00000  Uiso   1.00
H264   H     0.43915   0.57999   0.24761   0.00000  Uiso   1.00
H265   H     0.47740   0.72088   0.78941   0.00000  Uiso   1.00
H266   H     0.49819   0.10656   0.44665   0.00000  Uiso   1.00
H267   H     0.38828   0.65878   0.06368   0.00000  Uiso   1.00
O268   O     0.41557   0.76068   0.94526   0.00000  Uiso   1.00
O269   O     0.44286   0.95471   0.49555   0.00000  Uiso   1.00
O270   O     0.29865   0.67922   0.99310   0.00000  Uiso   1.00
N271   N     0.36989   0.65929   0.83501   0.00000  Uiso   1.00
N272   N     0.38934   0.08494   0.51457   0.00000  Uiso   1.00
N273   N     0.28657   0.60120   0.15650   0.00000  Uiso   1.00
N274   N     0.44407   0.69213   0.78688   0.00000  Uiso   1.00
N275   N     0.46352   0.11778   0.46644   0.00000  Uiso   1.00
N276   N     0.36076   0.63404   0.10837   0.00000  Uiso   1.00
C277   C     0.15857   0.05642   0.66460   0.00000  Uiso   1.00
C278   C     0.13314   0.98930   0.74381   0.00000  Uiso   1.00
C279   C     0.15307   0.95179   0.83682   0.00000  Uiso   1.00
C280   C     0.12392   0.89176   0.89857   0.00000  Uiso   1.00
C281   C     0.09164   0.79088   0.02620   0.00000  Uiso   1.00
C282   C     0.12709   0.14735   0.65520   0.00000  Uiso   1.00
C283   C     0.14193   0.24273   0.67369   0.00000  Uiso   1.00
C284   C     0.10768   0.31573   0.66082   0.00000  Uiso   1.00
C285   C     0.06601   0.46024   0.65080   0.00000  Uiso   1.00
C286   C     0.15570   0.00526   0.55660   0.00000  Uiso   1.00
C287   C     0.19461   0.98118   0.49217   0.00000  Uiso   1.00
C288   C     0.18445   0.93457   0.39628   0.00000  Uiso   1.00
C289   C     0.18722   0.85845   0.23318   0.00000  Uiso   1.00
C290   C     0.07136   0.01650   0.60887   0.00000  Uiso   1.00
C291   C     0.08577   0.96762   0.71354   0.00000  Uiso   1.00
C292   C     0.05658   0.90762   0.77516   0.00000  Uiso   1.00
C293   C     0.07646   0.87003   0.86824   0.00000  Uiso   1.00
C294   C     0.07972   0.12567   0.62493   0.00000  Uiso   1.00
C295   C     0.04544   0.19855   0.61203   0.00000  Uiso   1.00
C296   C     0.06023   0.29401   0.63050   0.00000  Uiso   1.00
C297   C     0.10834   0.98357   0.52633   0.00000  Uiso   1.00
C298   C     0.09812   0.93700   0.43052   0.00000  Uiso   1.00
C299   C     0.13700   0.91285   0.36596   0.00000  Uiso   1.00
H300   H     0.19544   0.07331   0.68817   0.00000  Uiso   1.00
H301   H     0.18973   0.96860   0.86022   0.00000  Uiso   1.00
H302   H     0.17859   0.25948   0.69710   0.00000  Uiso   1.00
H303   H     0.23126   0.99797   0.51562   0.00000  Uiso   1.00
H304   H     0.16249   0.84298   0.03765   0.00000  Uiso   1.00
H305   H     0.13902   0.45632   0.69367   0.00000  Uiso   1.00
H306   H     0.25008   0.90488   0.31098   0.00000  Uiso   1.00
H307   H     0.03447   0.99962   0.58530   0.00000  Uiso   1.00
H308   H     0.01993   0.89086   0.75172   0.00000  Uiso   1.00
H309   H     0.00879   0.18175   0.58860   0.00000  Uiso   1.00
H310   H     0.06146   0.92023   0.40712   0.00000  Uiso   1.00
H311   H     0.02468   0.77988   0.94959   0.00000  Uiso   1.00
H312   H     0.00120   0.39324   0.60560   0.00000  Uiso   1.00
H313   H     0.11226   0.84178   0.22291   0.00000  Uiso   1.00
O314   O     0.08691   0.74124   0.10496   0.00000  Uiso   1.00
O315   O     0.05612   0.54593   0.65365   0.00000  Uiso   1.00
O316   O     0.20182   0.82244   0.15158   0.00000  Uiso   1.00
N317   N     0.13206   0.84304   0.99407   0.00000  Uiso   1.00
N318   N     0.11011   0.41648   0.67249   0.00000  Uiso   1.00
N319   N     0.21394   0.90095   0.31469   0.00000  Uiso   1.00
N320   N     0.05790   0.80908   0.94669   0.00000  Uiso   1.00
N321   N     0.03595   0.38253   0.62510   0.00000  Uiso   1.00
N322   N     0.13978   0.86699   0.26730   0.00000  Uiso   1.00
C323   C     0.65793   0.55436   0.50628   0.00000  Uiso   1.00
C324   C     0.63214   0.48744   0.58511   0.00000  Uiso   1.00
C325   C     0.65177   0.44948   0.67820   0.00000  Uiso   1.00
C326   C     0.62231   0.38972   0.73955   0.00000  Uiso   1.00
C327   C     0.58946   0.28905   0.86665   0.00000  Uiso   1.00
C328   C     0.62678   0.64574   0.49681   0.00000  Uiso   1.00
C329   C     0.64191   0.74087   0.51565   0.00000  Uiso   1.00
C330   C     0.60793   0.81437   0.50265   0.00000  Uiso   1.00
C331   C     0.56676   0.95946   0.49259   0.00000  Uiso   1.00
C332   C     0.65510   0.50344   0.39814   0.00000  Uiso   1.00
C333   C     0.69404   0.47895   0.33400   0.00000  Uiso   1.00
C334   C     0.68390   0.43268   0.23791   0.00000  Uiso   1.00
C335   C     0.68671   0.35683   0.07465   0.00000  Uiso   1.00
C336   C     0.57070   0.51574   0.44967   0.00000  Uiso   1.00
C337   C     0.58476   0.46647   0.55436   0.00000  Uiso   1.00
C338   C     0.55525   0.40675   0.61558   0.00000  Uiso   1.00
C339   C     0.57484   0.36871   0.70875   0.00000  Uiso   1.00
C340   C     0.57939   0.62477   0.46606   0.00000  Uiso   1.00
C341   C     0.54539   0.69815   0.45302   0.00000  Uiso   1.00
C342   C     0.56046   0.79336   0.47185   0.00000  Uiso   1.00
C343   C     0.60772   0.48247   0.36739   0.00000  Uiso   1.00
C344   C     0.59752   0.43623   0.27138   0.00000  Uiso   1.00
C345   C     0.63643   0.41167   0.20711   0.00000  Uiso   1.00
H346   H     0.69482   0.57069   0.53021   0.00000  Uiso   1.00
H347   H     0.68844   0.46573   0.70197   0.00000  Uiso   1.00
H348   H     0.67858   0.75708   0.53943   0.00000  Uiso   1.00
H349   H     0.73070   0.49520   0.35782   0.00000  Uiso   1.00
H350   H     0.66047   0.34014   0.87886   0.00000  Uiso   1.00
H351   H     0.63967   0.95447   0.53610   0.00000  Uiso   1.00
H352   H     0.74959   0.40224   0.15312   0.00000  Uiso   1.00
H353   H     0.53380   0.49942   0.42573   0.00000  Uiso   1.00
H354   H     0.51859   0.39054   0.59176   0.00000  Uiso   1.00
H355   H     0.50872   0.68189   0.42923   0.00000  Uiso   1.00
H356   H     0.56085   0.42001   0.24761   0.00000  Uiso   1.00
H357   H     0.52260   0.27912   0.78941   0.00000  Uiso   1.00
H358   H     0.50181   0.89344   0.44665   0.00000  Uiso   1.00
H359   H     0.61172   0.34122   0.06368   0.00000  Uiso   1.00
O360   O     0.58443   0.23932   0.94526   0.00000  Uiso   1.00
O361   O     0.55714   0.04529   0.49555   0.00000  Uiso   1.00
O362   O     0.70135   0.32078   0.99310   0.00000  Uiso   1.00
N363   N     0.63011   0.34071   0.83501   0.00000  Uiso   1.00
N364   N     0.61066   0.91506   0.51457   0.00000  Uiso   1.00
N365   N     0.71343   0.39880   0.15650   0.00000  Uiso   1.00
N366   N     0.55593   0.30787   0.78688   0.00000  Uiso   1.00
N367   N     0.53648   0.88222   0.46644   0.00000  Uiso   1.00
N368   N     0.63924   0.36596   0.10837   0.00000  Uiso   1.00
