data_job_06949
_audit_creation_date              2018-12-19
_audit_creation_method            'Materials Studio'
_symmetry_space_group_name_H-M    'P1'
_symmetry_Int_Tables_number       1
_symmetry_cell_setting            triclinic
loop_
_symmetry_equiv_pos_as_xyz
  x,y,z
_cell_length_a                    18.6463
_cell_length_b                    21.6142
_cell_length_c                    22.2918
_cell_angle_alpha                 86.8939
_cell_angle_beta                  80.3287
_cell_angle_gamma                 76.0910
loop_
_atom_site_label
_atom_site_type_symbol
_atom_site_fract_x
_atom_site_fract_y
_atom_site_fract_z
_atom_site_U_iso_or_equiv
_atom_site_adp_type
_atom_site_occupancy
C1     C     0.12829   0.43280   0.50171   0.00000  Uiso   1.00
C2     C     0.18151   0.43986   0.54452   0.00000  Uiso   1.00
C3     C     0.17428   0.49251   0.57997   0.00000  Uiso   1.00
C4     C     0.22883   0.48970   0.61611   0.00000  Uiso   1.00
C5     C     0.30242   0.50881   0.68247   0.00000  Uiso   1.00
C6     C     0.17624   0.41879   0.43928   0.00000  Uiso   1.00
C7     C     0.16458   0.45374   0.38625   0.00000  Uiso   1.00
C8     C     0.21469   0.43318   0.33379   0.00000  Uiso   1.00
C9     C     0.28007   0.41957   0.23675   0.00000  Uiso   1.00
C10    C     0.10233   0.37217   0.52211   0.00000  Uiso   1.00
C11    C     0.02851   0.36790   0.53869   0.00000  Uiso   1.00
C12    C     0.01640   0.30808   0.55595   0.00000  Uiso   1.00
C13    C     0.96701   0.22208   0.58751   0.00000  Uiso   1.00
C14    C     0.23803   0.33416   0.50285   0.00000  Uiso   1.00
C15    C     0.24112   0.38628   0.54514   0.00000  Uiso   1.00
C16    C     0.29570   0.38338   0.58123   0.00000  Uiso   1.00
C17    C     0.28855   0.43602   0.61673   0.00000  Uiso   1.00
C18    C     0.23585   0.36522   0.43990   0.00000  Uiso   1.00
C19    C     0.28599   0.34460   0.38750   0.00000  Uiso   1.00
C20    C     0.27441   0.37951   0.33440   0.00000  Uiso   1.00
C21    C     0.16193   0.31859   0.52272   0.00000  Uiso   1.00
C22    C     0.14993   0.25877   0.53995   0.00000  Uiso   1.00
C23    C     0.07611   0.25441   0.55657   0.00000  Uiso   1.00
H24    H     0.08188   0.47452   0.50123   0.00000  Uiso   1.00
H25    H     0.12814   0.53397   0.57948   0.00000  Uiso   1.00
H26    H     0.11844   0.49519   0.38578   0.00000  Uiso   1.00
H27    H     0.98240   0.40937   0.53821   0.00000  Uiso   1.00
H28    H     0.20573   0.57627   0.66649   0.00000  Uiso   1.00
H29    H     0.18526   0.49449   0.25806   0.00000  Uiso   1.00
H30    H     0.89838   0.31352   0.57949   0.00000  Uiso   1.00
H31    H     0.28444   0.29245   0.50333   0.00000  Uiso   1.00
H32    H     0.34182   0.34191   0.58170   0.00000  Uiso   1.00
H33    H     0.33211   0.30314   0.38800   0.00000  Uiso   1.00
H34    H     0.19607   0.21732   0.54043   0.00000  Uiso   1.00
H35    H     0.37916   0.42039   0.66829   0.00000  Uiso   1.00
H36    H     0.35868   0.33861   0.25986   0.00000  Uiso   1.00
H37    H     0.07181   0.15764   0.58129   0.00000  Uiso   1.00
O38    O     0.32655   0.53416   0.71889   0.00000  Uiso   1.00
O39    O     0.29967   0.42686   0.18305   0.00000  Uiso   1.00
O40    O     0.92331   0.18944   0.60475   0.00000  Uiso   1.00
N41    N     0.23867   0.53279   0.65617   0.00000  Uiso   1.00
N42    N     0.21953   0.45634   0.27432   0.00000  Uiso   1.00
N43    N     0.95133   0.28714   0.57480   0.00000  Uiso   1.00
N44    N     0.33199   0.44891   0.65714   0.00000  Uiso   1.00
N45    N     0.31285   0.37246   0.27528   0.00000  Uiso   1.00
N46    N     0.04465   0.20326   0.57577   0.00000  Uiso   1.00
C47    C     0.62924   0.10440   0.34036   0.00000  Uiso   1.00
C48    C     0.60589   0.16924   0.37083   0.00000  Uiso   1.00
C49    C     0.64467   0.19112   0.40990   0.00000  Uiso   1.00
C50    C     0.61406   0.25182   0.43304   0.00000  Uiso   1.00
C51    C     0.58797   0.34680   0.48272   0.00000  Uiso   1.00
C52    C     0.56351   0.07313   0.35864   0.00000  Uiso   1.00
C53    C     0.56666   0.01421   0.38746   0.00000  Uiso   1.00
C54    C     0.50037   0.99401   0.40033   0.00000  Uiso   1.00
C55    C     0.40849   0.93977   0.43105   0.00000  Uiso   1.00
C56    C     0.63380   0.11802   0.27217   0.00000  Uiso   1.00
C57    C     0.69604   0.09683   0.22827   0.00000  Uiso   1.00
C58    C     0.68892   0.11441   0.16832   0.00000  Uiso   1.00
C59    C     0.70618   0.12987   0.06477   0.00000  Uiso   1.00
C60    C     0.50590   0.17329   0.31197   0.00000  Uiso   1.00
C61    C     0.53889   0.20665   0.35541   0.00000  Uiso   1.00
C62    C     0.50821   0.26734   0.37849   0.00000  Uiso   1.00
C63    C     0.54694   0.28931   0.41759   0.00000  Uiso   1.00
C64    C     0.49651   0.11055   0.34323   0.00000  Uiso   1.00
C65    C     0.43020   0.09043   0.35605   0.00000  Uiso   1.00
C66    C     0.43325   0.03150   0.38488   0.00000  Uiso   1.00
C67    C     0.56680   0.15545   0.25675   0.00000  Uiso   1.00
C68    C     0.55958   0.17306   0.19686   0.00000  Uiso   1.00
C69    C     0.62181   0.15190   0.15288   0.00000  Uiso   1.00
H70    H     0.68139   0.07526   0.35237   0.00000  Uiso   1.00
H71    H     0.69651   0.16214   0.42183   0.00000  Uiso   1.00
H72    H     0.61851   0.98526   0.39938   0.00000  Uiso   1.00
H73    H     0.74788   0.06787   0.24022   0.00000  Uiso   1.00
H74    H     0.68372   0.27496   0.49205   0.00000  Uiso   1.00
H75    H     0.51926   0.90199   0.44471   0.00000  Uiso   1.00
H76    H     0.79204   0.07619   0.10907   0.00000  Uiso   1.00
H77    H     0.45374   0.20242   0.29997   0.00000  Uiso   1.00
H78    H     0.45637   0.29629   0.36655   0.00000  Uiso   1.00
H79    H     0.37837   0.11940   0.34411   0.00000  Uiso   1.00
H80    H     0.50773   0.20201   0.18494   0.00000  Uiso   1.00
H81    H     0.48880   0.38384   0.44719   0.00000  Uiso   1.00
H82    H     0.32434   0.01086   0.39984   0.00000  Uiso   1.00
H83    H     0.59713   0.18506   0.06421   0.00000  Uiso   1.00
O84    O     0.59208   0.38884   0.51438   0.00000  Uiso   1.00
O85    O     0.37632   0.89951   0.45226   0.00000  Uiso   1.00
O86    O     0.73421   0.12806   0.01192   0.00000  Uiso   1.00
N87    N     0.63749   0.28771   0.47235   0.00000  Uiso   1.00
N88    N     0.48373   0.93900   0.42809   0.00000  Uiso   1.00
N89    N     0.73875   0.10185   0.11430   0.00000  Uiso   1.00
N90    N     0.53261   0.34629   0.44821   0.00000  Uiso   1.00
N91    N     0.37885   0.99759   0.40395   0.00000  Uiso   1.00
N92    N     0.63387   0.16044   0.09016   0.00000  Uiso   1.00
C93    C     0.46918   0.65966   0.20985   0.00000  Uiso   1.00
C94    C     0.49410   0.71259   0.23726   0.00000  Uiso   1.00
C95    C     0.56475   0.72505   0.22408   0.00000  Uiso   1.00
C96    C     0.57642   0.77561   0.25396   0.00000  Uiso   1.00
C97    C     0.62380   0.85220   0.29023   0.00000  Uiso   1.00
C98    C     0.44077   0.62037   0.26350   0.00000  Uiso   1.00
C99    C     0.46657   0.55528   0.27237   0.00000  Uiso   1.00
C100   C     0.43335   0.52822   0.32434   0.00000  Uiso   1.00
C101   C     0.39789   0.46162   0.40132   0.00000  Uiso   1.00
C102   C     0.40077   0.69237   0.18122   0.00000  Uiso   1.00
C103   C     0.39293   0.68781   0.12090   0.00000  Uiso   1.00
C104   C     0.32601   0.72135   0.10359   0.00000  Uiso   1.00
C105   C     0.22846   0.76654   0.05282   0.00000  Uiso   1.00
C106   C     0.36428   0.72732   0.28636   0.00000  Uiso   1.00
C107   C     0.43712   0.74934   0.27882   0.00000  Uiso   1.00
C108   C     0.44869   0.79991   0.30873   0.00000  Uiso   1.00
C109   C     0.51934   0.81243   0.29559   0.00000  Uiso   1.00
C110   C     0.38380   0.65712   0.30506   0.00000  Uiso   1.00
C111   C     0.35052   0.63014   0.35702   0.00000  Uiso   1.00
C112   C     0.37627   0.56503   0.36597   0.00000  Uiso   1.00
C113   C     0.34379   0.72912   0.22277   0.00000  Uiso   1.00
C114   C     0.27688   0.76267   0.20555   0.00000  Uiso   1.00
C115   C     0.26893   0.75817   0.14523   0.00000  Uiso   1.00
H116   H     0.51353   0.63104   0.17750   0.00000  Uiso   1.00
H117   H     0.60883   0.69659   0.19192   0.00000  Uiso   1.00
H118   H     0.51066   0.52686   0.24020   0.00000  Uiso   1.00
H119   H     0.43703   0.65937   0.08876   0.00000  Uiso   1.00
H120   H     0.68936   0.78546   0.22625   0.00000  Uiso   1.00
H121   H     0.48236   0.42755   0.32805   0.00000  Uiso   1.00
H122   H     0.32709   0.70698   0.00870   0.00000  Uiso   1.00
H123   H     0.31992   0.75593   0.31871   0.00000  Uiso   1.00
H124   H     0.40459   0.82834   0.34088   0.00000  Uiso   1.00
H125   H     0.30643   0.65860   0.38917   0.00000  Uiso   1.00
H126   H     0.23280   0.79111   0.23773   0.00000  Uiso   1.00
H127   H     0.52360   0.89238   0.34716   0.00000  Uiso   1.00
H128   H     0.31659   0.53448   0.44896   0.00000  Uiso   1.00
H129   H     0.16133   0.81390   0.12961   0.00000  Uiso   1.00
O130   O     0.66568   0.88428   0.29876   0.00000  Uiso   1.00
O131   O     0.39409   0.41473   0.43231   0.00000  Uiso   1.00
O132   O     0.19039   0.78133   0.01333   0.00000  Uiso   1.00
N133   N     0.63872   0.80069   0.25165   0.00000  Uiso   1.00
N134   N     0.44520   0.46608   0.34684   0.00000  Uiso   1.00
N135   N     0.30003   0.72730   0.04827   0.00000  Uiso   1.00
N136   N     0.54953   0.85823   0.31671   0.00000  Uiso   1.00
N137   N     0.35600   0.52362   0.41190   0.00000  Uiso   1.00
N138   N     0.21083   0.78484   0.11333   0.00000  Uiso   1.00
C139   C     0.80200   0.28905   0.98135   0.00000  Uiso   1.00
C140   C     0.83399   0.34262   0.94853   0.00000  Uiso   1.00
C141   C     0.83837   0.39799   0.97498   0.00000  Uiso   1.00
C142   C     0.86953   0.44115   0.93722   0.00000  Uiso   1.00
C143   C     0.91530   0.52612   0.89569   0.00000  Uiso   1.00
C144   C     0.86402   0.22844   0.97023   0.00000  Uiso   1.00
C145   C     0.89365   0.18780   0.01493   0.00000  Uiso   1.00
C146   C     0.95009   0.13484   0.99543   0.00000  Uiso   1.00
C147   C     0.04245   0.04252   0.98759   0.00000  Uiso   1.00
C148   C     0.74059   0.28114   0.94711   0.00000  Uiso   1.00
C149   C     0.66643   0.28479   0.97237   0.00000  Uiso   1.00
C150   C     0.61894   0.27619   0.93341   0.00000  Uiso   1.00
C151   C     0.51965   0.26569   0.88967   0.00000  Uiso   1.00
C152   C     0.84955   0.26725   0.86726   0.00000  Uiso   1.00
C153   C     0.85982   0.33078   0.88656   0.00000  Uiso   1.00
C154   C     0.89097   0.37387   0.84875   0.00000  Uiso   1.00
C155   C     0.89540   0.42929   0.87514   0.00000  Uiso   1.00
C156   C     0.88985   0.21660   0.90827   0.00000  Uiso   1.00
C157   C     0.94625   0.16369   0.88870   0.00000  Uiso   1.00
C158   C     0.97596   0.12298   0.93335   0.00000  Uiso   1.00
C159   C     0.76641   0.26930   0.88514   0.00000  Uiso   1.00
C160   C     0.71903   0.26068   0.84614   0.00000  Uiso   1.00
C161   C     0.64482   0.26432   0.87133   0.00000  Uiso   1.00
H162   H     0.78190   0.29826   0.02960   0.00000  Uiso   1.00
H163   H     0.81839   0.40713   0.02294   0.00000  Uiso   1.00
H164   H     0.87365   0.19698   0.06288   0.00000  Uiso   1.00
H165   H     0.64646   0.29396   0.02032   0.00000  Uiso   1.00
H166   H     0.87025   0.52260   0.98823   0.00000  Uiso   1.00
H167   H     0.98676   0.07946   0.07245   0.00000  Uiso   1.00
H168   H     0.50769   0.28396   0.98271   0.00000  Uiso   1.00
H169   H     0.86966   0.25803   0.81902   0.00000  Uiso   1.00
H170   H     0.91096   0.36469   0.80080   0.00000  Uiso   1.00
H171   H     0.96622   0.15454   0.84074   0.00000  Uiso   1.00
H172   H     0.73904   0.25152   0.79819   0.00000  Uiso   1.00
H173   H     0.94539   0.48815   0.80794   0.00000  Uiso   1.00
H174   H     0.06189   0.04501   0.89215   0.00000  Uiso   1.00
H175   H     0.58283   0.24952   0.80242   0.00000  Uiso   1.00
O176   O     0.93343   0.57626   0.88991   0.00000  Uiso   1.00
O177   O     0.08627   0.99488   0.00039   0.00000  Uiso   1.00
O178   O     0.45775   0.26318   0.88266   0.00000  Uiso   1.00
N179   N     0.88225   0.49986   0.94830   0.00000  Uiso   1.00
N180   N     0.99119   0.08556   0.02703   0.00000  Uiso   1.00
N181   N     0.54331   0.27673   0.94314   0.00000  Uiso   1.00
N182   N     0.92268   0.48133   0.85128   0.00000  Uiso   1.00
N183   N     0.03162   0.06703   0.93002   0.00000  Uiso   1.00
N184   N     0.58374   0.25820   0.84613   0.00000  Uiso   1.00
C185   C     0.13273   0.96531   0.68917   0.00000  Uiso   1.00
C186   C     0.14672   0.94281   0.75312   0.00000  Uiso   1.00
C187   C     0.18494   0.96938   0.78923   0.00000  Uiso   1.00
C188   C     0.19174   0.94191   0.84638   0.00000  Uiso   1.00
C189   C     0.21804   0.91492   0.94261   0.00000  Uiso   1.00
C190   C     0.04815   0.97989   0.69139   0.00000  Uiso   1.00
C191   C     0.00351   0.03764   0.67560   0.00000  Uiso   1.00
C192   C     0.92734   0.04139   0.68078   0.00000  Uiso   1.00
C193   C     0.80063   0.07196   0.68113   0.00000  Uiso   1.00
C194   C     0.16501   0.90743   0.64854   0.00000  Uiso   1.00
C195   C     0.21861   0.90426   0.59671   0.00000  Uiso   1.00
C196   C     0.24081   0.84700   0.56581   0.00000  Uiso   1.00
C197   C     0.29554   0.76506   0.49964   0.00000  Uiso   1.00
C198   C     0.07683   0.86928   0.72644   0.00000  Uiso   1.00
C199   C     0.11635   0.89065   0.77336   0.00000  Uiso   1.00
C200   C     0.12310   0.86313   0.83047   0.00000  Uiso   1.00
C201   C     0.16133   0.88965   0.86666   0.00000  Uiso   1.00
C202   C     0.01779   0.92773   0.71163   0.00000  Uiso   1.00
C203   C     0.94167   0.93139   0.71683   0.00000  Uiso   1.00
C204   C     0.89692   0.98913   0.70106   0.00000  Uiso   1.00
C205   C     0.13465   0.85527   0.66878   0.00000  Uiso   1.00
C206   C     0.15677   0.79800   0.63795   0.00000  Uiso   1.00
C207   C     0.21039   0.79474   0.58609   0.00000  Uiso   1.00
H208   H     0.15636   0.00593   0.67341   0.00000  Uiso   1.00
H209   H     0.20842   0.00975   0.77355   0.00000  Uiso   1.00
H210   H     0.02703   0.07800   0.65993   0.00000  Uiso   1.00
H211   H     0.24209   0.94463   0.58107   0.00000  Uiso   1.00
H212   H     0.25273   0.99101   0.89352   0.00000  Uiso   1.00
H213   H     0.87025   0.13490   0.65392   0.00000  Uiso   1.00
H214   H     0.32375   0.85368   0.48761   0.00000  Uiso   1.00
H215   H     0.05319   0.82866   0.74220   0.00000  Uiso   1.00
H216   H     0.09959   0.82276   0.84612   0.00000  Uiso   1.00
H217   H     0.91819   0.89101   0.73249   0.00000  Uiso   1.00
H218   H     0.13326   0.75765   0.65363   0.00000  Uiso   1.00
H219   H     0.16440   0.83924   0.95242   0.00000  Uiso   1.00
H220   H     0.78191   0.98313   0.71281   0.00000  Uiso   1.00
H221   H     0.23542   0.70191   0.54651   0.00000  Uiso   1.00
O222   O     0.24093   0.91445   0.99010   0.00000  Uiso   1.00
O223   O     0.73913   0.10323   0.67574   0.00000  Uiso   1.00
O224   O     0.33412   0.73427   0.45755   0.00000  Uiso   1.00
N225   N     0.22559   0.95609   0.89311   0.00000  Uiso   1.00
N226   N     0.86798   0.09063   0.66911   0.00000  Uiso   1.00
N227   N     0.29196   0.82771   0.51362   0.00000  Uiso   1.00
N228   N     0.17806   0.87443   0.92480   0.00000  Uiso   1.00
N229   N     0.82045   0.00896   0.70080   0.00000  Uiso   1.00
N230   N     0.24443   0.74605   0.54531   0.00000  Uiso   1.00
C231   C     0.02529   0.70782   0.01668   0.00000  Uiso   1.00
C232   C     0.98075   0.77615   0.02913   0.00000  Uiso   1.00
C233   C     0.00259   0.82143   0.05915   0.00000  Uiso   1.00
C234   C     0.95398   0.88125   0.06596   0.00000  Uiso   1.00
C235   C     0.89517   0.98523   0.08867   0.00000  Uiso   1.00
C236   C     0.03565   0.69974   0.94800   0.00000  Uiso   1.00
C237   C     0.10366   0.68077   0.90981   0.00000  Uiso   1.00
C238   C     0.10127   0.67625   0.84831   0.00000  Uiso   1.00
C239   C     0.12770   0.66157   0.74508   0.00000  Uiso   1.00
C240   C     0.97370   0.66518   0.04461   0.00000  Uiso   1.00
C241   C     0.98962   0.61714   0.08764   0.00000  Uiso   1.00
C242   C     0.93507   0.58352   0.10747   0.00000  Uiso   1.00
C243   C     0.86531   0.51517   0.15423   0.00000  Uiso   1.00
C244   C     0.90011   0.73352   0.97538   0.00000  Uiso   1.00
C245   C     0.91276   0.79011   0.00669   0.00000  Uiso   1.00
C246   C     0.86410   0.84987   0.01346   0.00000  Uiso   1.00
C247   C     0.88586   0.89523   0.04349   0.00000  Uiso   1.00
C248   C     0.96766   0.71370   0.92556   0.00000  Uiso   1.00
C249   C     0.96517   0.70921   0.86411   0.00000  Uiso   1.00
C250   C     0.03315   0.69024   0.82584   0.00000  Uiso   1.00
C251   C     0.90570   0.67914   0.02217   0.00000  Uiso   1.00
C252   C     0.85112   0.64558   0.04194   0.00000  Uiso   1.00
C253   C     0.86696   0.59750   0.08500   0.00000  Uiso   1.00
H254   H     0.07823   0.69695   0.03414   0.00000  Uiso   1.00
H255   H     0.05522   0.81061   0.07650   0.00000  Uiso   1.00
H256   H     0.15627   0.66997   0.92718   0.00000  Uiso   1.00
H257   H     0.04224   0.60635   0.10498   0.00000  Uiso   1.00
H258   H     0.99973   0.94279   0.11355   0.00000  Uiso   1.00
H259   H     0.21280   0.64621   0.79871   0.00000  Uiso   1.00
H260   H     0.97236   0.51206   0.17364   0.00000  Uiso   1.00
H261   H     0.84718   0.74439   0.95791   0.00000  Uiso   1.00
H262   H     0.81148   0.86066   0.99609   0.00000  Uiso   1.00
H263   H     0.91254   0.72001   0.84677   0.00000  Uiso   1.00
H264   H     0.79851   0.65640   0.02457   0.00000  Uiso   1.00
H265   H     0.80191   0.98341   0.04829   0.00000  Uiso   1.00
H266   H     0.01498   0.68682   0.73344   0.00000  Uiso   1.00
H267   H     0.77454   0.55268   0.10837   0.00000  Uiso   1.00
O268   O     0.88152   0.03874   0.10739   0.00000  Uiso   1.00
O269   O     0.16106   0.64962   0.69433   0.00000  Uiso   1.00
O270   O     0.84561   0.47362   0.18623   0.00000  Uiso   1.00
N271   N     0.95807   0.93639   0.09296   0.00000  Uiso   1.00
N272   N     0.15728   0.65911   0.79860   0.00000  Uiso   1.00
N273   N     0.93249   0.53368   0.14912   0.00000  Uiso   1.00
N274   N     0.85162   0.95825   0.05784   0.00000  Uiso   1.00
N275   N     0.05083   0.68097   0.76348   0.00000  Uiso   1.00
N276   N     0.82604   0.55554   0.11400   0.00000  Uiso   1.00
C277   C     0.83635   0.62841   0.43804   0.00000  Uiso   1.00
C278   C     0.78222   0.60154   0.40879   0.00000  Uiso   1.00
C279   C     0.80003   0.56727   0.35528   0.00000  Uiso   1.00
C280   C     0.74259   0.54682   0.33608   0.00000  Uiso   1.00
C281   C     0.66960   0.50303   0.28562   0.00000  Uiso   1.00
C282   C     0.83321   0.60084   0.50260   0.00000  Uiso   1.00
C283   C     0.89388   0.56600   0.52798   0.00000  Uiso   1.00
C284   C     0.87937   0.54496   0.58775   0.00000  Uiso   1.00
C285   C     0.88554   0.50013   0.68296   0.00000  Uiso   1.00
C286   C     0.80203   0.69972   0.44458   0.00000  Uiso   1.00
C287   C     0.83649   0.74803   0.42117   0.00000  Uiso   1.00
C288   C     0.79572   0.81025   0.43211   0.00000  Uiso   1.00
C289   C     0.75348   0.91895   0.43722   0.00000  Uiso   1.00
C290   C     0.70269   0.65302   0.49909   0.00000  Uiso   1.00
C291   C     0.70963   0.61490   0.44195   0.00000  Uiso   1.00
C292   C     0.65215   0.59450   0.42282   0.00000  Uiso   1.00
C293   C     0.66986   0.56022   0.36929   0.00000  Uiso   1.00
C294   C     0.76061   0.61420   0.53576   0.00000  Uiso   1.00
C295   C     0.74601   0.59322   0.59552   0.00000  Uiso   1.00
C296   C     0.80664   0.55836   0.62097   0.00000  Uiso   1.00
C297   C     0.72943   0.71309   0.47773   0.00000  Uiso   1.00
C298   C     0.68861   0.77525   0.48871   0.00000  Uiso   1.00
C299   C     0.72299   0.82364   0.46532   0.00000  Uiso   1.00
H300   H     0.89287   0.61800   0.41223   0.00000  Uiso   1.00
H301   H     0.85622   0.55693   0.32963   0.00000  Uiso   1.00
H302   H     0.95006   0.55566   0.50231   0.00000  Uiso   1.00
H303   H     0.89267   0.73766   0.39552   0.00000  Uiso   1.00
H304   H     0.78357   0.49510   0.25269   0.00000  Uiso   1.00
H305   H     0.98144   0.49244   0.61679   0.00000  Uiso   1.00
H306   H     0.86042   0.87623   0.39160   0.00000  Uiso   1.00
H307   H     0.64617   0.66343   0.52491   0.00000  Uiso   1.00
H308   H     0.59597   0.60485   0.44849   0.00000  Uiso   1.00
H309   H     0.68982   0.60358   0.62116   0.00000  Uiso   1.00
H310   H     0.63243   0.78558   0.51437   0.00000  Uiso   1.00
H311   H     0.57235   0.53399   0.34916   0.00000  Uiso   1.00
H312   H     0.77022   0.53133   0.71326   0.00000  Uiso   1.00
H313   H     0.64920   0.91512   0.48807   0.00000  Uiso   1.00
O314   O     0.64940   0.47518   0.24864   0.00000  Uiso   1.00
O315   O     0.90900   0.47170   0.72632   0.00000  Uiso   1.00
O316   O     0.75023   0.97521   0.43087   0.00000  Uiso   1.00
N317   N     0.74074   0.51230   0.28588   0.00000  Uiso   1.00
N318   N     0.92574   0.50981   0.62628   0.00000  Uiso   1.00
N319   N     0.81261   0.86862   0.41577   0.00000  Uiso   1.00
N320   N     0.62709   0.53323   0.33779   0.00000  Uiso   1.00
N321   N     0.81208   0.53073   0.67819   0.00000  Uiso   1.00
N322   N     0.69895   0.88954   0.46767   0.00000  Uiso   1.00
C323   C     0.56662   0.79654   0.65727   0.00000  Uiso   1.00
C324   C     0.52656   0.74523   0.64693   0.00000  Uiso   1.00
C325   C     0.49935   0.73765   0.59422   0.00000  Uiso   1.00
C326   C     0.46442   0.68778   0.59376   0.00000  Uiso   1.00
C327   C     0.40337   0.61428   0.57001   0.00000  Uiso   1.00
C328   C     0.64184   0.76128   0.67430   0.00000  Uiso   1.00
C329   C     0.71155   0.76722   0.64460   0.00000  Uiso   1.00
C330   C     0.77366   0.73087   0.66719   0.00000  Uiso   1.00
C331   C     0.89158   0.68234   0.68596   0.00000  Uiso   1.00
C332   C     0.52213   0.83164   0.71425   0.00000  Uiso   1.00
C333   C     0.49120   0.89673   0.71816   0.00000  Uiso   1.00
C334   C     0.45254   0.91962   0.77440   0.00000  Uiso   1.00
C335   C     0.38459   0.98032   0.85521   0.00000  Uiso   1.00
C336   C     0.55297   0.72143   0.75018   0.00000  Uiso   1.00
C337   C     0.51915   0.70443   0.69739   0.00000  Uiso   1.00
C338   C     0.48424   0.65455   0.69701   0.00000  Uiso   1.00
C339   C     0.45699   0.64690   0.64431   0.00000  Uiso   1.00
C340   C     0.63443   0.72049   0.72476   0.00000  Uiso   1.00
C341   C     0.69645   0.68412   0.74740   0.00000  Uiso   1.00
C342   C     0.76623   0.68999   0.71775   0.00000  Uiso   1.00
C343   C     0.51471   0.79084   0.76472   0.00000  Uiso   1.00
C344   C     0.47610   0.81363   0.82096   0.00000  Uiso   1.00
C345   C     0.44511   0.87874   0.82496   0.00000  Uiso   1.00
H346   H     0.57240   0.82830   0.61798   0.00000  Uiso   1.00
H347   H     0.50510   0.76923   0.55517   0.00000  Uiso   1.00
H348   H     0.71727   0.79880   0.60555   0.00000  Uiso   1.00
H349   H     0.49695   0.92829   0.67910   0.00000  Uiso   1.00
H350   H     0.42725   0.68574   0.50778   0.00000  Uiso   1.00
H351   H     0.87461   0.74810   0.61403   0.00000  Uiso   1.00
H352   H     0.41003   0.02115   0.76912   0.00000  Uiso   1.00
H353   H     0.54720   0.68967   0.78948   0.00000  Uiso   1.00
H354   H     0.47852   0.62299   0.73608   0.00000  Uiso   1.00
H355   H     0.69069   0.65255   0.78646   0.00000  Uiso   1.00
H356   H     0.47037   0.78204   0.86001   0.00000  Uiso   1.00
H357   H     0.40567   0.56703   0.65461   0.00000  Uiso   1.00
H358   H     0.85304   0.62940   0.76086   0.00000  Uiso   1.00
H359   H     0.38846   0.90245   0.91595   0.00000  Uiso   1.00
O360   O     0.37175   0.58501   0.54297   0.00000  Uiso   1.00
O361   O     0.95867   0.66684   0.68237   0.00000  Uiso   1.00
O362   O     0.34916   0.02508   0.88584   0.00000  Uiso   1.00
N363   N     0.43158   0.66696   0.54967   0.00000  Uiso   1.00
N364   N     0.84984   0.72525   0.64900   0.00000  Uiso   1.00
N365   N     0.41551   0.98054   0.79400   0.00000  Uiso   1.00
N366   N     0.41997   0.60309   0.62868   0.00000  Uiso   1.00
N367   N     0.83823   0.66138   0.72801   0.00000  Uiso   1.00
N368   N     0.40390   0.91667   0.87301   0.00000  Uiso   1.00
C369   C     0.50142   0.56216   0.94596   0.00000  Uiso   1.00
C370   C     0.51208   0.51830   0.89223   0.00000  Uiso   1.00
C371   C     0.46032   0.51955   0.85386   0.00000  Uiso   1.00
C372   C     0.48069   0.47548   0.80734   0.00000  Uiso   1.00
C373   C     0.48668   0.41405   0.72508   0.00000  Uiso   1.00
C374   C     0.56683   0.59446   0.93444   0.00000  Uiso   1.00
C375   C     0.56109   0.65973   0.93158   0.00000  Uiso   1.00
C376   C     0.62755   0.67977   0.92060   0.00000  Uiso   1.00
C377   C     0.71853   0.73657   0.90392   0.00000  Uiso   1.00
C378   C     0.51321   0.51859   0.00134   0.00000  Uiso   1.00
C379   C     0.46240   0.52008   0.05474   0.00000  Uiso   1.00
C380   C     0.48372   0.47625   0.10010   0.00000  Uiso   1.00
C381   C     0.49143   0.41525   0.18729   0.00000  Uiso   1.00
C382   C     0.62963   0.48169   0.93156   0.00000  Uiso   1.00
C383   C     0.58173   0.47459   0.88441   0.00000  Uiso   1.00
C384   C     0.60218   0.43051   0.83793   0.00000  Uiso   1.00
C385   C     0.55046   0.43169   0.79951   0.00000  Uiso   1.00
C386   C     0.63647   0.55075   0.92662   0.00000  Uiso   1.00
C387   C     0.70295   0.57070   0.91565   0.00000  Uiso   1.00
C388   C     0.69732   0.63599   0.91277   0.00000  Uiso   1.00
C389   C     0.58285   0.47488   0.99352   0.00000  Uiso   1.00
C390   C     0.60425   0.43104   0.03881   0.00000  Uiso   1.00
C391   C     0.55348   0.43247   0.09226   0.00000  Uiso   1.00
H392   H     0.44720   0.59620   0.95205   0.00000  Uiso   1.00
H393   H     0.40644   0.55339   0.85992   0.00000  Uiso   1.00
H394   H     0.50719   0.69355   0.93764   0.00000  Uiso   1.00
H395   H     0.40851   0.55391   0.06077   0.00000  Uiso   1.00
H396   H     0.39197   0.48666   0.75433   0.00000  Uiso   1.00
H397   H     0.60442   0.78220   0.91821   0.00000  Uiso   1.00
H398   H     0.39632   0.48776   0.17787   0.00000  Uiso   1.00
H399   H     0.68385   0.44766   0.92548   0.00000  Uiso   1.00
H400   H     0.65608   0.39669   0.83189   0.00000  Uiso   1.00
H401   H     0.75683   0.53686   0.90961   0.00000  Uiso   1.00
H402   H     0.65815   0.39722   0.03274   0.00000  Uiso   1.00
H403   H     0.59458   0.35949   0.73157   0.00000  Uiso   1.00
H404   H     0.80703   0.65503   0.89546   0.00000  Uiso   1.00
H405   H     0.59894   0.36058   0.15512   0.00000  Uiso   1.00
O406   O     0.47074   0.39224   0.68186   0.00000  Uiso   1.00
O407   O     0.74947   0.77998   0.89688   0.00000  Uiso   1.00
O408   O     0.47645   0.39367   0.23754   0.00000  Uiso   1.00
N409   N     0.44346   0.46372   0.76182   0.00000  Uiso   1.00
N410   N     0.64209   0.74003   0.91503   0.00000  Uiso   1.00
N411   N     0.44754   0.46476   0.15780   0.00000  Uiso   1.00
N412   N     0.55249   0.39528   0.74958   0.00000  Uiso   1.00
N413   N     0.75111   0.67159   0.90279   0.00000  Uiso   1.00
N414   N     0.55657   0.39633   0.14556   0.00000  Uiso   1.00
C415   C     0.40508   0.07008   0.05660   0.00000  Uiso   1.00
C416   C     0.33567   0.05121   0.09139   0.00000  Uiso   1.00
C417   C     0.29022   0.02011   0.06724   0.00000  Uiso   1.00
C418   C     0.22935   0.00709   0.10654   0.00000  Uiso   1.00
C419   C     0.12380   0.97516   0.15124   0.00000  Uiso   1.00
C420   C     0.39185   0.14178   0.06459   0.00000  Uiso   1.00
C421   C     0.39366   0.18683   0.01791   0.00000  Uiso   1.00
C422   C     0.38010   0.25004   0.03465   0.00000  Uiso   1.00
C423   C     0.36183   0.35871   0.03775   0.00000  Uiso   1.00
C424   C     0.46902   0.03932   0.09106   0.00000  Uiso   1.00
C425   C     0.53572   0.99822   0.06664   0.00000  Uiso   1.00
C426   C     0.58714   0.97518   0.10567   0.00000  Uiso   1.00
C427   C     0.68868   0.92476   0.14987   0.00000  Uiso   1.00
C428   C     0.37779   0.10226   0.16933   0.00000  Uiso   1.00
C429   C     0.32084   0.06869   0.15262   0.00000  Uiso   1.00
C430   C     0.26003   0.05571   0.19197   0.00000  Uiso   1.00
C431   C     0.21451   0.02460   0.16788   0.00000  Uiso   1.00
C432   C     0.37703   0.15926   0.12582   0.00000  Uiso   1.00
C433   C     0.36347   0.22242   0.14264   0.00000  Uiso   1.00
C434   C     0.36525   0.26755   0.09599   0.00000  Uiso   1.00
C435   C     0.45420   0.05679   0.15230   0.00000  Uiso   1.00
C436   C     0.50552   0.03382   0.19137   0.00000  Uiso   1.00
C437   C     0.57229   0.99269   0.16701   0.00000  Uiso   1.00
H438   H     0.41662   0.05648   0.00892   0.00000  Uiso   1.00
H439   H     0.30171   0.00660   0.01985   0.00000  Uiso   1.00
H440   H     0.40514   0.17329   0.97053   0.00000  Uiso   1.00
H441   H     0.54717   0.98471   0.01925   0.00000  Uiso   1.00
H442   H     0.16775   0.95903   0.05896   0.00000  Uiso   1.00
H443   H     0.38587   0.31049   0.95496   0.00000  Uiso   1.00
H444   H     0.68538   0.91284   0.05771   0.00000  Uiso   1.00
H445   H     0.36625   0.11587   0.21700   0.00000  Uiso   1.00
H446   H     0.24857   0.06924   0.23935   0.00000  Uiso   1.00
H447   H     0.35200   0.23593   0.19003   0.00000  Uiso   1.00
H448   H     0.49404   0.04735   0.23875   0.00000  Uiso   1.00
H449   H     0.12463   0.00987   0.23712   0.00000  Uiso   1.00
H450   H     0.34274   0.36134   0.13312   0.00000  Uiso   1.00
H451   H     0.64225   0.96368   0.23586   0.00000  Uiso   1.00
O452   O     0.06967   0.95273   0.15898   0.00000  Uiso   1.00
O453   O     0.35584   0.41383   0.02254   0.00000  Uiso   1.00
O454   O     0.74879   0.89212   0.15734   0.00000  Uiso   1.00
N455   N     0.17376   0.97738   0.09783   0.00000  Uiso   1.00
N456   N     0.37767   0.30598   0.00059   0.00000  Uiso   1.00
N457   N     0.65770   0.93422   0.09665   0.00000  Uiso   1.00
N458   N     0.15056   0.00474   0.19369   0.00000  Uiso   1.00
N459   N     0.35447   0.33334   0.09646   0.00000  Uiso   1.00
N460   N     0.63449   0.96158   0.19251   0.00000  Uiso   1.00
C461   C     0.86936   0.20248   0.41591   0.00000  Uiso   1.00
C462   C     0.82964   0.23759   0.36510   0.00000  Uiso   1.00
C463   C     0.80008   0.20986   0.32324   0.00000  Uiso   1.00
C464   C     0.76593   0.25015   0.28030   0.00000  Uiso   1.00
C465   C     0.70496   0.29467   0.20155   0.00000  Uiso   1.00
C466   C     0.94610   0.21798   0.40650   0.00000  Uiso   1.00
C467   C     0.01446   0.17376   0.39946   0.00000  Uiso   1.00
C468   C     0.07834   0.19754   0.39138   0.00000  Uiso   1.00
C469   C     0.19817   0.21161   0.37694   0.00000  Uiso   1.00
C470   C     0.82681   0.23469   0.47487   0.00000  Uiso   1.00
C471   C     0.79488   0.20454   0.52532   0.00000  Uiso   1.00
C472   C     0.75835   0.24239   0.57481   0.00000  Uiso   1.00
C473   C     0.69296   0.28242   0.66652   0.00000  Uiso   1.00
C474   C     0.86127   0.32333   0.41410   0.00000  Uiso   1.00
C475   C     0.82524   0.30322   0.36412   0.00000  Uiso   1.00
C476   C     0.79113   0.34356   0.32124   0.00000  Uiso   1.00
C477   C     0.76152   0.31590   0.27932   0.00000  Uiso   1.00
C478   C     0.94170   0.28361   0.40552   0.00000  Uiso   1.00
C479   C     0.00550   0.30746   0.39746   0.00000  Uiso   1.00
C480   C     0.07394   0.26329   0.39039   0.00000  Uiso   1.00
C481   C     0.82241   0.30033   0.47389   0.00000  Uiso   1.00
C482   C     0.78592   0.33824   0.52331   0.00000  Uiso   1.00
C483   C     0.75395   0.30814   0.57382   0.00000  Uiso   1.00
H484   H     0.87279   0.15138   0.41667   0.00000  Uiso   1.00
H485   H     0.80350   0.15906   0.32401   0.00000  Uiso   1.00
H486   H     0.01784   0.12297   0.40022   0.00000  Uiso   1.00
H487   H     0.79830   0.15374   0.52606   0.00000  Uiso   1.00
H488   H     0.72477   0.19652   0.22083   0.00000  Uiso   1.00
H489   H     0.17672   0.12042   0.38155   0.00000  Uiso   1.00
H490   H     0.71377   0.18530   0.64691   0.00000  Uiso   1.00
H491   H     0.85784   0.37443   0.41334   0.00000  Uiso   1.00
H492   H     0.78773   0.39435   0.32049   0.00000  Uiso   1.00
H493   H     0.00208   0.35826   0.39670   0.00000  Uiso   1.00
H494   H     0.78253   0.38903   0.52254   0.00000  Uiso   1.00
H495   H     0.71198   0.38749   0.21797   0.00000  Uiso   1.00
H496   H     0.16393   0.31138   0.37870   0.00000  Uiso   1.00
H497   H     0.70097   0.37627   0.64405   0.00000  Uiso   1.00
O498   O     0.67255   0.30109   0.15837   0.00000  Uiso   1.00
O499   O     0.26548   0.20123   0.36924   0.00000  Uiso   1.00
O500   O     0.65810   0.28637   0.71738   0.00000  Uiso   1.00
N501   N     0.73137   0.23874   0.23291   0.00000  Uiso   1.00
N502   N     0.15391   0.16758   0.38316   0.00000  Uiso   1.00
N503   N     0.72111   0.22824   0.63125   0.00000  Uiso   1.00
N504   N     0.72448   0.34150   0.23137   0.00000  Uiso   1.00
N505   N     0.14703   0.27034   0.38162   0.00000  Uiso   1.00
N506   N     0.71423   0.33100   0.62972   0.00000  Uiso   1.00
C507   C     0.08748   0.31144   0.89515   0.00000  Uiso   1.00
C508   C     0.11776   0.26467   0.84298   0.00000  Uiso   1.00
C509   C     0.07827   0.25387   0.79864   0.00000  Uiso   1.00
C510   C     0.11594   0.20915   0.75481   0.00000  Uiso   1.00
C511   C     0.15162   0.14149   0.67373   0.00000  Uiso   1.00
C512   C     0.09808   0.27240   0.95342   0.00000  Uiso   1.00
C513   C     0.04205   0.26811   0.00194   0.00000  Uiso   1.00
C514   C     0.06316   0.22990   0.05109   0.00000  Uiso   1.00
C515   C     0.06829   0.17428   0.14149   0.00000  Uiso   1.00
C516   C     0.14055   0.35596   0.88976   0.00000  Uiso   1.00
C517   C     0.12022   0.42193   0.88476   0.00000  Uiso   1.00
C518   C     0.17708   0.45407   0.88032   0.00000  Uiso   1.00
C519   C     0.24816   0.52818   0.87187   0.00000  Uiso   1.00
C520   C     0.22459   0.25122   0.89617   0.00000  Uiso   1.00
C521   C     0.19224   0.23197   0.84353   0.00000  Uiso   1.00
C522   C     0.22998   0.18725   0.79976   0.00000  Uiso   1.00
C523   C     0.19055   0.17639   0.75536   0.00000  Uiso   1.00
C524   C     0.17256   0.23970   0.95397   0.00000  Uiso   1.00
C525   C     0.19375   0.20149   0.00306   0.00000  Uiso   1.00
C526   C     0.13777   0.19713   0.05164   0.00000  Uiso   1.00
C527   C     0.21503   0.32325   0.89031   0.00000  Uiso   1.00
C528   C     0.27193   0.35530   0.88588   0.00000  Uiso   1.00
C529   C     0.25169   0.42130   0.88087   0.00000  Uiso   1.00
H530   H     0.02950   0.33690   0.89473   0.00000  Uiso   1.00
H531   H     0.02064   0.27919   0.79823   0.00000  Uiso   1.00
H532   H     0.98442   0.29343   0.00150   0.00000  Uiso   1.00
H533   H     0.06259   0.44722   0.88434   0.00000  Uiso   1.00
H534   H     0.04365   0.20077   0.69150   0.00000  Uiso   1.00
H535   H     0.96729   0.23081   0.12012   0.00000  Uiso   1.00
H536   H     0.13212   0.55511   0.87306   0.00000  Uiso   1.00
H537   H     0.28258   0.22576   0.89660   0.00000  Uiso   1.00
H538   H     0.28761   0.16195   0.80020   0.00000  Uiso   1.00
H539   H     0.25139   0.17619   0.00347   0.00000  Uiso   1.00
H540   H     0.32956   0.32998   0.88631   0.00000  Uiso   1.00
H541   H     0.26033   0.10561   0.69310   0.00000  Uiso   1.00
H542   H     0.18398   0.13566   0.12172   0.00000  Uiso   1.00
H543   H     0.34880   0.45995   0.87465   0.00000  Uiso   1.00
O544   O     0.15073   0.11320   0.62886   0.00000  Uiso   1.00
O545   O     0.05055   0.15263   0.19120   0.00000  Uiso   1.00
O546   O     0.26679   0.57810   0.86705   0.00000  Uiso   1.00
N547   N     0.09396   0.18714   0.70510   0.00000  Uiso   1.00
N548   N     0.02257   0.21522   0.10583   0.00000  Uiso   1.00
N549   N     0.17666   0.51841   0.87486   0.00000  Uiso   1.00
N550   N     0.21056   0.13593   0.70596   0.00000  Uiso   1.00
N551   N     0.13916   0.16402   0.10669   0.00000  Uiso   1.00
N552   N     0.29326   0.46721   0.87572   0.00000  Uiso   1.00
