data_job_06167
_audit_creation_date              2018-12-19
_audit_creation_method            'Materials Studio'
_symmetry_space_group_name_H-M    'P1'
_symmetry_Int_Tables_number       1
_symmetry_cell_setting            triclinic
loop_
_symmetry_equiv_pos_as_xyz
  x,y,z
_cell_length_a                    21.4173
_cell_length_b                    21.8360
_cell_length_c                    21.9019
_cell_angle_alpha                 70.1140
_cell_angle_beta                  71.1951
_cell_angle_gamma                 108.7415
loop_
_atom_site_label
_atom_site_type_symbol
_atom_site_fract_x
_atom_site_fract_y
_atom_site_fract_z
_atom_site_U_iso_or_equiv
_atom_site_adp_type
_atom_site_occupancy
C1     C     0.68240   0.39023   0.92313   0.00000  Uiso   1.00
C2     C     0.69206   0.32690   0.91457   0.00000  Uiso   1.00
C3     C     0.64292   0.27334   0.90778   0.00000  Uiso   1.00
C4     C     0.66177   0.22007   0.90051   0.00000  Uiso   1.00
C5     C     0.66676   0.12166   0.88733   0.00000  Uiso   1.00
C6     C     0.68418   0.38244   0.99436   0.00000  Uiso   1.00
C7     C     0.62841   0.37558   0.05464   0.00000  Uiso   1.00
C8     C     0.64064   0.36907   0.11453   0.00000  Uiso   1.00
C9     C     0.63341   0.35694   0.22518   0.00000  Uiso   1.00
C10    C     0.75380   0.46180   0.85990   0.00000  Uiso   1.00
C11    C     0.75659   0.52168   0.80715   0.00000  Uiso   1.00
C12    C     0.82744   0.58200   0.75385   0.00000  Uiso   1.00
C13    C     0.92832   0.69309   0.65575   0.00000  Uiso   1.00
C14    C     0.80328   0.39088   0.92229   0.00000  Uiso   1.00
C15    C     0.75771   0.32726   0.91412   0.00000  Uiso   1.00
C16    C     0.77665   0.27406   0.90685   0.00000  Uiso   1.00
C17    C     0.72755   0.22043   0.90005   0.00000  Uiso   1.00
C18    C     0.74983   0.38279   0.99390   0.00000  Uiso   1.00
C19    C     0.76214   0.37630   0.05371   0.00000  Uiso   1.00
C20    C     0.70641   0.36943   0.11407   0.00000  Uiso   1.00
C21    C     0.81946   0.46215   0.85945   0.00000  Uiso   1.00
C22    C     0.89032   0.52240   0.80622   0.00000  Uiso   1.00
C23    C     0.89321   0.58236   0.75339   0.00000  Uiso   1.00
H24    H     0.63129   0.38996   0.92349   0.00000  Uiso   1.00
H25    H     0.59211   0.27308   0.90815   0.00000  Uiso   1.00
H26    H     0.57761   0.37531   0.05497   0.00000  Uiso   1.00
H27    H     0.70577   0.52139   0.80752   0.00000  Uiso   1.00
H28    H     0.57762   0.14364   0.89096   0.00000  Uiso   1.00
H29    H     0.54705   0.35923   0.20054   0.00000  Uiso   1.00
H30    H     0.81729   0.66726   0.67874   0.00000  Uiso   1.00
H31    H     0.85439   0.39116   0.92194   0.00000  Uiso   1.00
H32    H     0.82746   0.27435   0.90650   0.00000  Uiso   1.00
H33    H     0.81296   0.37658   0.05333   0.00000  Uiso   1.00
H34    H     0.94111   0.52265   0.80588   0.00000  Uiso   1.00
H35    H     0.76863   0.14467   0.88963   0.00000  Uiso   1.00
H36    H     0.73807   0.36026   0.19922   0.00000  Uiso   1.00
H37    H     0.00831   0.66829   0.67741   0.00000  Uiso   1.00
O38    O     0.65137   0.06727   0.88019   0.00000  Uiso   1.00
O39    O     0.61128   0.35014   0.28635   0.00000  Uiso   1.00
O40    O     0.96582   0.75425   0.60176   0.00000  Uiso   1.00
N41    N     0.62628   0.15992   0.89275   0.00000  Uiso   1.00
N42    N     0.59770   0.36147   0.18220   0.00000  Uiso   1.00
N43    N     0.85035   0.64946   0.69437   0.00000  Uiso   1.00
N44    N     0.72906   0.16047   0.89203   0.00000  Uiso   1.00
N45    N     0.70048   0.36203   0.18148   0.00000  Uiso   1.00
N46    N     0.95313   0.65002   0.69365   0.00000  Uiso   1.00
C47    C     0.29400   0.68793   0.38753   0.00000  Uiso   1.00
C48    C     0.36605   0.75923   0.32490   0.00000  Uiso   1.00
C49    C     0.36998   0.81942   0.27137   0.00000  Uiso   1.00
C50    C     0.44126   0.87939   0.21880   0.00000  Uiso   1.00
C51    C     0.54326   0.99013   0.12139   0.00000  Uiso   1.00
C52    C     0.30357   0.62434   0.37958   0.00000  Uiso   1.00
C53    C     0.25497   0.57110   0.37203   0.00000  Uiso   1.00
C54    C     0.27365   0.51751   0.36550   0.00000  Uiso   1.00
C55    C     0.27863   0.41879   0.35303   0.00000  Uiso   1.00
C56    C     0.29432   0.67987   0.45935   0.00000  Uiso   1.00
C57    C     0.23794   0.67331   0.51889   0.00000  Uiso   1.00
C58    C     0.24883   0.66646   0.57954   0.00000  Uiso   1.00
C59    C     0.23945   0.65396   0.69092   0.00000  Uiso   1.00
C60    C     0.41359   0.68741   0.38936   0.00000  Uiso   1.00
C61    C     0.43101   0.75894   0.32589   0.00000  Uiso   1.00
C62    C     0.50230   0.81884   0.27340   0.00000  Uiso   1.00
C63    C     0.50634   0.87911   0.21980   0.00000  Uiso   1.00
C64    C     0.36853   0.62405   0.38057   0.00000  Uiso   1.00
C65    C     0.38729   0.57052   0.37405   0.00000  Uiso   1.00
C66    C     0.33873   0.51723   0.36649   0.00000  Uiso   1.00
C67    C     0.35929   0.67959   0.46035   0.00000  Uiso   1.00
C68    C     0.37026   0.67273   0.52091   0.00000  Uiso   1.00
C69    C     0.31391   0.66617   0.58053   0.00000  Uiso   1.00
H70    H     0.24342   0.68815   0.38676   0.00000  Uiso   1.00
H71    H     0.31969   0.81962   0.27062   0.00000  Uiso   1.00
H72    H     0.20470   0.57133   0.37127   0.00000  Uiso   1.00
H73    H     0.18767   0.67353   0.51811   0.00000  Uiso   1.00
H74    H     0.43291   0.96523   0.14228   0.00000  Uiso   1.00
H75    H     0.19042   0.44170   0.35454   0.00000  Uiso   1.00
H76    H     0.15452   0.65720   0.66417   0.00000  Uiso   1.00
H77    H     0.46417   0.68719   0.39013   0.00000  Uiso   1.00
H78    H     0.55257   0.81861   0.27418   0.00000  Uiso   1.00
H79    H     0.43756   0.57032   0.37483   0.00000  Uiso   1.00
H80    H     0.42054   0.67252   0.52166   0.00000  Uiso   1.00
H81    H     0.62192   0.96441   0.14517   0.00000  Uiso   1.00
H82    H     0.37942   0.44088   0.35743   0.00000  Uiso   1.00
H83    H     0.34352   0.65638   0.66706   0.00000  Uiso   1.00
O84    O     0.58158   0.05128   0.06738   0.00000  Uiso   1.00
O85    O     0.26343   0.36442   0.34586   0.00000  Uiso   1.00
O86    O     0.21633   0.64715   0.75208   0.00000  Uiso   1.00
N87    N     0.46526   0.94701   0.15889   0.00000  Uiso   1.00
N88    N     0.23855   0.45755   0.35732   0.00000  Uiso   1.00
N89    N     0.20498   0.65900   0.64681   0.00000  Uiso   1.00
N90    N     0.56697   0.94657   0.16044   0.00000  Uiso   1.00
N91    N     0.34025   0.45710   0.35887   0.00000  Uiso   1.00
N92    N     0.30668   0.65856   0.64836   0.00000  Uiso   1.00
C93    C     0.60397   0.92473   0.68681   0.00000  Uiso   1.00
C94    C     0.60522   0.91632   0.75837   0.00000  Uiso   1.00
C95    C     0.54967   0.91023   0.81823   0.00000  Uiso   1.00
C96    C     0.56134   0.90299   0.87853   0.00000  Uiso   1.00
C97    C     0.55342   0.89014   0.98958   0.00000  Uiso   1.00
C98    C     0.67621   0.99568   0.62391   0.00000  Uiso   1.00
C99    C     0.68035   0.05630   0.57072   0.00000  Uiso   1.00
C100   C     0.75178   0.11585   0.51783   0.00000  Uiso   1.00
C101   C     0.85408   0.22619   0.42010   0.00000  Uiso   1.00
C102   C     0.61238   0.86080   0.67857   0.00000  Uiso   1.00
C103   C     0.56286   0.80802   0.67132   0.00000  Uiso   1.00
C104   C     0.58056   0.75403   0.66443   0.00000  Uiso   1.00
C105   C     0.58376   0.65495   0.65157   0.00000  Uiso   1.00
C106   C     0.72347   0.92271   0.68745   0.00000  Uiso   1.00
C107   C     0.67013   0.91523   0.75871   0.00000  Uiso   1.00
C108   C     0.68188   0.90799   0.81894   0.00000  Uiso   1.00
C109   C     0.62636   0.90188   0.87888   0.00000  Uiso   1.00
C110   C     0.74112   0.99458   0.62426   0.00000  Uiso   1.00
C111   C     0.81256   0.05406   0.57143   0.00000  Uiso   1.00
C112   C     0.81681   0.11475   0.51817   0.00000  Uiso   1.00
C113   C     0.67729   0.85970   0.67892   0.00000  Uiso   1.00
C114   C     0.69507   0.80579   0.67203   0.00000  Uiso   1.00
C115   C     0.64559   0.75293   0.66477   0.00000  Uiso   1.00
H116   H     0.55345   0.92559   0.68653   0.00000  Uiso   1.00
H117   H     0.49945   0.91109   0.81793   0.00000  Uiso   1.00
H118   H     0.63011   0.05713   0.57046   0.00000  Uiso   1.00
H119   H     0.51264   0.80889   0.67105   0.00000  Uiso   1.00
H120   H     0.46823   0.89455   0.96376   0.00000  Uiso   1.00
H121   H     0.74374   0.20248   0.44193   0.00000  Uiso   1.00
H122   H     0.49602   0.67902   0.65405   0.00000  Uiso   1.00
H123   H     0.77401   0.92185   0.68772   0.00000  Uiso   1.00
H124   H     0.73212   0.90714   0.81919   0.00000  Uiso   1.00
H125   H     0.86278   0.05319   0.57171   0.00000  Uiso   1.00
H126   H     0.74531   0.80495   0.67230   0.00000  Uiso   1.00
H127   H     0.65707   0.89136   0.96478   0.00000  Uiso   1.00
H128   H     0.93258   0.19929   0.44295   0.00000  Uiso   1.00
H129   H     0.68486   0.67583   0.65507   0.00000  Uiso   1.00
O130   O     0.53112   0.88337   0.05073   0.00000  Uiso   1.00
O131   O     0.89258   0.28735   0.36610   0.00000  Uiso   1.00
O132   O     0.56758   0.60059   0.64439   0.00000  Uiso   1.00
N133   N     0.51841   0.89580   0.94597   0.00000  Uiso   1.00
N134   N     0.77600   0.18370   0.45809   0.00000  Uiso   1.00
N135   N     0.54442   0.69433   0.65638   0.00000  Uiso   1.00
N136   N     0.62003   0.89408   0.94651   0.00000  Uiso   1.00
N137   N     0.87761   0.18198   0.45864   0.00000  Uiso   1.00
N138   N     0.64603   0.69261   0.65693   0.00000  Uiso   1.00
C139   C     0.31760   0.60977   0.07687   0.00000  Uiso   1.00
C140   C     0.30794   0.67310   0.08543   0.00000  Uiso   1.00
C141   C     0.35708   0.72666   0.09222   0.00000  Uiso   1.00
C142   C     0.33823   0.77993   0.09949   0.00000  Uiso   1.00
C143   C     0.33324   0.87834   0.11267   0.00000  Uiso   1.00
C144   C     0.31583   0.61756   0.00565   0.00000  Uiso   1.00
C145   C     0.37159   0.62442   0.94536   0.00000  Uiso   1.00
C146   C     0.35936   0.63093   0.88547   0.00000  Uiso   1.00
C147   C     0.36659   0.64306   0.77482   0.00000  Uiso   1.00
C148   C     0.24620   0.53820   0.14010   0.00000  Uiso   1.00
C149   C     0.24342   0.47832   0.19285   0.00000  Uiso   1.00
C150   C     0.17256   0.41800   0.24615   0.00000  Uiso   1.00
C151   C     0.07169   0.30691   0.34425   0.00000  Uiso   1.00
C152   C     0.19672   0.60912   0.07771   0.00000  Uiso   1.00
C153   C     0.24229   0.67274   0.08588   0.00000  Uiso   1.00
C154   C     0.22335   0.72594   0.09315   0.00000  Uiso   1.00
C155   C     0.27245   0.77957   0.09995   0.00000  Uiso   1.00
C156   C     0.25017   0.61721   0.00610   0.00000  Uiso   1.00
C157   C     0.23786   0.62370   0.94629   0.00000  Uiso   1.00
C158   C     0.29359   0.63057   0.88593   0.00000  Uiso   1.00
C159   C     0.18054   0.53785   0.14056   0.00000  Uiso   1.00
C160   C     0.10968   0.47760   0.19378   0.00000  Uiso   1.00
C161   C     0.10679   0.41764   0.24661   0.00000  Uiso   1.00
H162   H     0.36871   0.61004   0.07651   0.00000  Uiso   1.00
H163   H     0.40789   0.72692   0.09185   0.00000  Uiso   1.00
H164   H     0.42239   0.62469   0.94503   0.00000  Uiso   1.00
H165   H     0.29423   0.47861   0.19248   0.00000  Uiso   1.00
H166   H     0.42238   0.85636   0.10904   0.00000  Uiso   1.00
H167   H     0.45295   0.64077   0.79946   0.00000  Uiso   1.00
H168   H     0.18271   0.33274   0.32126   0.00000  Uiso   1.00
H169   H     0.14561   0.60884   0.07806   0.00000  Uiso   1.00
H170   H     0.17254   0.72565   0.09350   0.00000  Uiso   1.00
H171   H     0.18704   0.62342   0.94667   0.00000  Uiso   1.00
H172   H     0.05889   0.47735   0.19412   0.00000  Uiso   1.00
H173   H     0.23137   0.85533   0.11037   0.00000  Uiso   1.00
H174   H     0.26193   0.63974   0.80078   0.00000  Uiso   1.00
H175   H     0.99169   0.33171   0.32259   0.00000  Uiso   1.00
O176   O     0.34863   0.93273   0.11981   0.00000  Uiso   1.00
O177   O     0.38872   0.64986   0.71365   0.00000  Uiso   1.00
O178   O     0.03418   0.24575   0.39824   0.00000  Uiso   1.00
N179   N     0.37372   0.84008   0.10725   0.00000  Uiso   1.00
N180   N     0.40231   0.63853   0.81780   0.00000  Uiso   1.00
N181   N     0.14965   0.35054   0.30563   0.00000  Uiso   1.00
N182   N     0.27094   0.83953   0.10797   0.00000  Uiso   1.00
N183   N     0.29952   0.63797   0.81852   0.00000  Uiso   1.00
N184   N     0.04687   0.34998   0.30635   0.00000  Uiso   1.00
C185   C     0.70601   0.31207   0.61247   0.00000  Uiso   1.00
C186   C     0.63395   0.24077   0.67510   0.00000  Uiso   1.00
C187   C     0.63002   0.18058   0.72863   0.00000  Uiso   1.00
C188   C     0.55874   0.12061   0.78120   0.00000  Uiso   1.00
C189   C     0.45674   0.00987   0.87861   0.00000  Uiso   1.00
C190   C     0.69643   0.37566   0.62042   0.00000  Uiso   1.00
C191   C     0.74503   0.42890   0.62797   0.00000  Uiso   1.00
C192   C     0.72635   0.48249   0.63450   0.00000  Uiso   1.00
C193   C     0.72137   0.58121   0.64697   0.00000  Uiso   1.00
C194   C     0.70568   0.32013   0.54065   0.00000  Uiso   1.00
C195   C     0.76206   0.32669   0.48111   0.00000  Uiso   1.00
C196   C     0.75117   0.33354   0.42046   0.00000  Uiso   1.00
C197   C     0.76056   0.34604   0.30908   0.00000  Uiso   1.00
C198   C     0.58641   0.31259   0.61064   0.00000  Uiso   1.00
C199   C     0.56899   0.24106   0.67410   0.00000  Uiso   1.00
C200   C     0.49770   0.18116   0.72660   0.00000  Uiso   1.00
C201   C     0.49366   0.12089   0.78020   0.00000  Uiso   1.00
C202   C     0.63147   0.37595   0.61943   0.00000  Uiso   1.00
C203   C     0.61271   0.42948   0.62595   0.00000  Uiso   1.00
C204   C     0.66127   0.48277   0.63351   0.00000  Uiso   1.00
C205   C     0.64071   0.32041   0.53965   0.00000  Uiso   1.00
C206   C     0.62974   0.32727   0.47909   0.00000  Uiso   1.00
C207   C     0.68609   0.33383   0.41947   0.00000  Uiso   1.00
H208   H     0.75658   0.31185   0.61324   0.00000  Uiso   1.00
H209   H     0.68031   0.18038   0.72938   0.00000  Uiso   1.00
H210   H     0.79530   0.42867   0.62873   0.00000  Uiso   1.00
H211   H     0.81233   0.32647   0.48189   0.00000  Uiso   1.00
H212   H     0.56709   0.03477   0.85772   0.00000  Uiso   1.00
H213   H     0.80958   0.55830   0.64546   0.00000  Uiso   1.00
H214   H     0.84548   0.34280   0.33583   0.00000  Uiso   1.00
H215   H     0.53583   0.31281   0.60987   0.00000  Uiso   1.00
H216   H     0.44743   0.18139   0.72582   0.00000  Uiso   1.00
H217   H     0.56244   0.42968   0.62517   0.00000  Uiso   1.00
H218   H     0.57946   0.32748   0.47834   0.00000  Uiso   1.00
H219   H     0.37808   0.03559   0.85483   0.00000  Uiso   1.00
H220   H     0.62058   0.55912   0.64257   0.00000  Uiso   1.00
H221   H     0.65648   0.34362   0.33294   0.00000  Uiso   1.00
O222   O     0.41842   0.94872   0.93263   0.00000  Uiso   1.00
O223   O     0.73657   0.63558   0.65414   0.00000  Uiso   1.00
O224   O     0.78367   0.35285   0.24792   0.00000  Uiso   1.00
N225   N     0.53474   0.05299   0.84111   0.00000  Uiso   1.00
N226   N     0.76145   0.54245   0.64268   0.00000  Uiso   1.00
N227   N     0.79502   0.34100   0.35319   0.00000  Uiso   1.00
N228   N     0.43304   0.05343   0.83956   0.00000  Uiso   1.00
N229   N     0.65975   0.54290   0.64113   0.00000  Uiso   1.00
N230   N     0.69332   0.34144   0.35164   0.00000  Uiso   1.00
C231   C     0.39603   0.07527   0.31319   0.00000  Uiso   1.00
C232   C     0.39478   0.08368   0.24163   0.00000  Uiso   1.00
C233   C     0.45033   0.08977   0.18177   0.00000  Uiso   1.00
C234   C     0.43866   0.09701   0.12147   0.00000  Uiso   1.00
C235   C     0.44658   0.10986   0.01042   0.00000  Uiso   1.00
C236   C     0.32379   0.00432   0.37609   0.00000  Uiso   1.00
C237   C     0.31965   0.94370   0.42928   0.00000  Uiso   1.00
C238   C     0.24822   0.88415   0.48217   0.00000  Uiso   1.00
C239   C     0.14592   0.77381   0.57990   0.00000  Uiso   1.00
C240   C     0.38762   0.13920   0.32143   0.00000  Uiso   1.00
C241   C     0.43714   0.19198   0.32868   0.00000  Uiso   1.00
C242   C     0.41944   0.24597   0.33557   0.00000  Uiso   1.00
C243   C     0.41624   0.34505   0.34843   0.00000  Uiso   1.00
C244   C     0.27653   0.07729   0.31255   0.00000  Uiso   1.00
C245   C     0.32987   0.08477   0.24129   0.00000  Uiso   1.00
C246   C     0.31812   0.09201   0.18106   0.00000  Uiso   1.00
C247   C     0.37364   0.09812   0.12112   0.00000  Uiso   1.00
C248   C     0.25888   0.00542   0.37574   0.00000  Uiso   1.00
C249   C     0.18744   0.94594   0.42857   0.00000  Uiso   1.00
C250   C     0.18319   0.88525   0.48183   0.00000  Uiso   1.00
C251   C     0.32271   0.14030   0.32108   0.00000  Uiso   1.00
C252   C     0.30493   0.19421   0.32797   0.00000  Uiso   1.00
C253   C     0.35441   0.24707   0.33523   0.00000  Uiso   1.00
H254   H     0.44655   0.07441   0.31347   0.00000  Uiso   1.00
H255   H     0.50055   0.08891   0.18207   0.00000  Uiso   1.00
H256   H     0.36989   0.94287   0.42954   0.00000  Uiso   1.00
H257   H     0.48736   0.19111   0.32895   0.00000  Uiso   1.00
H258   H     0.53177   0.10545   0.03624   0.00000  Uiso   1.00
H259   H     0.25626   0.79752   0.55807   0.00000  Uiso   1.00
H260   H     0.50398   0.32098   0.34595   0.00000  Uiso   1.00
H261   H     0.22599   0.07815   0.31228   0.00000  Uiso   1.00
H262   H     0.26788   0.09286   0.18081   0.00000  Uiso   1.00
H263   H     0.13722   0.94681   0.42829   0.00000  Uiso   1.00
H264   H     0.25469   0.19505   0.32770   0.00000  Uiso   1.00
H265   H     0.34293   0.10864   0.03522   0.00000  Uiso   1.00
H266   H     0.06742   0.80071   0.55705   0.00000  Uiso   1.00
H267   H     0.31514   0.32417   0.34494   0.00000  Uiso   1.00
O268   O     0.46888   0.11663   0.94927   0.00000  Uiso   1.00
O269   O     0.10742   0.71265   0.63390   0.00000  Uiso   1.00
O270   O     0.43242   0.39941   0.35561   0.00000  Uiso   1.00
N271   N     0.48159   0.10420   0.05403   0.00000  Uiso   1.00
N272   N     0.22400   0.81630   0.54191   0.00000  Uiso   1.00
N273   N     0.45558   0.30567   0.34362   0.00000  Uiso   1.00
N274   N     0.37997   0.10592   0.05349   0.00000  Uiso   1.00
N275   N     0.12239   0.81802   0.54136   0.00000  Uiso   1.00
N276   N     0.35397   0.30739   0.34307   0.00000  Uiso   1.00
