data_job_05003
_audit_creation_date              2018-12-19
_audit_creation_method            'Materials Studio'
_symmetry_space_group_name_H-M    'P1'
_symmetry_Int_Tables_number       1
_symmetry_cell_setting            triclinic
loop_
_symmetry_equiv_pos_as_xyz
  x,y,z
_cell_length_a                    22.8272
_cell_length_b                    12.3813
_cell_length_c                    19.4428
_cell_angle_alpha                 90.0000
_cell_angle_beta                  151.3877
_cell_angle_gamma                 90.0000
loop_
_atom_site_label
_atom_site_type_symbol
_atom_site_fract_x
_atom_site_fract_y
_atom_site_fract_z
_atom_site_U_iso_or_equiv
_atom_site_adp_type
_atom_site_occupancy
C1     C     0.81088   0.74612   0.71061   0.00000  Uiso   1.00
C2     C     0.71124   0.83000   0.59531   0.00000  Uiso   1.00
C3     C     0.72621   0.92719   0.57619   0.00000  Uiso   1.00
C4     C     0.62381   0.99282   0.46456   0.00000  Uiso   1.00
C5     C     0.48633   0.12775   0.29914   0.00000  Uiso   1.00
C6     C     0.81543   0.72912   0.79294   0.00000  Uiso   1.00
C7     C     0.91800   0.74147   0.93997   0.00000  Uiso   1.00
C8     C     0.90331   0.72217   0.99469   0.00000  Uiso   1.00
C9     C     0.92761   0.70040   0.13610   0.00000  Uiso   1.00
C10    C     0.76312   0.64068   0.63103   0.00000  Uiso   1.00
C11    C     0.82174   0.57864   0.64196   0.00000  Uiso   1.00
C12    C     0.76302   0.48486   0.56039   0.00000  Uiso   1.00
C13    C     0.70610   0.32577   0.45042   0.00000  Uiso   1.00
C14    C     0.60241   0.68986   0.54635   0.00000  Uiso   1.00
C15    C     0.59800   0.79945   0.50610   0.00000  Uiso   1.00
C16    C     0.49555   0.86495   0.39445   0.00000  Uiso   1.00
C17    C     0.51037   0.96221   0.37517   0.00000  Uiso   1.00
C18    C     0.70220   0.69857   0.70372   0.00000  Uiso   1.00
C19    C     0.68735   0.67924   0.75823   0.00000  Uiso   1.00
C20    C     0.78987   0.69156   0.90531   0.00000  Uiso   1.00
C21    C     0.64988   0.61012   0.54180   0.00000  Uiso   1.00
C22    C     0.59107   0.51641   0.46021   0.00000  Uiso   1.00
C23    C     0.64958   0.45425   0.47101   0.00000  Uiso   1.00
H24    H     0.89904   0.76990   0.78008   0.00000  Uiso   1.00
H25    H     0.81386   0.95081   0.64527   0.00000  Uiso   1.00
H26    H     0.00562   0.76511   0.00899   0.00000  Uiso   1.00
H27    H     0.90936   0.60231   0.71102   0.00000  Uiso   1.00
H28    H     0.66949   0.13792   0.45650   0.00000  Uiso   1.00
H29    H     0.07384   0.74633   0.22343   0.00000  Uiso   1.00
H30    H     0.87087   0.40303   0.59510   0.00000  Uiso   1.00
H31    H     0.51425   0.66607   0.47688   0.00000  Uiso   1.00
H32    H     0.40794   0.84128   0.32542   0.00000  Uiso   1.00
H33    H     0.59971   0.65559   0.68915   0.00000  Uiso   1.00
H34    H     0.50345   0.49279   0.39118   0.00000  Uiso   1.00
H35    H     0.34003   0.04903   0.19690   0.00000  Uiso   1.00
H36    H     0.74439   0.65743   0.96384   0.00000  Uiso   1.00
H37    H     0.54141   0.31414   0.33550   0.00000  Uiso   1.00
O38    O     0.44178   0.21062   0.23257   0.00000  Uiso   1.00
O39    O     0.97229   0.69685   0.23876   0.00000  Uiso   1.00
O40    O     0.70598   0.24646   0.41439   0.00000  Uiso   1.00
N41    N     0.60653   0.09294   0.41617   0.00000  Uiso   1.00
N42    N     0.98458   0.72685   0.13320   0.00000  Uiso   1.00
N43    N     0.79483   0.40588   0.54579   0.00000  Uiso   1.00
N44    N     0.42925   0.04511   0.27648   0.00000  Uiso   1.00
N45    N     0.80730   0.67902   0.99352   0.00000  Uiso   1.00
N46    N     0.61755   0.35805   0.40611   0.00000  Uiso   1.00
C47    C     0.18912   0.24612   0.78939   0.00000  Uiso   1.00
C48    C     0.28876   0.33000   0.90469   0.00000  Uiso   1.00
C49    C     0.27379   0.42719   0.92381   0.00000  Uiso   1.00
C50    C     0.37619   0.49282   0.03544   0.00000  Uiso   1.00
C51    C     0.51367   0.62775   0.20086   0.00000  Uiso   1.00
C52    C     0.18457   0.22912   0.70706   0.00000  Uiso   1.00
C53    C     0.08200   0.24147   0.56003   0.00000  Uiso   1.00
C54    C     0.09669   0.22217   0.50531   0.00000  Uiso   1.00
C55    C     0.07239   0.20040   0.36390   0.00000  Uiso   1.00
C56    C     0.23688   0.14068   0.86897   0.00000  Uiso   1.00
C57    C     0.17826   0.07864   0.85804   0.00000  Uiso   1.00
C58    C     0.23698   0.98486   0.93961   0.00000  Uiso   1.00
C59    C     0.29390   0.82577   0.04958   0.00000  Uiso   1.00
C60    C     0.39759   0.18986   0.95365   0.00000  Uiso   1.00
C61    C     0.40200   0.29945   0.99390   0.00000  Uiso   1.00
C62    C     0.50445   0.36495   0.10555   0.00000  Uiso   1.00
C63    C     0.48963   0.46221   0.12483   0.00000  Uiso   1.00
C64    C     0.29780   0.19857   0.79628   0.00000  Uiso   1.00
C65    C     0.31265   0.17924   0.74177   0.00000  Uiso   1.00
C66    C     0.21013   0.19156   0.59469   0.00000  Uiso   1.00
C67    C     0.35012   0.11012   0.95820   0.00000  Uiso   1.00
C68    C     0.40893   0.01641   0.03979   0.00000  Uiso   1.00
C69    C     0.35042   0.95425   0.02899   0.00000  Uiso   1.00
H70    H     0.10096   0.26990   0.71992   0.00000  Uiso   1.00
H71    H     0.18614   0.45081   0.85473   0.00000  Uiso   1.00
H72    H     0.99438   0.26511   0.49101   0.00000  Uiso   1.00
H73    H     0.09064   0.10231   0.78898   0.00000  Uiso   1.00
H74    H     0.33051   0.63792   0.04350   0.00000  Uiso   1.00
H75    H     0.92616   0.24633   0.27657   0.00000  Uiso   1.00
H76    H     0.12913   0.90303   0.90490   0.00000  Uiso   1.00
H77    H     0.48575   0.16607   0.02312   0.00000  Uiso   1.00
H78    H     0.59206   0.34128   0.17458   0.00000  Uiso   1.00
H79    H     0.40029   0.15559   0.81085   0.00000  Uiso   1.00
H80    H     0.49655   0.99279   0.10882   0.00000  Uiso   1.00
H81    H     0.65997   0.54903   0.30310   0.00000  Uiso   1.00
H82    H     0.25561   0.15743   0.53616   0.00000  Uiso   1.00
H83    H     0.45859   0.81414   0.16450   0.00000  Uiso   1.00
O84    O     0.55822   0.71062   0.26743   0.00000  Uiso   1.00
O85    O     0.02771   0.19685   0.26124   0.00000  Uiso   1.00
O86    O     0.29402   0.74646   0.08561   0.00000  Uiso   1.00
N87    N     0.39347   0.59294   0.08383   0.00000  Uiso   1.00
N88    N     0.01542   0.22685   0.36680   0.00000  Uiso   1.00
N89    N     0.20517   0.90588   0.95421   0.00000  Uiso   1.00
N90    N     0.57075   0.54511   0.22352   0.00000  Uiso   1.00
N91    N     0.19270   0.17902   0.50648   0.00000  Uiso   1.00
N92    N     0.38245   0.85805   0.09389   0.00000  Uiso   1.00
C93    C     0.18912   0.25388   0.28939   0.00000  Uiso   1.00
C94    C     0.28876   0.17000   0.40469   0.00000  Uiso   1.00
C95    C     0.27379   0.07281   0.42381   0.00000  Uiso   1.00
C96    C     0.37619   0.00718   0.53544   0.00000  Uiso   1.00
C97    C     0.51367   0.87225   0.70086   0.00000  Uiso   1.00
C98    C     0.18457   0.27088   0.20706   0.00000  Uiso   1.00
C99    C     0.08200   0.25853   0.06003   0.00000  Uiso   1.00
C100   C     0.09669   0.27783   0.00531   0.00000  Uiso   1.00
C101   C     0.07239   0.29960   0.86390   0.00000  Uiso   1.00
C102   C     0.23688   0.35932   0.36897   0.00000  Uiso   1.00
C103   C     0.17826   0.42136   0.35804   0.00000  Uiso   1.00
C104   C     0.23698   0.51514   0.43961   0.00000  Uiso   1.00
C105   C     0.29390   0.67423   0.54958   0.00000  Uiso   1.00
C106   C     0.39759   0.31014   0.45365   0.00000  Uiso   1.00
C107   C     0.40200   0.20055   0.49390   0.00000  Uiso   1.00
C108   C     0.50445   0.13505   0.60555   0.00000  Uiso   1.00
C109   C     0.48963   0.03779   0.62483   0.00000  Uiso   1.00
C110   C     0.29780   0.30143   0.29628   0.00000  Uiso   1.00
C111   C     0.31265   0.32076   0.24177   0.00000  Uiso   1.00
C112   C     0.21013   0.30844   0.09469   0.00000  Uiso   1.00
C113   C     0.35012   0.38988   0.45820   0.00000  Uiso   1.00
C114   C     0.40893   0.48359   0.53979   0.00000  Uiso   1.00
C115   C     0.35042   0.54575   0.52899   0.00000  Uiso   1.00
H116   H     0.10096   0.23010   0.21992   0.00000  Uiso   1.00
H117   H     0.18614   0.04919   0.35473   0.00000  Uiso   1.00
H118   H     0.99438   0.23489   0.99101   0.00000  Uiso   1.00
H119   H     0.09064   0.39769   0.28898   0.00000  Uiso   1.00
H120   H     0.33051   0.86208   0.54350   0.00000  Uiso   1.00
H121   H     0.92616   0.25367   0.77657   0.00000  Uiso   1.00
H122   H     0.12913   0.59697   0.40490   0.00000  Uiso   1.00
H123   H     0.48575   0.33393   0.52312   0.00000  Uiso   1.00
H124   H     0.59206   0.15872   0.67458   0.00000  Uiso   1.00
H125   H     0.40029   0.34441   0.31085   0.00000  Uiso   1.00
H126   H     0.49655   0.50721   0.60882   0.00000  Uiso   1.00
H127   H     0.65997   0.95097   0.80310   0.00000  Uiso   1.00
H128   H     0.25561   0.34257   0.03616   0.00000  Uiso   1.00
H129   H     0.45859   0.68586   0.66450   0.00000  Uiso   1.00
O130   O     0.55822   0.78938   0.76743   0.00000  Uiso   1.00
O131   O     0.02771   0.30315   0.76124   0.00000  Uiso   1.00
O132   O     0.29402   0.75354   0.58561   0.00000  Uiso   1.00
N133   N     0.39347   0.90706   0.58383   0.00000  Uiso   1.00
N134   N     0.01542   0.27315   0.86680   0.00000  Uiso   1.00
N135   N     0.20517   0.59412   0.45421   0.00000  Uiso   1.00
N136   N     0.57075   0.95489   0.72352   0.00000  Uiso   1.00
N137   N     0.19270   0.32098   0.00648   0.00000  Uiso   1.00
N138   N     0.38245   0.64195   0.59389   0.00000  Uiso   1.00
C139   C     0.81088   0.75388   0.21061   0.00000  Uiso   1.00
C140   C     0.71124   0.67000   0.09531   0.00000  Uiso   1.00
C141   C     0.72621   0.57281   0.07619   0.00000  Uiso   1.00
C142   C     0.62381   0.50718   0.96456   0.00000  Uiso   1.00
C143   C     0.48633   0.37225   0.79914   0.00000  Uiso   1.00
C144   C     0.81543   0.77088   0.29294   0.00000  Uiso   1.00
C145   C     0.91800   0.75853   0.43997   0.00000  Uiso   1.00
C146   C     0.90331   0.77783   0.49469   0.00000  Uiso   1.00
C147   C     0.92761   0.79960   0.63610   0.00000  Uiso   1.00
C148   C     0.76312   0.85932   0.13103   0.00000  Uiso   1.00
C149   C     0.82174   0.92136   0.14196   0.00000  Uiso   1.00
C150   C     0.76302   0.01514   0.06039   0.00000  Uiso   1.00
C151   C     0.70610   0.17423   0.95042   0.00000  Uiso   1.00
C152   C     0.60241   0.81014   0.04635   0.00000  Uiso   1.00
C153   C     0.59800   0.70055   0.00610   0.00000  Uiso   1.00
C154   C     0.49555   0.63505   0.89445   0.00000  Uiso   1.00
C155   C     0.51037   0.53779   0.87517   0.00000  Uiso   1.00
C156   C     0.70220   0.80143   0.20372   0.00000  Uiso   1.00
C157   C     0.68735   0.82076   0.25823   0.00000  Uiso   1.00
C158   C     0.78987   0.80844   0.40531   0.00000  Uiso   1.00
C159   C     0.64988   0.88988   0.04180   0.00000  Uiso   1.00
C160   C     0.59107   0.98359   0.96021   0.00000  Uiso   1.00
C161   C     0.64958   0.04575   0.97101   0.00000  Uiso   1.00
H162   H     0.89904   0.73010   0.28008   0.00000  Uiso   1.00
H163   H     0.81386   0.54919   0.14527   0.00000  Uiso   1.00
H164   H     0.00562   0.73489   0.50899   0.00000  Uiso   1.00
H165   H     0.90936   0.89769   0.21102   0.00000  Uiso   1.00
H166   H     0.66949   0.36208   0.95650   0.00000  Uiso   1.00
H167   H     0.07384   0.75367   0.72343   0.00000  Uiso   1.00
H168   H     0.87087   0.09697   0.09510   0.00000  Uiso   1.00
H169   H     0.51425   0.83393   0.97688   0.00000  Uiso   1.00
H170   H     0.40794   0.65872   0.82542   0.00000  Uiso   1.00
H171   H     0.59971   0.84441   0.18915   0.00000  Uiso   1.00
H172   H     0.50345   0.00721   0.89118   0.00000  Uiso   1.00
H173   H     0.34003   0.45097   0.69690   0.00000  Uiso   1.00
H174   H     0.74439   0.84257   0.46384   0.00000  Uiso   1.00
H175   H     0.54141   0.18586   0.83550   0.00000  Uiso   1.00
O176   O     0.44178   0.28938   0.73257   0.00000  Uiso   1.00
O177   O     0.97229   0.80315   0.73876   0.00000  Uiso   1.00
O178   O     0.70598   0.25354   0.91439   0.00000  Uiso   1.00
N179   N     0.60653   0.40706   0.91617   0.00000  Uiso   1.00
N180   N     0.98458   0.77315   0.63320   0.00000  Uiso   1.00
N181   N     0.79483   0.09412   0.04579   0.00000  Uiso   1.00
N182   N     0.42925   0.45489   0.77648   0.00000  Uiso   1.00
N183   N     0.80730   0.82098   0.49352   0.00000  Uiso   1.00
N184   N     0.61755   0.14195   0.90611   0.00000  Uiso   1.00
