data_job_01775
_audit_creation_date              2018-12-19
_audit_creation_method            'Materials Studio'
_symmetry_space_group_name_H-M    'P1'
_symmetry_Int_Tables_number       1
_symmetry_cell_setting            triclinic
loop_
_symmetry_equiv_pos_as_xyz
  x,y,z
_cell_length_a                    30.7439
_cell_length_b                    12.4444
_cell_length_c                    34.3244
_cell_angle_alpha                 90.0000
_cell_angle_beta                  157.0790
_cell_angle_gamma                 90.0000
loop_
_atom_site_label
_atom_site_type_symbol
_atom_site_fract_x
_atom_site_fract_y
_atom_site_fract_z
_atom_site_U_iso_or_equiv
_atom_site_adp_type
_atom_site_occupancy
C1     C     0.09308   0.16201   0.44201   0.00000  Uiso   1.00
C2     C     0.05484   0.15390   0.45274   0.00000  Uiso   1.00
C3     C     0.12023   0.17452   0.53922   0.00000  Uiso   1.00
C4     C     0.06975   0.16253   0.53373   0.00000  Uiso   1.00
C5     C     0.02740   0.15468   0.56391   0.00000  Uiso   1.00
C6     C     0.07038   0.05233   0.40512   0.00000  Uiso   1.00
C7     C     0.14883   0.98756   0.45156   0.00000  Uiso   1.00
C8     C     0.11142   0.89007   0.40598   0.00000  Uiso   1.00
C9     C     0.09318   0.72456   0.36219   0.00000  Uiso   1.00
C10    C     0.01291   0.24008   0.35612   0.00000  Uiso   1.00
C11    C     0.04305   0.33315   0.36134   0.00000  Uiso   1.00
C12    C     0.95727   0.39372   0.27449   0.00000  Uiso   1.00
C13    C     0.84980   0.51971   0.15462   0.00000  Uiso   1.00
C14    C     0.88715   0.10407   0.27848   0.00000  Uiso   1.00
C15    C     0.94298   0.12243   0.36391   0.00000  Uiso   1.00
C16    C     0.89239   0.11041   0.35829   0.00000  Uiso   1.00
C17    C     0.95770   0.13101   0.44475   0.00000  Uiso   1.00
C18    C     0.95853   0.02086   0.31630   0.00000  Uiso   1.00
C19    C     0.92099   0.92345   0.27063   0.00000  Uiso   1.00
C20    C     0.99937   0.85854   0.31699   0.00000  Uiso   1.00
C21    C     0.90106   0.20861   0.26729   0.00000  Uiso   1.00
C22    C     0.81521   0.26904   0.18042   0.00000  Uiso   1.00
C23    C     0.84521   0.36219   0.18551   0.00000  Uiso   1.00
H24    H     0.18017   0.18651   0.51117   0.00000  Uiso   1.00
H25    H     0.20679   0.19886   0.60795   0.00000  Uiso   1.00
H26    H     0.23538   0.01194   0.52029   0.00000  Uiso   1.00
H27    H     0.12962   0.35747   0.43009   0.00000  Uiso   1.00
H28    H     0.18700   0.19864   0.67608   0.00000  Uiso   1.00
H29    H     0.24727   0.80452   0.49124   0.00000  Uiso   1.00
H30    H     0.02425   0.53315   0.30104   0.00000  Uiso   1.00
H31    H     0.80006   0.07956   0.20933   0.00000  Uiso   1.00
H32    H     0.80583   0.08605   0.28954   0.00000  Uiso   1.00
H33    H     0.83442   0.89912   0.20189   0.00000  Uiso   1.00
H34    H     0.72866   0.24466   0.11169   0.00000  Uiso   1.00
H35    H     0.86156   0.10708   0.41766   0.00000  Uiso   1.00
H36    H     0.92184   0.71295   0.23282   0.00000  Uiso   1.00
H37    H     0.69882   0.44159   0.04261   0.00000  Uiso   1.00
O38    O     0.03494   0.15902   0.60510   0.00000  Uiso   1.00
O39    O     0.11402   0.64196   0.36259   0.00000  Uiso   1.00
O40    O     0.82142   0.59791   0.11305   0.00000  Uiso   1.00
N41    N     0.10961   0.17622   0.60425   0.00000  Uiso   1.00
N42    N     0.16597   0.80773   0.43144   0.00000  Uiso   1.00
N43    N     0.95747   0.48893   0.25361   0.00000  Uiso   1.00
N44    N     0.93450   0.12695   0.46519   0.00000  Uiso   1.00
N45    N     0.99085   0.75846   0.29239   0.00000  Uiso   1.00
N46    N     0.78235   0.43966   0.11456   0.00000  Uiso   1.00
C47    C     0.61248   0.74909   0.48900   0.00000  Uiso   1.00
C48    C     0.59325   0.75369   0.51702   0.00000  Uiso   1.00
C49    C     0.67065   0.78693   0.60845   0.00000  Uiso   1.00
C50    C     0.63693   0.78528   0.61932   0.00000  Uiso   1.00
C51    C     0.62340   0.79749   0.67468   0.00000  Uiso   1.00
C52    C     0.58812   0.63356   0.45677   0.00000  Uiso   1.00
C53    C     0.66121   0.56581   0.49754   0.00000  Uiso   1.00
C54    C     0.62315   0.46303   0.45768   0.00000  Uiso   1.00
C55    C     0.60164   0.28878   0.41946   0.00000  Uiso   1.00
C56    C     0.52071   0.81750   0.39503   0.00000  Uiso   1.00
C57    C     0.53711   0.90438   0.38386   0.00000  Uiso   1.00
C58    C     0.44229   0.95645   0.29201   0.00000  Uiso   1.00
C59    C     0.31611   0.06777   0.15791   0.00000  Uiso   1.00
C60    C     0.41493   0.68706   0.34572   0.00000  Uiso   1.00
C61    C     0.48595   0.71999   0.43919   0.00000  Uiso   1.00
C62    C     0.45209   0.71829   0.44993   0.00000  Uiso   1.00
C63    C     0.52943   0.75153   0.54136   0.00000  Uiso   1.00
C64    C     0.48082   0.59987   0.37895   0.00000  Uiso   1.00
C65    C     0.44265   0.49717   0.33902   0.00000  Uiso   1.00
C66    C     0.51566   0.42928   0.37972   0.00000  Uiso   1.00
C67    C     0.41341   0.78380   0.31720   0.00000  Uiso   1.00
C68    C     0.31855   0.83574   0.22534   0.00000  Uiso   1.00
C69    C     0.33480   0.92269   0.21404   0.00000  Uiso   1.00
H70    H     0.69602   0.77532   0.54959   0.00000  Uiso   1.00
H71    H     0.75369   0.81299   0.66866   0.00000  Uiso   1.00
H72    H     0.74423   0.59191   0.55776   0.00000  Uiso   1.00
H73    H     0.62016   0.93043   0.44410   0.00000  Uiso   1.00
H74    H     0.77031   0.83986   0.76637   0.00000  Uiso   1.00
H75    H     0.75037   0.37371   0.53250   0.00000  Uiso   1.00
H76    H     0.48873   0.08754   0.29283   0.00000  Uiso   1.00
H77    H     0.33139   0.66082   0.28512   0.00000  Uiso   1.00
H78    H     0.36905   0.69221   0.38969   0.00000  Uiso   1.00
H79    H     0.35960   0.47113   0.27879   0.00000  Uiso   1.00
H80    H     0.23553   0.80964   0.16513   0.00000  Uiso   1.00
H81    H     0.45813   0.74183   0.53994   0.00000  Uiso   1.00
H82    H     0.43819   0.27567   0.30608   0.00000  Uiso   1.00
H83    H     0.17655   0.98951   0.06641   0.00000  Uiso   1.00
O84    O     0.64559   0.81353   0.72672   0.00000  Uiso   1.00
O85    O     0.61942   0.20196   0.41989   0.00000  Uiso   1.00
O86    O     0.27615   0.13849   0.10545   0.00000  Uiso   1.00
N87    N     0.69167   0.81250   0.69872   0.00000  Uiso   1.00
N88    N     0.67303   0.37667   0.48008   0.00000  Uiso   1.00
N89    N     0.42842   0.04403   0.25600   0.00000  Uiso   1.00
N90    N     0.52368   0.75975   0.57688   0.00000  Uiso   1.00
N91    N     0.50505   0.32392   0.35825   0.00000  Uiso   1.00
N92    N     0.26043   0.99128   0.13416   0.00000  Uiso   1.00
C93    C     0.90692   0.66201   0.05799   0.00000  Uiso   1.00
C94    C     0.94516   0.65390   0.04726   0.00000  Uiso   1.00
C95    C     0.87977   0.67452   0.96078   0.00000  Uiso   1.00
C96    C     0.93025   0.66253   0.96627   0.00000  Uiso   1.00
C97    C     0.97260   0.65468   0.93609   0.00000  Uiso   1.00
C98    C     0.92962   0.55233   0.09488   0.00000  Uiso   1.00
C99    C     0.85117   0.48756   0.04844   0.00000  Uiso   1.00
C100   C     0.88858   0.39007   0.09402   0.00000  Uiso   1.00
C101   C     0.90682   0.22456   0.13781   0.00000  Uiso   1.00
C102   C     0.98709   0.74008   0.14388   0.00000  Uiso   1.00
C103   C     0.95695   0.83315   0.13866   0.00000  Uiso   1.00
C104   C     0.04273   0.89372   0.22551   0.00000  Uiso   1.00
C105   C     0.15020   0.01971   0.34538   0.00000  Uiso   1.00
C106   C     0.11285   0.60407   0.22152   0.00000  Uiso   1.00
C107   C     0.05702   0.62243   0.13609   0.00000  Uiso   1.00
C108   C     0.10761   0.61041   0.14171   0.00000  Uiso   1.00
C109   C     0.04230   0.63101   0.05525   0.00000  Uiso   1.00
C110   C     0.04147   0.52086   0.18370   0.00000  Uiso   1.00
C111   C     0.07901   0.42345   0.22937   0.00000  Uiso   1.00
C112   C     0.00063   0.35854   0.18301   0.00000  Uiso   1.00
C113   C     0.09894   0.70861   0.23271   0.00000  Uiso   1.00
C114   C     0.18479   0.76904   0.31958   0.00000  Uiso   1.00
C115   C     0.15479   0.86219   0.31449   0.00000  Uiso   1.00
H116   H     0.81983   0.68651   0.98883   0.00000  Uiso   1.00
H117   H     0.79321   0.69886   0.89205   0.00000  Uiso   1.00
H118   H     0.76462   0.51194   0.97971   0.00000  Uiso   1.00
H119   H     0.87038   0.85747   0.06991   0.00000  Uiso   1.00
H120   H     0.81300   0.69864   0.82392   0.00000  Uiso   1.00
H121   H     0.75273   0.30452   0.00876   0.00000  Uiso   1.00
H122   H     0.97575   0.03315   0.19896   0.00000  Uiso   1.00
H123   H     0.19994   0.57956   0.29067   0.00000  Uiso   1.00
H124   H     0.19417   0.58605   0.21046   0.00000  Uiso   1.00
H125   H     0.16558   0.39912   0.29811   0.00000  Uiso   1.00
H126   H     0.27134   0.74466   0.38831   0.00000  Uiso   1.00
H127   H     0.13844   0.60708   0.08234   0.00000  Uiso   1.00
H128   H     0.07816   0.21295   0.26718   0.00000  Uiso   1.00
H129   H     0.30118   0.94159   0.45739   0.00000  Uiso   1.00
O130   O     0.96506   0.65902   0.89490   0.00000  Uiso   1.00
O131   O     0.88598   0.14196   0.13741   0.00000  Uiso   1.00
O132   O     0.17858   0.09791   0.38695   0.00000  Uiso   1.00
N133   N     0.89039   0.67622   0.89575   0.00000  Uiso   1.00
N134   N     0.83403   0.30773   0.06856   0.00000  Uiso   1.00
N135   N     0.04253   0.98893   0.24639   0.00000  Uiso   1.00
N136   N     0.06550   0.62695   0.03481   0.00000  Uiso   1.00
N137   N     0.00915   0.25846   0.20761   0.00000  Uiso   1.00
N138   N     0.21765   0.93966   0.38544   0.00000  Uiso   1.00
C139   C     0.38752   0.24909   0.01100   0.00000  Uiso   1.00
C140   C     0.40675   0.25369   0.98298   0.00000  Uiso   1.00
C141   C     0.32935   0.28693   0.89155   0.00000  Uiso   1.00
C142   C     0.36307   0.28528   0.88068   0.00000  Uiso   1.00
C143   C     0.37660   0.29749   0.82532   0.00000  Uiso   1.00
C144   C     0.41188   0.13356   0.04323   0.00000  Uiso   1.00
C145   C     0.33879   0.06581   0.00246   0.00000  Uiso   1.00
C146   C     0.37685   0.96303   0.04232   0.00000  Uiso   1.00
C147   C     0.39836   0.78878   0.08054   0.00000  Uiso   1.00
C148   C     0.47929   0.31750   0.10497   0.00000  Uiso   1.00
C149   C     0.46289   0.40438   0.11614   0.00000  Uiso   1.00
C150   C     0.55771   0.45645   0.20799   0.00000  Uiso   1.00
C151   C     0.68389   0.56777   0.34209   0.00000  Uiso   1.00
C152   C     0.58507   0.18706   0.15428   0.00000  Uiso   1.00
C153   C     0.51405   0.21999   0.06081   0.00000  Uiso   1.00
C154   C     0.54791   0.21829   0.05007   0.00000  Uiso   1.00
C155   C     0.47057   0.25153   0.95864   0.00000  Uiso   1.00
C156   C     0.51918   0.09987   0.12105   0.00000  Uiso   1.00
C157   C     0.55735   0.99717   0.16098   0.00000  Uiso   1.00
C158   C     0.48434   0.92928   0.12028   0.00000  Uiso   1.00
C159   C     0.58659   0.28380   0.18280   0.00000  Uiso   1.00
C160   C     0.68145   0.33574   0.27466   0.00000  Uiso   1.00
C161   C     0.66520   0.42269   0.28596   0.00000  Uiso   1.00
H162   H     0.30398   0.27532   0.95041   0.00000  Uiso   1.00
H163   H     0.24631   0.31299   0.83134   0.00000  Uiso   1.00
H164   H     0.25577   0.09191   0.94224   0.00000  Uiso   1.00
H165   H     0.37984   0.43043   0.05590   0.00000  Uiso   1.00
H166   H     0.22969   0.33986   0.73363   0.00000  Uiso   1.00
H167   H     0.24963   0.87371   0.96750   0.00000  Uiso   1.00
H168   H     0.51127   0.58754   0.20717   0.00000  Uiso   1.00
H169   H     0.66861   0.16082   0.21488   0.00000  Uiso   1.00
H170   H     0.63095   0.19221   0.11031   0.00000  Uiso   1.00
H171   H     0.64040   0.97113   0.22121   0.00000  Uiso   1.00
H172   H     0.76447   0.30964   0.33487   0.00000  Uiso   1.00
H173   H     0.54187   0.24183   0.96006   0.00000  Uiso   1.00
H174   H     0.56181   0.77567   0.19392   0.00000  Uiso   1.00
H175   H     0.82345   0.48951   0.43359   0.00000  Uiso   1.00
O176   O     0.35441   0.31353   0.77328   0.00000  Uiso   1.00
O177   O     0.38058   0.70196   0.08011   0.00000  Uiso   1.00
O178   O     0.72385   0.63849   0.39455   0.00000  Uiso   1.00
N179   N     0.30833   0.31250   0.80128   0.00000  Uiso   1.00
N180   N     0.32697   0.87667   0.01992   0.00000  Uiso   1.00
N181   N     0.57158   0.54403   0.24400   0.00000  Uiso   1.00
N182   N     0.47632   0.25975   0.92312   0.00000  Uiso   1.00
N183   N     0.49495   0.82392   0.14175   0.00000  Uiso   1.00
N184   N     0.73957   0.49128   0.36584   0.00000  Uiso   1.00
C185   C     0.90692   0.83799   0.55799   0.00000  Uiso   1.00
C186   C     0.94516   0.84610   0.54726   0.00000  Uiso   1.00
C187   C     0.87977   0.82548   0.46078   0.00000  Uiso   1.00
C188   C     0.93025   0.83747   0.46627   0.00000  Uiso   1.00
C189   C     0.97260   0.84532   0.43609   0.00000  Uiso   1.00
C190   C     0.92962   0.94767   0.59488   0.00000  Uiso   1.00
C191   C     0.85117   0.01244   0.54844   0.00000  Uiso   1.00
C192   C     0.88858   0.10993   0.59402   0.00000  Uiso   1.00
C193   C     0.90682   0.27544   0.63781   0.00000  Uiso   1.00
C194   C     0.98709   0.75992   0.64388   0.00000  Uiso   1.00
C195   C     0.95695   0.66685   0.63866   0.00000  Uiso   1.00
C196   C     0.04273   0.60628   0.72551   0.00000  Uiso   1.00
C197   C     0.15020   0.48029   0.84538   0.00000  Uiso   1.00
C198   C     0.11285   0.89593   0.72152   0.00000  Uiso   1.00
C199   C     0.05702   0.87757   0.63609   0.00000  Uiso   1.00
C200   C     0.10761   0.88959   0.64171   0.00000  Uiso   1.00
C201   C     0.04230   0.86899   0.55525   0.00000  Uiso   1.00
C202   C     0.04147   0.97914   0.68370   0.00000  Uiso   1.00
C203   C     0.07901   0.07655   0.72937   0.00000  Uiso   1.00
C204   C     0.00063   0.14146   0.68301   0.00000  Uiso   1.00
C205   C     0.09894   0.79139   0.73271   0.00000  Uiso   1.00
C206   C     0.18479   0.73096   0.81958   0.00000  Uiso   1.00
C207   C     0.15479   0.63781   0.81449   0.00000  Uiso   1.00
H208   H     0.81983   0.81349   0.48883   0.00000  Uiso   1.00
H209   H     0.79321   0.80114   0.39205   0.00000  Uiso   1.00
H210   H     0.76462   0.98806   0.47971   0.00000  Uiso   1.00
H211   H     0.87038   0.64253   0.56991   0.00000  Uiso   1.00
H212   H     0.81300   0.80136   0.32392   0.00000  Uiso   1.00
H213   H     0.75273   0.19548   0.50876   0.00000  Uiso   1.00
H214   H     0.97575   0.46685   0.69896   0.00000  Uiso   1.00
H215   H     0.19994   0.92044   0.79067   0.00000  Uiso   1.00
H216   H     0.19417   0.91395   0.71046   0.00000  Uiso   1.00
H217   H     0.16558   0.10088   0.79811   0.00000  Uiso   1.00
H218   H     0.27134   0.75534   0.88831   0.00000  Uiso   1.00
H219   H     0.13844   0.89292   0.58234   0.00000  Uiso   1.00
H220   H     0.07816   0.28705   0.76718   0.00000  Uiso   1.00
H221   H     0.30118   0.55841   0.95739   0.00000  Uiso   1.00
O222   O     0.96506   0.84098   0.39490   0.00000  Uiso   1.00
O223   O     0.88598   0.35804   0.63741   0.00000  Uiso   1.00
O224   O     0.17858   0.40209   0.88695   0.00000  Uiso   1.00
N225   N     0.89039   0.82378   0.39575   0.00000  Uiso   1.00
N226   N     0.83403   0.19227   0.56856   0.00000  Uiso   1.00
N227   N     0.04253   0.51107   0.74639   0.00000  Uiso   1.00
N228   N     0.06550   0.87305   0.53481   0.00000  Uiso   1.00
N229   N     0.00915   0.24154   0.70761   0.00000  Uiso   1.00
N230   N     0.21765   0.56034   0.88544   0.00000  Uiso   1.00
C231   C     0.38752   0.25091   0.51100   0.00000  Uiso   1.00
C232   C     0.40675   0.24631   0.48298   0.00000  Uiso   1.00
C233   C     0.32935   0.21307   0.39155   0.00000  Uiso   1.00
C234   C     0.36307   0.21472   0.38068   0.00000  Uiso   1.00
C235   C     0.37660   0.20251   0.32532   0.00000  Uiso   1.00
C236   C     0.41188   0.36644   0.54323   0.00000  Uiso   1.00
C237   C     0.33879   0.43419   0.50246   0.00000  Uiso   1.00
C238   C     0.37685   0.53697   0.54232   0.00000  Uiso   1.00
C239   C     0.39836   0.71122   0.58054   0.00000  Uiso   1.00
C240   C     0.47929   0.18250   0.60497   0.00000  Uiso   1.00
C241   C     0.46289   0.09562   0.61614   0.00000  Uiso   1.00
C242   C     0.55771   0.04355   0.70799   0.00000  Uiso   1.00
C243   C     0.68389   0.93223   0.84209   0.00000  Uiso   1.00
C244   C     0.58507   0.31294   0.65428   0.00000  Uiso   1.00
C245   C     0.51405   0.28001   0.56081   0.00000  Uiso   1.00
C246   C     0.54791   0.28171   0.55007   0.00000  Uiso   1.00
C247   C     0.47057   0.24847   0.45864   0.00000  Uiso   1.00
C248   C     0.51918   0.40013   0.62105   0.00000  Uiso   1.00
C249   C     0.55735   0.50283   0.66098   0.00000  Uiso   1.00
C250   C     0.48434   0.57072   0.62028   0.00000  Uiso   1.00
C251   C     0.58659   0.21620   0.68280   0.00000  Uiso   1.00
C252   C     0.68145   0.16426   0.77466   0.00000  Uiso   1.00
C253   C     0.66520   0.07731   0.78596   0.00000  Uiso   1.00
H254   H     0.30398   0.22468   0.45041   0.00000  Uiso   1.00
H255   H     0.24631   0.18701   0.33134   0.00000  Uiso   1.00
H256   H     0.25577   0.40809   0.44224   0.00000  Uiso   1.00
H257   H     0.37984   0.06957   0.55590   0.00000  Uiso   1.00
H258   H     0.22969   0.16014   0.23363   0.00000  Uiso   1.00
H259   H     0.24963   0.62629   0.46750   0.00000  Uiso   1.00
H260   H     0.51127   0.91246   0.70717   0.00000  Uiso   1.00
H261   H     0.66861   0.33918   0.71488   0.00000  Uiso   1.00
H262   H     0.63095   0.30779   0.61031   0.00000  Uiso   1.00
H263   H     0.64040   0.52887   0.72121   0.00000  Uiso   1.00
H264   H     0.76447   0.19036   0.83487   0.00000  Uiso   1.00
H265   H     0.54187   0.25817   0.46006   0.00000  Uiso   1.00
H266   H     0.56181   0.72433   0.69392   0.00000  Uiso   1.00
H267   H     0.82345   0.01049   0.93359   0.00000  Uiso   1.00
O268   O     0.35441   0.18647   0.27328   0.00000  Uiso   1.00
O269   O     0.38058   0.79804   0.58011   0.00000  Uiso   1.00
O270   O     0.72385   0.86151   0.89455   0.00000  Uiso   1.00
N271   N     0.30833   0.18750   0.30128   0.00000  Uiso   1.00
N272   N     0.32697   0.62333   0.51992   0.00000  Uiso   1.00
N273   N     0.57158   0.95597   0.74400   0.00000  Uiso   1.00
N274   N     0.47632   0.24025   0.42312   0.00000  Uiso   1.00
N275   N     0.49495   0.67608   0.64175   0.00000  Uiso   1.00
N276   N     0.73957   0.00872   0.86584   0.00000  Uiso   1.00
C277   C     0.09308   0.33799   0.94201   0.00000  Uiso   1.00
C278   C     0.05484   0.34610   0.95274   0.00000  Uiso   1.00
C279   C     0.12023   0.32548   0.03922   0.00000  Uiso   1.00
C280   C     0.06975   0.33747   0.03373   0.00000  Uiso   1.00
C281   C     0.02740   0.34532   0.06391   0.00000  Uiso   1.00
C282   C     0.07038   0.44767   0.90512   0.00000  Uiso   1.00
C283   C     0.14883   0.51244   0.95156   0.00000  Uiso   1.00
C284   C     0.11142   0.60993   0.90598   0.00000  Uiso   1.00
C285   C     0.09318   0.77544   0.86219   0.00000  Uiso   1.00
C286   C     0.01291   0.25992   0.85612   0.00000  Uiso   1.00
C287   C     0.04305   0.16685   0.86134   0.00000  Uiso   1.00
C288   C     0.95727   0.10628   0.77449   0.00000  Uiso   1.00
C289   C     0.84980   0.98029   0.65462   0.00000  Uiso   1.00
C290   C     0.88715   0.39593   0.77848   0.00000  Uiso   1.00
C291   C     0.94298   0.37757   0.86391   0.00000  Uiso   1.00
C292   C     0.89239   0.38959   0.85829   0.00000  Uiso   1.00
C293   C     0.95770   0.36899   0.94475   0.00000  Uiso   1.00
C294   C     0.95853   0.47914   0.81630   0.00000  Uiso   1.00
C295   C     0.92099   0.57655   0.77063   0.00000  Uiso   1.00
C296   C     0.99937   0.64146   0.81699   0.00000  Uiso   1.00
C297   C     0.90106   0.29139   0.76729   0.00000  Uiso   1.00
C298   C     0.81521   0.23096   0.68042   0.00000  Uiso   1.00
C299   C     0.84521   0.13781   0.68551   0.00000  Uiso   1.00
H300   H     0.18017   0.31349   0.01117   0.00000  Uiso   1.00
H301   H     0.20679   0.30114   0.10795   0.00000  Uiso   1.00
H302   H     0.23538   0.48806   0.02029   0.00000  Uiso   1.00
H303   H     0.12962   0.14253   0.93009   0.00000  Uiso   1.00
H304   H     0.18700   0.30136   0.17608   0.00000  Uiso   1.00
H305   H     0.24727   0.69548   0.99124   0.00000  Uiso   1.00
H306   H     0.02425   0.96685   0.80104   0.00000  Uiso   1.00
H307   H     0.80006   0.42044   0.70933   0.00000  Uiso   1.00
H308   H     0.80583   0.41395   0.78954   0.00000  Uiso   1.00
H309   H     0.83442   0.60088   0.70189   0.00000  Uiso   1.00
H310   H     0.72866   0.25534   0.61169   0.00000  Uiso   1.00
H311   H     0.86156   0.39292   0.91766   0.00000  Uiso   1.00
H312   H     0.92184   0.78705   0.73282   0.00000  Uiso   1.00
H313   H     0.69882   0.05841   0.54261   0.00000  Uiso   1.00
O314   O     0.03494   0.34098   0.10510   0.00000  Uiso   1.00
O315   O     0.11402   0.85804   0.86259   0.00000  Uiso   1.00
O316   O     0.82142   0.90209   0.61305   0.00000  Uiso   1.00
N317   N     0.10961   0.32378   0.10425   0.00000  Uiso   1.00
N318   N     0.16597   0.69227   0.93144   0.00000  Uiso   1.00
N319   N     0.95747   0.01107   0.75361   0.00000  Uiso   1.00
N320   N     0.93450   0.37305   0.96519   0.00000  Uiso   1.00
N321   N     0.99085   0.74154   0.79239   0.00000  Uiso   1.00
N322   N     0.78235   0.06034   0.61456   0.00000  Uiso   1.00
C323   C     0.61248   0.75091   0.98900   0.00000  Uiso   1.00
C324   C     0.59325   0.74631   0.01702   0.00000  Uiso   1.00
C325   C     0.67065   0.71307   0.10845   0.00000  Uiso   1.00
C326   C     0.63693   0.71472   0.11932   0.00000  Uiso   1.00
C327   C     0.62340   0.70251   0.17468   0.00000  Uiso   1.00
C328   C     0.58812   0.86644   0.95677   0.00000  Uiso   1.00
C329   C     0.66121   0.93419   0.99754   0.00000  Uiso   1.00
C330   C     0.62315   0.03697   0.95768   0.00000  Uiso   1.00
C331   C     0.60164   0.21122   0.91946   0.00000  Uiso   1.00
C332   C     0.52071   0.68250   0.89503   0.00000  Uiso   1.00
C333   C     0.53711   0.59562   0.88386   0.00000  Uiso   1.00
C334   C     0.44229   0.54355   0.79201   0.00000  Uiso   1.00
C335   C     0.31611   0.43223   0.65791   0.00000  Uiso   1.00
C336   C     0.41493   0.81294   0.84572   0.00000  Uiso   1.00
C337   C     0.48595   0.78001   0.93919   0.00000  Uiso   1.00
C338   C     0.45209   0.78171   0.94993   0.00000  Uiso   1.00
C339   C     0.52943   0.74847   0.04136   0.00000  Uiso   1.00
C340   C     0.48082   0.90013   0.87895   0.00000  Uiso   1.00
C341   C     0.44265   0.00283   0.83902   0.00000  Uiso   1.00
C342   C     0.51566   0.07072   0.87972   0.00000  Uiso   1.00
C343   C     0.41341   0.71620   0.81720   0.00000  Uiso   1.00
C344   C     0.31855   0.66426   0.72534   0.00000  Uiso   1.00
C345   C     0.33480   0.57731   0.71404   0.00000  Uiso   1.00
H346   H     0.69602   0.72468   0.04959   0.00000  Uiso   1.00
H347   H     0.75369   0.68701   0.16866   0.00000  Uiso   1.00
H348   H     0.74423   0.90809   0.05776   0.00000  Uiso   1.00
H349   H     0.62016   0.56957   0.94410   0.00000  Uiso   1.00
H350   H     0.77031   0.66014   0.26637   0.00000  Uiso   1.00
H351   H     0.75037   0.12629   0.03250   0.00000  Uiso   1.00
H352   H     0.48873   0.41246   0.79283   0.00000  Uiso   1.00
H353   H     0.33139   0.83918   0.78512   0.00000  Uiso   1.00
H354   H     0.36905   0.80779   0.88969   0.00000  Uiso   1.00
H355   H     0.35960   0.02887   0.77879   0.00000  Uiso   1.00
H356   H     0.23553   0.69036   0.66513   0.00000  Uiso   1.00
H357   H     0.45813   0.75817   0.03994   0.00000  Uiso   1.00
H358   H     0.43819   0.22433   0.80608   0.00000  Uiso   1.00
H359   H     0.17655   0.51049   0.56641   0.00000  Uiso   1.00
O360   O     0.64559   0.68647   0.22672   0.00000  Uiso   1.00
O361   O     0.61942   0.29804   0.91989   0.00000  Uiso   1.00
O362   O     0.27615   0.36151   0.60545   0.00000  Uiso   1.00
N363   N     0.69167   0.68750   0.19872   0.00000  Uiso   1.00
N364   N     0.67303   0.12333   0.98008   0.00000  Uiso   1.00
N365   N     0.42842   0.45597   0.75600   0.00000  Uiso   1.00
N366   N     0.52368   0.74025   0.07688   0.00000  Uiso   1.00
N367   N     0.50505   0.17608   0.85825   0.00000  Uiso   1.00
N368   N     0.26043   0.50872   0.63416   0.00000  Uiso   1.00
