data_job_03279
_audit_creation_date              2018-12-19
_audit_creation_method            'Materials Studio'
_symmetry_space_group_name_H-M    'P1'
_symmetry_Int_Tables_number       1
_symmetry_cell_setting            triclinic
loop_
_symmetry_equiv_pos_as_xyz
  x,y,z
_cell_length_a                    16.4546
_cell_length_b                    13.0841
_cell_length_c                    26.4649
_cell_angle_alpha                 90.0000
_cell_angle_beta                  78.4993
_cell_angle_gamma                 90.0000
loop_
_atom_site_label
_atom_site_type_symbol
_atom_site_fract_x
_atom_site_fract_y
_atom_site_fract_z
_atom_site_U_iso_or_equiv
_atom_site_adp_type
_atom_site_occupancy
C1     C     0.34360   0.71700   0.11579   0.00000  Uiso   1.00
C2     C     0.36115   0.73593   0.16945   0.00000  Uiso   1.00
C3     C     0.36123   0.66221   0.20714   0.00000  Uiso   1.00
C4     C     0.37875   0.69495   0.25372   0.00000  Uiso   1.00
C5     C     0.40341   0.70871   0.33576   0.00000  Uiso   1.00
C6     C     0.27187   0.78757   0.11078   0.00000  Uiso   1.00
C7     C     0.19689   0.75727   0.09913   0.00000  Uiso   1.00
C8     C     0.13926   0.83350   0.09631   0.00000  Uiso   1.00
C9     C     0.02533   0.92745   0.08722   0.00000  Uiso   1.00
C10    C     0.41898   0.75719   0.07788   0.00000  Uiso   1.00
C11    C     0.46768   0.70135   0.03857   0.00000  Uiso   1.00
C12    C     0.53390   0.75199   0.00804   0.00000  Uiso   1.00
C13    C     0.64838   0.79876   0.94788   0.00000  Uiso   1.00
C14    C     0.37458   0.90624   0.13148   0.00000  Uiso   1.00
C15    C     0.37798   0.83872   0.17797   0.00000  Uiso   1.00
C16    C     0.39551   0.87158   0.22450   0.00000  Uiso   1.00
C17    C     0.39561   0.79792   0.26225   0.00000  Uiso   1.00
C18    C     0.28870   0.89036   0.11930   0.00000  Uiso   1.00
C19    C     0.23117   0.96665   0.11649   0.00000  Uiso   1.00
C20    C     0.15611   0.93647   0.10485   0.00000  Uiso   1.00
C21    C     0.43581   0.85998   0.08640   0.00000  Uiso   1.00
C22    C     0.50196   0.91072   0.05593   0.00000  Uiso   1.00
C23    C     0.55075   0.85497   0.01658   0.00000  Uiso   1.00
H24    H     0.33049   0.63698   0.10915   0.00000  Uiso   1.00
H25    H     0.34820   0.58267   0.20053   0.00000  Uiso   1.00
H26    H     0.18389   0.67773   0.09253   0.00000  Uiso   1.00
H27    H     0.45464   0.62181   0.03198   0.00000  Uiso   1.00
H28    H     0.37522   0.56779   0.30561   0.00000  Uiso   1.00
H29    H     0.02878   0.76823   0.07788   0.00000  Uiso   1.00
H30    H     0.59971   0.65031   0.95019   0.00000  Uiso   1.00
H31    H     0.38768   0.98627   0.13811   0.00000  Uiso   1.00
H32    H     0.40852   0.95113   0.23108   0.00000  Uiso   1.00
H33    H     0.24421   0.04618   0.12309   0.00000  Uiso   1.00
H34    H     0.51496   0.99026   0.06254   0.00000  Uiso   1.00
H35    H     0.42418   0.86685   0.33041   0.00000  Uiso   1.00
H36    H     0.07773   0.06729   0.10267   0.00000  Uiso   1.00
H37    H     0.64867   0.94937   0.97499   0.00000  Uiso   1.00
O38    O     0.41235   0.68791   0.37866   0.00000  Uiso   1.00
O39    O     0.95784   0.95087   0.07986   0.00000  Uiso   1.00
O40    O     0.70689   0.79616   0.91235   0.00000  Uiso   1.00
N41    N     0.38390   0.64299   0.29869   0.00000  Uiso   1.00
N42    N     0.05999   0.83039   0.08577   0.00000  Uiso   1.00
N43    N     0.59375   0.72015   0.96639   0.00000  Uiso   1.00
N44    N     0.41024   0.80391   0.31203   0.00000  Uiso   1.00
N45    N     0.08633   0.99131   0.09912   0.00000  Uiso   1.00
N46    N     0.62009   0.88107   0.97973   0.00000  Uiso   1.00
C47    C     0.84360   0.21700   0.11579   0.00000  Uiso   1.00
C48    C     0.86115   0.23593   0.16945   0.00000  Uiso   1.00
C49    C     0.86123   0.16221   0.20714   0.00000  Uiso   1.00
C50    C     0.87875   0.19495   0.25372   0.00000  Uiso   1.00
C51    C     0.90341   0.20871   0.33576   0.00000  Uiso   1.00
C52    C     0.77187   0.28757   0.11078   0.00000  Uiso   1.00
C53    C     0.69689   0.25727   0.09913   0.00000  Uiso   1.00
C54    C     0.63926   0.33350   0.09631   0.00000  Uiso   1.00
C55    C     0.52533   0.42745   0.08722   0.00000  Uiso   1.00
C56    C     0.91898   0.25719   0.07788   0.00000  Uiso   1.00
C57    C     0.96768   0.20135   0.03857   0.00000  Uiso   1.00
C58    C     0.03390   0.25199   0.00804   0.00000  Uiso   1.00
C59    C     0.14838   0.29876   0.94788   0.00000  Uiso   1.00
C60    C     0.87458   0.40624   0.13148   0.00000  Uiso   1.00
C61    C     0.87798   0.33872   0.17797   0.00000  Uiso   1.00
C62    C     0.89551   0.37158   0.22450   0.00000  Uiso   1.00
C63    C     0.89561   0.29792   0.26225   0.00000  Uiso   1.00
C64    C     0.78870   0.39036   0.11930   0.00000  Uiso   1.00
C65    C     0.73117   0.46665   0.11649   0.00000  Uiso   1.00
C66    C     0.65611   0.43647   0.10485   0.00000  Uiso   1.00
C67    C     0.93581   0.35998   0.08640   0.00000  Uiso   1.00
C68    C     0.00196   0.41072   0.05593   0.00000  Uiso   1.00
C69    C     0.05075   0.35497   0.01658   0.00000  Uiso   1.00
H70    H     0.83049   0.13698   0.10915   0.00000  Uiso   1.00
H71    H     0.84820   0.08267   0.20053   0.00000  Uiso   1.00
H72    H     0.68389   0.17773   0.09253   0.00000  Uiso   1.00
H73    H     0.95464   0.12181   0.03198   0.00000  Uiso   1.00
H74    H     0.87522   0.06779   0.30561   0.00000  Uiso   1.00
H75    H     0.52878   0.26823   0.07788   0.00000  Uiso   1.00
H76    H     0.09971   0.15031   0.95019   0.00000  Uiso   1.00
H77    H     0.88768   0.48627   0.13811   0.00000  Uiso   1.00
H78    H     0.90852   0.45113   0.23108   0.00000  Uiso   1.00
H79    H     0.74421   0.54618   0.12309   0.00000  Uiso   1.00
H80    H     0.01496   0.49026   0.06254   0.00000  Uiso   1.00
H81    H     0.92418   0.36685   0.33041   0.00000  Uiso   1.00
H82    H     0.57773   0.56729   0.10267   0.00000  Uiso   1.00
H83    H     0.14867   0.44937   0.97499   0.00000  Uiso   1.00
O84    O     0.91235   0.18791   0.37866   0.00000  Uiso   1.00
O85    O     0.45784   0.45087   0.07986   0.00000  Uiso   1.00
O86    O     0.20689   0.29616   0.91235   0.00000  Uiso   1.00
N87    N     0.88390   0.14299   0.29869   0.00000  Uiso   1.00
N88    N     0.55999   0.33039   0.08577   0.00000  Uiso   1.00
N89    N     0.09375   0.22015   0.96639   0.00000  Uiso   1.00
N90    N     0.91024   0.30391   0.31203   0.00000  Uiso   1.00
N91    N     0.58633   0.49131   0.09912   0.00000  Uiso   1.00
N92    N     0.12009   0.38107   0.97973   0.00000  Uiso   1.00
C93    C     0.65640   0.71700   0.38421   0.00000  Uiso   1.00
C94    C     0.63885   0.73593   0.33055   0.00000  Uiso   1.00
C95    C     0.63877   0.66221   0.29286   0.00000  Uiso   1.00
C96    C     0.62125   0.69495   0.24628   0.00000  Uiso   1.00
C97    C     0.59659   0.70871   0.16424   0.00000  Uiso   1.00
C98    C     0.72813   0.78757   0.38922   0.00000  Uiso   1.00
C99    C     0.80311   0.75727   0.40087   0.00000  Uiso   1.00
C100   C     0.86074   0.83350   0.40369   0.00000  Uiso   1.00
C101   C     0.97467   0.92745   0.41278   0.00000  Uiso   1.00
C102   C     0.58102   0.75719   0.42212   0.00000  Uiso   1.00
C103   C     0.53232   0.70135   0.46143   0.00000  Uiso   1.00
C104   C     0.46610   0.75199   0.49196   0.00000  Uiso   1.00
C105   C     0.35162   0.79876   0.55212   0.00000  Uiso   1.00
C106   C     0.62542   0.90624   0.36852   0.00000  Uiso   1.00
C107   C     0.62202   0.83872   0.32203   0.00000  Uiso   1.00
C108   C     0.60449   0.87158   0.27550   0.00000  Uiso   1.00
C109   C     0.60439   0.79792   0.23775   0.00000  Uiso   1.00
C110   C     0.71130   0.89036   0.38070   0.00000  Uiso   1.00
C111   C     0.76883   0.96665   0.38351   0.00000  Uiso   1.00
C112   C     0.84389   0.93647   0.39515   0.00000  Uiso   1.00
C113   C     0.56419   0.85998   0.41360   0.00000  Uiso   1.00
C114   C     0.49804   0.91072   0.44407   0.00000  Uiso   1.00
C115   C     0.44925   0.85497   0.48342   0.00000  Uiso   1.00
H116   H     0.66951   0.63698   0.39085   0.00000  Uiso   1.00
H117   H     0.65180   0.58267   0.29947   0.00000  Uiso   1.00
H118   H     0.81611   0.67773   0.40747   0.00000  Uiso   1.00
H119   H     0.54536   0.62181   0.46802   0.00000  Uiso   1.00
H120   H     0.62478   0.56779   0.19439   0.00000  Uiso   1.00
H121   H     0.97122   0.76823   0.42212   0.00000  Uiso   1.00
H122   H     0.40029   0.65031   0.54981   0.00000  Uiso   1.00
H123   H     0.61232   0.98627   0.36189   0.00000  Uiso   1.00
H124   H     0.59148   0.95113   0.26892   0.00000  Uiso   1.00
H125   H     0.75579   0.04618   0.37691   0.00000  Uiso   1.00
H126   H     0.48504   0.99026   0.43746   0.00000  Uiso   1.00
H127   H     0.57582   0.86685   0.16959   0.00000  Uiso   1.00
H128   H     0.92227   0.06729   0.39733   0.00000  Uiso   1.00
H129   H     0.35133   0.94937   0.52501   0.00000  Uiso   1.00
O130   O     0.58765   0.68791   0.12134   0.00000  Uiso   1.00
O131   O     0.04216   0.95087   0.42014   0.00000  Uiso   1.00
O132   O     0.29311   0.79616   0.58765   0.00000  Uiso   1.00
N133   N     0.61610   0.64299   0.20131   0.00000  Uiso   1.00
N134   N     0.94001   0.83039   0.41423   0.00000  Uiso   1.00
N135   N     0.40625   0.72015   0.53361   0.00000  Uiso   1.00
N136   N     0.58976   0.80391   0.18797   0.00000  Uiso   1.00
N137   N     0.91367   0.99131   0.40088   0.00000  Uiso   1.00
N138   N     0.37991   0.88107   0.52027   0.00000  Uiso   1.00
C139   C     0.15640   0.21700   0.38421   0.00000  Uiso   1.00
C140   C     0.13885   0.23593   0.33055   0.00000  Uiso   1.00
C141   C     0.13877   0.16221   0.29286   0.00000  Uiso   1.00
C142   C     0.12125   0.19495   0.24628   0.00000  Uiso   1.00
C143   C     0.09659   0.20871   0.16424   0.00000  Uiso   1.00
C144   C     0.22813   0.28757   0.38922   0.00000  Uiso   1.00
C145   C     0.30311   0.25727   0.40087   0.00000  Uiso   1.00
C146   C     0.36074   0.33350   0.40369   0.00000  Uiso   1.00
C147   C     0.47467   0.42745   0.41278   0.00000  Uiso   1.00
C148   C     0.08102   0.25719   0.42212   0.00000  Uiso   1.00
C149   C     0.03232   0.20135   0.46143   0.00000  Uiso   1.00
C150   C     0.96610   0.25199   0.49196   0.00000  Uiso   1.00
C151   C     0.85162   0.29876   0.55212   0.00000  Uiso   1.00
C152   C     0.12542   0.40624   0.36852   0.00000  Uiso   1.00
C153   C     0.12202   0.33872   0.32203   0.00000  Uiso   1.00
C154   C     0.10449   0.37158   0.27550   0.00000  Uiso   1.00
C155   C     0.10439   0.29792   0.23775   0.00000  Uiso   1.00
C156   C     0.21130   0.39036   0.38070   0.00000  Uiso   1.00
C157   C     0.26883   0.46665   0.38351   0.00000  Uiso   1.00
C158   C     0.34389   0.43647   0.39515   0.00000  Uiso   1.00
C159   C     0.06419   0.35998   0.41360   0.00000  Uiso   1.00
C160   C     0.99804   0.41072   0.44407   0.00000  Uiso   1.00
C161   C     0.94925   0.35497   0.48342   0.00000  Uiso   1.00
H162   H     0.16951   0.13698   0.39085   0.00000  Uiso   1.00
H163   H     0.15180   0.08267   0.29947   0.00000  Uiso   1.00
H164   H     0.31611   0.17773   0.40747   0.00000  Uiso   1.00
H165   H     0.04536   0.12181   0.46802   0.00000  Uiso   1.00
H166   H     0.12478   0.06779   0.19439   0.00000  Uiso   1.00
H167   H     0.47122   0.26823   0.42212   0.00000  Uiso   1.00
H168   H     0.90029   0.15031   0.54981   0.00000  Uiso   1.00
H169   H     0.11232   0.48627   0.36189   0.00000  Uiso   1.00
H170   H     0.09148   0.45113   0.26892   0.00000  Uiso   1.00
H171   H     0.25579   0.54618   0.37691   0.00000  Uiso   1.00
H172   H     0.98504   0.49026   0.43746   0.00000  Uiso   1.00
H173   H     0.07582   0.36685   0.16959   0.00000  Uiso   1.00
H174   H     0.42227   0.56729   0.39733   0.00000  Uiso   1.00
H175   H     0.85133   0.44937   0.52501   0.00000  Uiso   1.00
O176   O     0.08765   0.18791   0.12134   0.00000  Uiso   1.00
O177   O     0.54216   0.45087   0.42014   0.00000  Uiso   1.00
O178   O     0.79311   0.29616   0.58765   0.00000  Uiso   1.00
N179   N     0.11610   0.14299   0.20131   0.00000  Uiso   1.00
N180   N     0.44001   0.33039   0.41423   0.00000  Uiso   1.00
N181   N     0.90625   0.22015   0.53361   0.00000  Uiso   1.00
N182   N     0.08976   0.30391   0.18797   0.00000  Uiso   1.00
N183   N     0.41367   0.49131   0.40088   0.00000  Uiso   1.00
N184   N     0.87991   0.38107   0.52027   0.00000  Uiso   1.00
C185   C     0.65640   0.28300   0.88421   0.00000  Uiso   1.00
C186   C     0.63885   0.26407   0.83055   0.00000  Uiso   1.00
C187   C     0.63877   0.33779   0.79286   0.00000  Uiso   1.00
C188   C     0.62125   0.30505   0.74628   0.00000  Uiso   1.00
C189   C     0.59659   0.29129   0.66424   0.00000  Uiso   1.00
C190   C     0.72813   0.21243   0.88922   0.00000  Uiso   1.00
C191   C     0.80311   0.24273   0.90087   0.00000  Uiso   1.00
C192   C     0.86074   0.16650   0.90369   0.00000  Uiso   1.00
C193   C     0.97467   0.07255   0.91278   0.00000  Uiso   1.00
C194   C     0.58102   0.24281   0.92212   0.00000  Uiso   1.00
C195   C     0.53232   0.29865   0.96143   0.00000  Uiso   1.00
C196   C     0.46610   0.24801   0.99196   0.00000  Uiso   1.00
C197   C     0.35162   0.20124   0.05212   0.00000  Uiso   1.00
C198   C     0.62542   0.09376   0.86852   0.00000  Uiso   1.00
C199   C     0.62202   0.16128   0.82203   0.00000  Uiso   1.00
C200   C     0.60449   0.12842   0.77550   0.00000  Uiso   1.00
C201   C     0.60439   0.20208   0.73775   0.00000  Uiso   1.00
C202   C     0.71130   0.10964   0.88070   0.00000  Uiso   1.00
C203   C     0.76883   0.03335   0.88351   0.00000  Uiso   1.00
C204   C     0.84389   0.06353   0.89515   0.00000  Uiso   1.00
C205   C     0.56419   0.14002   0.91360   0.00000  Uiso   1.00
C206   C     0.49804   0.08928   0.94407   0.00000  Uiso   1.00
C207   C     0.44925   0.14503   0.98342   0.00000  Uiso   1.00
H208   H     0.66951   0.36302   0.89085   0.00000  Uiso   1.00
H209   H     0.65180   0.41733   0.79947   0.00000  Uiso   1.00
H210   H     0.81611   0.32227   0.90747   0.00000  Uiso   1.00
H211   H     0.54536   0.37819   0.96802   0.00000  Uiso   1.00
H212   H     0.62478   0.43221   0.69439   0.00000  Uiso   1.00
H213   H     0.97122   0.23177   0.92212   0.00000  Uiso   1.00
H214   H     0.40029   0.34969   0.04981   0.00000  Uiso   1.00
H215   H     0.61232   0.01373   0.86189   0.00000  Uiso   1.00
H216   H     0.59148   0.04887   0.76892   0.00000  Uiso   1.00
H217   H     0.75579   0.95382   0.87691   0.00000  Uiso   1.00
H218   H     0.48504   0.00974   0.93746   0.00000  Uiso   1.00
H219   H     0.57582   0.13315   0.66959   0.00000  Uiso   1.00
H220   H     0.92227   0.93271   0.89733   0.00000  Uiso   1.00
H221   H     0.35133   0.05063   0.02501   0.00000  Uiso   1.00
O222   O     0.58765   0.31209   0.62134   0.00000  Uiso   1.00
O223   O     0.04216   0.04913   0.92014   0.00000  Uiso   1.00
O224   O     0.29311   0.20384   0.08765   0.00000  Uiso   1.00
N225   N     0.61610   0.35701   0.70131   0.00000  Uiso   1.00
N226   N     0.94001   0.16961   0.91423   0.00000  Uiso   1.00
N227   N     0.40625   0.27985   0.03361   0.00000  Uiso   1.00
N228   N     0.58976   0.19609   0.68797   0.00000  Uiso   1.00
N229   N     0.91367   0.00869   0.90088   0.00000  Uiso   1.00
N230   N     0.37991   0.11893   0.02027   0.00000  Uiso   1.00
C231   C     0.15640   0.78300   0.88421   0.00000  Uiso   1.00
C232   C     0.13885   0.76407   0.83055   0.00000  Uiso   1.00
C233   C     0.13877   0.83779   0.79286   0.00000  Uiso   1.00
C234   C     0.12125   0.80505   0.74628   0.00000  Uiso   1.00
C235   C     0.09659   0.79129   0.66424   0.00000  Uiso   1.00
C236   C     0.22813   0.71243   0.88922   0.00000  Uiso   1.00
C237   C     0.30311   0.74273   0.90087   0.00000  Uiso   1.00
C238   C     0.36074   0.66650   0.90369   0.00000  Uiso   1.00
C239   C     0.47467   0.57255   0.91278   0.00000  Uiso   1.00
C240   C     0.08102   0.74281   0.92212   0.00000  Uiso   1.00
C241   C     0.03232   0.79865   0.96143   0.00000  Uiso   1.00
C242   C     0.96610   0.74801   0.99196   0.00000  Uiso   1.00
C243   C     0.85162   0.70124   0.05212   0.00000  Uiso   1.00
C244   C     0.12542   0.59376   0.86852   0.00000  Uiso   1.00
C245   C     0.12202   0.66128   0.82203   0.00000  Uiso   1.00
C246   C     0.10449   0.62842   0.77550   0.00000  Uiso   1.00
C247   C     0.10439   0.70208   0.73775   0.00000  Uiso   1.00
C248   C     0.21130   0.60964   0.88070   0.00000  Uiso   1.00
C249   C     0.26883   0.53335   0.88351   0.00000  Uiso   1.00
C250   C     0.34389   0.56353   0.89515   0.00000  Uiso   1.00
C251   C     0.06419   0.64002   0.91360   0.00000  Uiso   1.00
C252   C     0.99804   0.58928   0.94407   0.00000  Uiso   1.00
C253   C     0.94925   0.64503   0.98342   0.00000  Uiso   1.00
H254   H     0.16951   0.86302   0.89085   0.00000  Uiso   1.00
H255   H     0.15180   0.91733   0.79947   0.00000  Uiso   1.00
H256   H     0.31611   0.82227   0.90747   0.00000  Uiso   1.00
H257   H     0.04536   0.87819   0.96802   0.00000  Uiso   1.00
H258   H     0.12478   0.93221   0.69439   0.00000  Uiso   1.00
H259   H     0.47122   0.73177   0.92212   0.00000  Uiso   1.00
H260   H     0.90029   0.84969   0.04981   0.00000  Uiso   1.00
H261   H     0.11232   0.51373   0.86189   0.00000  Uiso   1.00
H262   H     0.09148   0.54887   0.76892   0.00000  Uiso   1.00
H263   H     0.25579   0.45382   0.87691   0.00000  Uiso   1.00
H264   H     0.98504   0.50974   0.93746   0.00000  Uiso   1.00
H265   H     0.07582   0.63315   0.66959   0.00000  Uiso   1.00
H266   H     0.42227   0.43271   0.89733   0.00000  Uiso   1.00
H267   H     0.85133   0.55063   0.02501   0.00000  Uiso   1.00
O268   O     0.08765   0.81209   0.62134   0.00000  Uiso   1.00
O269   O     0.54216   0.54913   0.92014   0.00000  Uiso   1.00
O270   O     0.79311   0.70384   0.08765   0.00000  Uiso   1.00
N271   N     0.11610   0.85701   0.70131   0.00000  Uiso   1.00
N272   N     0.44001   0.66961   0.91423   0.00000  Uiso   1.00
N273   N     0.90625   0.77985   0.03361   0.00000  Uiso   1.00
N274   N     0.08976   0.69609   0.68797   0.00000  Uiso   1.00
N275   N     0.41367   0.50869   0.90088   0.00000  Uiso   1.00
N276   N     0.87991   0.61893   0.02027   0.00000  Uiso   1.00
C277   C     0.34360   0.28300   0.61579   0.00000  Uiso   1.00
C278   C     0.36115   0.26407   0.66945   0.00000  Uiso   1.00
C279   C     0.36123   0.33779   0.70714   0.00000  Uiso   1.00
C280   C     0.37875   0.30505   0.75372   0.00000  Uiso   1.00
C281   C     0.40341   0.29129   0.83576   0.00000  Uiso   1.00
C282   C     0.27187   0.21243   0.61078   0.00000  Uiso   1.00
C283   C     0.19689   0.24273   0.59913   0.00000  Uiso   1.00
C284   C     0.13926   0.16650   0.59631   0.00000  Uiso   1.00
C285   C     0.02533   0.07255   0.58722   0.00000  Uiso   1.00
C286   C     0.41898   0.24281   0.57788   0.00000  Uiso   1.00
C287   C     0.46768   0.29865   0.53857   0.00000  Uiso   1.00
C288   C     0.53390   0.24801   0.50804   0.00000  Uiso   1.00
C289   C     0.64838   0.20124   0.44788   0.00000  Uiso   1.00
C290   C     0.37458   0.09376   0.63148   0.00000  Uiso   1.00
C291   C     0.37798   0.16128   0.67797   0.00000  Uiso   1.00
C292   C     0.39551   0.12842   0.72450   0.00000  Uiso   1.00
C293   C     0.39561   0.20208   0.76225   0.00000  Uiso   1.00
C294   C     0.28870   0.10964   0.61930   0.00000  Uiso   1.00
C295   C     0.23117   0.03335   0.61649   0.00000  Uiso   1.00
C296   C     0.15611   0.06353   0.60485   0.00000  Uiso   1.00
C297   C     0.43581   0.14002   0.58640   0.00000  Uiso   1.00
C298   C     0.50196   0.08928   0.55593   0.00000  Uiso   1.00
C299   C     0.55075   0.14503   0.51658   0.00000  Uiso   1.00
H300   H     0.33049   0.36302   0.60915   0.00000  Uiso   1.00
H301   H     0.34820   0.41733   0.70053   0.00000  Uiso   1.00
H302   H     0.18389   0.32227   0.59253   0.00000  Uiso   1.00
H303   H     0.45464   0.37819   0.53198   0.00000  Uiso   1.00
H304   H     0.37522   0.43221   0.80561   0.00000  Uiso   1.00
H305   H     0.02878   0.23177   0.57788   0.00000  Uiso   1.00
H306   H     0.59971   0.34969   0.45019   0.00000  Uiso   1.00
H307   H     0.38768   0.01373   0.63811   0.00000  Uiso   1.00
H308   H     0.40852   0.04887   0.73108   0.00000  Uiso   1.00
H309   H     0.24421   0.95382   0.62309   0.00000  Uiso   1.00
H310   H     0.51496   0.00974   0.56254   0.00000  Uiso   1.00
H311   H     0.42418   0.13315   0.83041   0.00000  Uiso   1.00
H312   H     0.07773   0.93271   0.60267   0.00000  Uiso   1.00
H313   H     0.64867   0.05063   0.47499   0.00000  Uiso   1.00
O314   O     0.41235   0.31209   0.87866   0.00000  Uiso   1.00
O315   O     0.95784   0.04913   0.57986   0.00000  Uiso   1.00
O316   O     0.70689   0.20384   0.41235   0.00000  Uiso   1.00
N317   N     0.38390   0.35701   0.79869   0.00000  Uiso   1.00
N318   N     0.05999   0.16961   0.58577   0.00000  Uiso   1.00
N319   N     0.59375   0.27985   0.46639   0.00000  Uiso   1.00
N320   N     0.41024   0.19609   0.81203   0.00000  Uiso   1.00
N321   N     0.08633   0.00869   0.59912   0.00000  Uiso   1.00
N322   N     0.62009   0.11893   0.47973   0.00000  Uiso   1.00
C323   C     0.84360   0.78300   0.61579   0.00000  Uiso   1.00
C324   C     0.86115   0.76407   0.66945   0.00000  Uiso   1.00
C325   C     0.86123   0.83779   0.70714   0.00000  Uiso   1.00
C326   C     0.87875   0.80505   0.75372   0.00000  Uiso   1.00
C327   C     0.90341   0.79129   0.83576   0.00000  Uiso   1.00
C328   C     0.77187   0.71243   0.61078   0.00000  Uiso   1.00
C329   C     0.69689   0.74273   0.59913   0.00000  Uiso   1.00
C330   C     0.63926   0.66650   0.59631   0.00000  Uiso   1.00
C331   C     0.52533   0.57255   0.58722   0.00000  Uiso   1.00
C332   C     0.91898   0.74281   0.57788   0.00000  Uiso   1.00
C333   C     0.96768   0.79865   0.53857   0.00000  Uiso   1.00
C334   C     0.03390   0.74801   0.50804   0.00000  Uiso   1.00
C335   C     0.14838   0.70124   0.44788   0.00000  Uiso   1.00
C336   C     0.87458   0.59376   0.63148   0.00000  Uiso   1.00
C337   C     0.87798   0.66128   0.67797   0.00000  Uiso   1.00
C338   C     0.89551   0.62842   0.72450   0.00000  Uiso   1.00
C339   C     0.89561   0.70208   0.76225   0.00000  Uiso   1.00
C340   C     0.78870   0.60964   0.61930   0.00000  Uiso   1.00
C341   C     0.73117   0.53335   0.61649   0.00000  Uiso   1.00
C342   C     0.65611   0.56353   0.60485   0.00000  Uiso   1.00
C343   C     0.93581   0.64002   0.58640   0.00000  Uiso   1.00
C344   C     0.00196   0.58928   0.55593   0.00000  Uiso   1.00
C345   C     0.05075   0.64503   0.51658   0.00000  Uiso   1.00
H346   H     0.83049   0.86302   0.60915   0.00000  Uiso   1.00
H347   H     0.84820   0.91733   0.70053   0.00000  Uiso   1.00
H348   H     0.68389   0.82227   0.59253   0.00000  Uiso   1.00
H349   H     0.95464   0.87819   0.53198   0.00000  Uiso   1.00
H350   H     0.87522   0.93221   0.80561   0.00000  Uiso   1.00
H351   H     0.52878   0.73177   0.57788   0.00000  Uiso   1.00
H352   H     0.09971   0.84969   0.45019   0.00000  Uiso   1.00
H353   H     0.88768   0.51373   0.63811   0.00000  Uiso   1.00
H354   H     0.90852   0.54887   0.73108   0.00000  Uiso   1.00
H355   H     0.74421   0.45382   0.62309   0.00000  Uiso   1.00
H356   H     0.01496   0.50974   0.56254   0.00000  Uiso   1.00
H357   H     0.92418   0.63315   0.83041   0.00000  Uiso   1.00
H358   H     0.57773   0.43271   0.60267   0.00000  Uiso   1.00
H359   H     0.14867   0.55063   0.47499   0.00000  Uiso   1.00
O360   O     0.91235   0.81209   0.87866   0.00000  Uiso   1.00
O361   O     0.45784   0.54913   0.57986   0.00000  Uiso   1.00
O362   O     0.20689   0.70384   0.41235   0.00000  Uiso   1.00
N363   N     0.88390   0.85701   0.79869   0.00000  Uiso   1.00
N364   N     0.55999   0.66961   0.58577   0.00000  Uiso   1.00
N365   N     0.09375   0.77985   0.46639   0.00000  Uiso   1.00
N366   N     0.91024   0.69609   0.81203   0.00000  Uiso   1.00
N367   N     0.58633   0.50869   0.59912   0.00000  Uiso   1.00
N368   N     0.12009   0.61893   0.47973   0.00000  Uiso   1.00
