data_job_04501
_audit_creation_date              2018-12-19
_audit_creation_method            'Materials Studio'
_symmetry_space_group_name_H-M    'P1'
_symmetry_Int_Tables_number       1
_symmetry_cell_setting            triclinic
loop_
_symmetry_equiv_pos_as_xyz
  x,y,z
_cell_length_a                    12.5397
_cell_length_b                    20.7332
_cell_length_c                    11.7209
_cell_angle_alpha                 90.0000
_cell_angle_beta                  64.1376
_cell_angle_gamma                 90.0000
loop_
_atom_site_label
_atom_site_type_symbol
_atom_site_fract_x
_atom_site_fract_y
_atom_site_fract_z
_atom_site_U_iso_or_equiv
_atom_site_adp_type
_atom_site_occupancy
C1     C     0.06886   0.04294   0.10622   0.00000  Uiso   1.00
C2     C     0.95672   0.07485   0.20425   0.00000  Uiso   1.00
C3     C     0.84552   0.04645   0.26214   0.00000  Uiso   1.00
C4     C     0.75428   0.08366   0.34925   0.00000  Uiso   1.00
C5     C     0.57720   0.12358   0.49713   0.00000  Uiso   1.00
C6     C     0.11440   0.08687   0.99027   0.00000  Uiso   1.00
C7     C     0.13580   0.06858   0.86826   0.00000  Uiso   1.00
C8     C     0.17731   0.11592   0.77524   0.00000  Uiso   1.00
C9     C     0.24512   0.17449   0.59091   0.00000  Uiso   1.00
C10    C     0.15991   0.04701   0.15959   0.00000  Uiso   1.00
C11    C     0.21961   0.99521   0.17991   0.00000  Uiso   1.00
C12    C     0.29946   0.00899   0.22942   0.00000  Uiso   1.00
C13    C     0.43792   0.00568   0.30798   0.00000  Uiso   1.00
C14    C     0.10456   0.15953   0.15796   0.00000  Uiso   1.00
C15    C     0.97611   0.13817   0.23234   0.00000  Uiso   1.00
C16    C     0.88502   0.17544   0.31939   0.00000  Uiso   1.00
C17    C     0.77370   0.14710   0.37741   0.00000  Uiso   1.00
C18    C     0.13379   0.15019   0.01837   0.00000  Uiso   1.00
C19    C     0.17529   0.19757   0.92550   0.00000  Uiso   1.00
C20    C     0.19674   0.17935   0.80339   0.00000  Uiso   1.00
C21    C     0.17930   0.11034   0.18769   0.00000  Uiso   1.00
C22    C     0.25909   0.12420   0.23716   0.00000  Uiso   1.00
C23    C     0.31888   0.07243   0.25757   0.00000  Uiso   1.00
H24    H     0.05377   0.99365   0.08433   0.00000  Uiso   1.00
H25    H     0.83055   0.99745   0.24036   0.00000  Uiso   1.00
H26    H     0.12080   0.01957   0.84654   0.00000  Uiso   1.00
H27    H     0.20458   0.94622   0.15815   0.00000  Uiso   1.00
H28    H     0.59162   0.02959   0.42571   0.00000  Uiso   1.00
H29    H     0.20365   0.07624   0.59531   0.00000  Uiso   1.00
H30    H     0.38033   0.92155   0.25240   0.00000  Uiso   1.00
H31    H     0.11965   0.20883   0.17983   0.00000  Uiso   1.00
H32    H     0.90005   0.22444   0.34111   0.00000  Uiso   1.00
H33    H     0.19029   0.24656   0.94729   0.00000  Uiso   1.00
H34    H     0.27407   0.17321   0.25890   0.00000  Uiso   1.00
H35    H     0.64802   0.21383   0.50748   0.00000  Uiso   1.00
H36    H     0.26006   0.26048   0.67707   0.00000  Uiso   1.00
H37    H     0.43673   0.10579   0.33416   0.00000  Uiso   1.00
O38    O     0.47416   0.12811   0.57093   0.00000  Uiso   1.00
O39    O     0.27714   0.18930   0.48147   0.00000  Uiso   1.00
O40    O     0.50893   0.98635   0.34356   0.00000  Uiso   1.00
N41    N     0.63504   0.07081   0.42284   0.00000  Uiso   1.00
N42    N     0.20723   0.11442   0.64646   0.00000  Uiso   1.00
N43    N     0.37243   0.96980   0.26076   0.00000  Uiso   1.00
N44    N     0.66539   0.16994   0.46684   0.00000  Uiso   1.00
N45    N     0.23758   0.21356   0.69046   0.00000  Uiso   1.00
N46    N     0.40278   0.06894   0.30476   0.00000  Uiso   1.00
C47    C     0.68870   0.92748   0.80548   0.00000  Uiso   1.00
C48    C     0.80112   0.89571   0.70769   0.00000  Uiso   1.00
C49    C     0.91235   0.92412   0.65066   0.00000  Uiso   1.00
C50    C     0.00387   0.88703   0.56364   0.00000  Uiso   1.00
C51    C     0.18136   0.84729   0.41624   0.00000  Uiso   1.00
C52    C     0.64257   0.88330   0.92106   0.00000  Uiso   1.00
C53    C     0.62048   0.90128   0.04342   0.00000  Uiso   1.00
C54    C     0.57851   0.85374   0.13601   0.00000  Uiso   1.00
C55    C     0.50977   0.79476   0.31989   0.00000  Uiso   1.00
C56    C     0.59824   0.92368   0.75128   0.00000  Uiso   1.00
C57    C     0.53885   0.97561   0.73092   0.00000  Uiso   1.00
C58    C     0.45953   0.96207   0.68058   0.00000  Uiso   1.00
C59    C     0.32196   0.96578   0.60085   0.00000  Uiso   1.00
C60    C     0.65343   0.81109   0.75234   0.00000  Uiso   1.00
C61    C     0.78196   0.83248   0.67883   0.00000  Uiso   1.00
C62    C     0.87333   0.79534   0.59187   0.00000  Uiso   1.00
C63    C     0.98468   0.82369   0.53471   0.00000  Uiso   1.00
C64    C     0.62341   0.82008   0.89220   0.00000  Uiso   1.00
C65    C     0.58146   0.77250   0.98463   0.00000  Uiso   1.00
C66    C     0.55932   0.79041   0.10710   0.00000  Uiso   1.00
C67    C     0.57908   0.86046   0.72241   0.00000  Uiso   1.00
C68    C     0.49984   0.84683   0.67211   0.00000  Uiso   1.00
C69    C     0.44034   0.89873   0.65167   0.00000  Uiso   1.00
H70    H     0.70361   0.97670   0.82796   0.00000  Uiso   1.00
H71    H     0.92714   0.97304   0.67303   0.00000  Uiso   1.00
H72    H     0.63530   0.95021   0.06573   0.00000  Uiso   1.00
H73    H     0.55369   0.02453   0.75326   0.00000  Uiso   1.00
H74    H     0.16653   0.94110   0.48858   0.00000  Uiso   1.00
H75    H     0.55113   0.89296   0.31661   0.00000  Uiso   1.00
H76    H     0.37904   0.04967   0.65772   0.00000  Uiso   1.00
H77    H     0.63852   0.76186   0.72987   0.00000  Uiso   1.00
H78    H     0.85848   0.74642   0.56955   0.00000  Uiso   1.00
H79    H     0.56664   0.72359   0.96226   0.00000  Uiso   1.00
H80    H     0.48504   0.79790   0.64979   0.00000  Uiso   1.00
H81    H     0.11081   0.75716   0.40459   0.00000  Uiso   1.00
H82    H     0.49540   0.70902   0.23264   0.00000  Uiso   1.00
H83    H     0.32332   0.86573   0.57373   0.00000  Uiso   1.00
O84    O     0.28455   0.84284   0.34293   0.00000  Uiso   1.00
O85    O     0.47715   0.77969   0.42928   0.00000  Uiso   1.00
O86    O     0.25138   0.98529   0.56482   0.00000  Uiso   1.00
N87    N     0.12322   0.89993   0.49079   0.00000  Uiso   1.00
N88    N     0.54788   0.85493   0.26496   0.00000  Uiso   1.00
N89    N     0.38696   0.00143   0.64897   0.00000  Uiso   1.00
N90    N     0.09324   0.80096   0.44560   0.00000  Uiso   1.00
N91    N     0.51790   0.75595   0.21976   0.00000  Uiso   1.00
N92    N     0.35698   0.90246   0.60378   0.00000  Uiso   1.00
C93    C     0.93114   0.54294   0.89378   0.00000  Uiso   1.00
C94    C     0.04328   0.57485   0.79575   0.00000  Uiso   1.00
C95    C     0.15448   0.54645   0.73786   0.00000  Uiso   1.00
C96    C     0.24572   0.58366   0.65075   0.00000  Uiso   1.00
C97    C     0.42280   0.62358   0.50287   0.00000  Uiso   1.00
C98    C     0.88560   0.58687   0.00973   0.00000  Uiso   1.00
C99    C     0.86420   0.56858   0.13174   0.00000  Uiso   1.00
C100   C     0.82269   0.61592   0.22476   0.00000  Uiso   1.00
C101   C     0.75488   0.67449   0.40909   0.00000  Uiso   1.00
C102   C     0.84009   0.54701   0.84041   0.00000  Uiso   1.00
C103   C     0.78039   0.49521   0.82009   0.00000  Uiso   1.00
C104   C     0.70054   0.50899   0.77058   0.00000  Uiso   1.00
C105   C     0.56208   0.50568   0.69202   0.00000  Uiso   1.00
C106   C     0.89544   0.65953   0.84204   0.00000  Uiso   1.00
C107   C     0.02389   0.63817   0.76766   0.00000  Uiso   1.00
C108   C     0.11498   0.67544   0.68061   0.00000  Uiso   1.00
C109   C     0.22630   0.64710   0.62259   0.00000  Uiso   1.00
C110   C     0.86621   0.65019   0.98163   0.00000  Uiso   1.00
C111   C     0.82471   0.69757   0.07450   0.00000  Uiso   1.00
C112   C     0.80326   0.67935   0.19661   0.00000  Uiso   1.00
C113   C     0.82070   0.61034   0.81231   0.00000  Uiso   1.00
C114   C     0.74091   0.62420   0.76284   0.00000  Uiso   1.00
C115   C     0.68112   0.57243   0.74243   0.00000  Uiso   1.00
H116   H     0.94623   0.49365   0.91567   0.00000  Uiso   1.00
H117   H     0.16945   0.49745   0.75964   0.00000  Uiso   1.00
H118   H     0.87920   0.51957   0.15346   0.00000  Uiso   1.00
H119   H     0.79542   0.44622   0.84185   0.00000  Uiso   1.00
H120   H     0.40838   0.52959   0.57429   0.00000  Uiso   1.00
H121   H     0.79635   0.57624   0.40469   0.00000  Uiso   1.00
H122   H     0.61967   0.42155   0.74760   0.00000  Uiso   1.00
H123   H     0.88035   0.70883   0.82017   0.00000  Uiso   1.00
H124   H     0.09995   0.72444   0.65889   0.00000  Uiso   1.00
H125   H     0.80971   0.74656   0.05271   0.00000  Uiso   1.00
H126   H     0.72593   0.67321   0.74110   0.00000  Uiso   1.00
H127   H     0.35198   0.71383   0.49252   0.00000  Uiso   1.00
H128   H     0.73994   0.76048   0.32293   0.00000  Uiso   1.00
H129   H     0.56327   0.60579   0.66584   0.00000  Uiso   1.00
O130   O     0.52584   0.62811   0.42907   0.00000  Uiso   1.00
O131   O     0.72286   0.68930   0.51853   0.00000  Uiso   1.00
O132   O     0.49107   0.48635   0.65644   0.00000  Uiso   1.00
N133   N     0.36496   0.57081   0.57716   0.00000  Uiso   1.00
N134   N     0.79277   0.61442   0.35354   0.00000  Uiso   1.00
N135   N     0.62757   0.46980   0.73924   0.00000  Uiso   1.00
N136   N     0.33461   0.66994   0.53316   0.00000  Uiso   1.00
N137   N     0.76242   0.71356   0.30954   0.00000  Uiso   1.00
N138   N     0.59722   0.56894   0.69524   0.00000  Uiso   1.00
C139   C     0.31130   0.42748   0.19452   0.00000  Uiso   1.00
C140   C     0.19888   0.39571   0.29231   0.00000  Uiso   1.00
C141   C     0.08765   0.42412   0.34934   0.00000  Uiso   1.00
C142   C     0.99613   0.38703   0.43636   0.00000  Uiso   1.00
C143   C     0.81864   0.34729   0.58376   0.00000  Uiso   1.00
C144   C     0.35743   0.38330   0.07894   0.00000  Uiso   1.00
C145   C     0.37952   0.40128   0.95658   0.00000  Uiso   1.00
C146   C     0.42149   0.35374   0.86399   0.00000  Uiso   1.00
C147   C     0.49023   0.29476   0.68011   0.00000  Uiso   1.00
C148   C     0.40176   0.42368   0.24872   0.00000  Uiso   1.00
C149   C     0.46115   0.47561   0.26908   0.00000  Uiso   1.00
C150   C     0.54047   0.46207   0.31942   0.00000  Uiso   1.00
C151   C     0.67804   0.46578   0.39915   0.00000  Uiso   1.00
C152   C     0.34657   0.31109   0.24766   0.00000  Uiso   1.00
C153   C     0.21804   0.33248   0.32117   0.00000  Uiso   1.00
C154   C     0.12667   0.29534   0.40813   0.00000  Uiso   1.00
C155   C     0.01532   0.32369   0.46529   0.00000  Uiso   1.00
C156   C     0.37659   0.32008   0.10780   0.00000  Uiso   1.00
C157   C     0.41854   0.27250   0.01537   0.00000  Uiso   1.00
C158   C     0.44068   0.29041   0.89290   0.00000  Uiso   1.00
C159   C     0.42092   0.36046   0.27759   0.00000  Uiso   1.00
C160   C     0.50016   0.34683   0.32789   0.00000  Uiso   1.00
C161   C     0.55966   0.39873   0.34833   0.00000  Uiso   1.00
H162   H     0.29639   0.47670   0.17204   0.00000  Uiso   1.00
H163   H     0.07286   0.47304   0.32697   0.00000  Uiso   1.00
H164   H     0.36470   0.45021   0.93427   0.00000  Uiso   1.00
H165   H     0.44631   0.52453   0.24674   0.00000  Uiso   1.00
H166   H     0.83347   0.44110   0.51142   0.00000  Uiso   1.00
H167   H     0.44887   0.39296   0.68339   0.00000  Uiso   1.00
H168   H     0.62096   0.54967   0.34228   0.00000  Uiso   1.00
H169   H     0.36148   0.26186   0.27013   0.00000  Uiso   1.00
H170   H     0.14152   0.24642   0.43045   0.00000  Uiso   1.00
H171   H     0.43336   0.22359   0.03774   0.00000  Uiso   1.00
H172   H     0.51496   0.29790   0.35021   0.00000  Uiso   1.00
H173   H     0.88919   0.25716   0.59541   0.00000  Uiso   1.00
H174   H     0.50460   0.20902   0.76736   0.00000  Uiso   1.00
H175   H     0.67668   0.36573   0.42627   0.00000  Uiso   1.00
O176   O     0.71545   0.34284   0.65707   0.00000  Uiso   1.00
O177   O     0.52285   0.27969   0.57072   0.00000  Uiso   1.00
O178   O     0.74862   0.48529   0.43518   0.00000  Uiso   1.00
N179   N     0.87678   0.39993   0.50921   0.00000  Uiso   1.00
N180   N     0.45212   0.35493   0.73504   0.00000  Uiso   1.00
N181   N     0.61304   0.50143   0.35103   0.00000  Uiso   1.00
N182   N     0.90676   0.30096   0.55440   0.00000  Uiso   1.00
N183   N     0.48210   0.25595   0.78024   0.00000  Uiso   1.00
N184   N     0.64302   0.40246   0.39622   0.00000  Uiso   1.00
