data_job_01038
_audit_creation_date              2018-12-19
_audit_creation_method            'Materials Studio'
_symmetry_space_group_name_H-M    'P1'
_symmetry_Int_Tables_number       1
_symmetry_cell_setting            triclinic
loop_
_symmetry_equiv_pos_as_xyz
  x,y,z
_cell_length_a                    14.0481
_cell_length_b                    22.2461
_cell_length_c                    12.4437
_cell_angle_alpha                 90.0000
_cell_angle_beta                  107.6570
_cell_angle_gamma                 90.0000
loop_
_atom_site_label
_atom_site_type_symbol
_atom_site_fract_x
_atom_site_fract_y
_atom_site_fract_z
_atom_site_U_iso_or_equiv
_atom_site_adp_type
_atom_site_occupancy
C1     C     0.11875   0.39810   0.47853   0.00000  Uiso   1.00
C2     C     0.14695   0.42884   0.38293   0.00000  Uiso   1.00
C3     C     0.08479   0.46520   0.30048   0.00000  Uiso   1.00
C4     C     0.12462   0.48909   0.22037   0.00000  Uiso   1.00
C5     C     0.15341   0.53863   0.07154   0.00000  Uiso   1.00
C6     C     0.13821   0.33123   0.46822   0.00000  Uiso   1.00
C7     C     0.06870   0.28552   0.45749   0.00000  Uiso   1.00
C8     C     0.10118   0.22725   0.44919   0.00000  Uiso   1.00
C9     C     0.11641   0.12525   0.43285   0.00000  Uiso   1.00
C10    C     0.19532   0.41901   0.58742   0.00000  Uiso   1.00
C11    C     0.17384   0.44709   0.67694   0.00000  Uiso   1.00
C12    C     0.25440   0.46271   0.76902   0.00000  Uiso   1.00
C13    C     0.35831   0.49699   0.93777   0.00000  Uiso   1.00
C14    C     0.30002   0.37589   0.48289   0.00000  Uiso   1.00
C15    C     0.24541   0.41677   0.38530   0.00000  Uiso   1.00
C16    C     0.28534   0.44062   0.30530   0.00000  Uiso   1.00
C17    C     0.22325   0.47701   0.22275   0.00000  Uiso   1.00
C18    C     0.23666   0.31916   0.47059   0.00000  Uiso   1.00
C19    C     0.26925   0.26095   0.46231   0.00000  Uiso   1.00
C20    C     0.19981   0.21516   0.45157   0.00000  Uiso   1.00
C21    C     0.29378   0.40694   0.58980   0.00000  Uiso   1.00
C22    C     0.37439   0.42252   0.68176   0.00000  Uiso   1.00
C23    C     0.35304   0.45062   0.77140   0.00000  Uiso   1.00
H24    H     0.04210   0.40749   0.47668   0.00000  Uiso   1.00
H25    H     0.00860   0.47452   0.29866   0.00000  Uiso   1.00
H26    H     0.99252   0.29487   0.45566   0.00000  Uiso   1.00
H27    H     0.09764   0.45642   0.67508   0.00000  Uiso   1.00
H28    H     0.01486   0.54349   0.10232   0.00000  Uiso   1.00
H29    H     0.98096   0.16470   0.43340   0.00000  Uiso   1.00
H30    H     0.20263   0.50534   0.89608   0.00000  Uiso   1.00
H31    H     0.37668   0.36649   0.48474   0.00000  Uiso   1.00
H32    H     0.36154   0.43128   0.30716   0.00000  Uiso   1.00
H33    H     0.34545   0.25163   0.46416   0.00000  Uiso   1.00
H34    H     0.45057   0.41317   0.68357   0.00000  Uiso   1.00
H35    H     0.30132   0.50839   0.10921   0.00000  Uiso   1.00
H36    H     0.26742   0.12960   0.44030   0.00000  Uiso   1.00
H37    H     0.48909   0.47025   0.90297   0.00000  Uiso   1.00
O38    O     0.14208   0.56928   0.98878   0.00000  Uiso   1.00
O39    O     0.09761   0.07232   0.42317   0.00000  Uiso   1.00
O40    O     0.38843   0.51924   0.03018   0.00000  Uiso   1.00
N41    N     0.08437   0.52635   0.12832   0.00000  Uiso   1.00
N42    N     0.05266   0.17220   0.43784   0.00000  Uiso   1.00
N43    N     0.25990   0.49066   0.87042   0.00000  Uiso   1.00
N44    N     0.23850   0.50747   0.13203   0.00000  Uiso   1.00
N45    N     0.20680   0.15331   0.44155   0.00000  Uiso   1.00
N46    N     0.41404   0.47178   0.87413   0.00000  Uiso   1.00
C47    C     0.88125   0.89810   0.02147   0.00000  Uiso   1.00
C48    C     0.85305   0.92884   0.11707   0.00000  Uiso   1.00
C49    C     0.91521   0.96520   0.19952   0.00000  Uiso   1.00
C50    C     0.87538   0.98909   0.27963   0.00000  Uiso   1.00
C51    C     0.84659   0.03863   0.42846   0.00000  Uiso   1.00
C52    C     0.86179   0.83123   0.03178   0.00000  Uiso   1.00
C53    C     0.93130   0.78552   0.04251   0.00000  Uiso   1.00
C54    C     0.89882   0.72725   0.05081   0.00000  Uiso   1.00
C55    C     0.88359   0.62525   0.06715   0.00000  Uiso   1.00
C56    C     0.80468   0.91901   0.91258   0.00000  Uiso   1.00
C57    C     0.82616   0.94709   0.82306   0.00000  Uiso   1.00
C58    C     0.74560   0.96271   0.73098   0.00000  Uiso   1.00
C59    C     0.64169   0.99699   0.56223   0.00000  Uiso   1.00
C60    C     0.69998   0.87589   0.01711   0.00000  Uiso   1.00
C61    C     0.75459   0.91677   0.11470   0.00000  Uiso   1.00
C62    C     0.71466   0.94062   0.19470   0.00000  Uiso   1.00
C63    C     0.77675   0.97701   0.27725   0.00000  Uiso   1.00
C64    C     0.76334   0.81916   0.02941   0.00000  Uiso   1.00
C65    C     0.73075   0.76095   0.03769   0.00000  Uiso   1.00
C66    C     0.80019   0.71516   0.04843   0.00000  Uiso   1.00
C67    C     0.70622   0.90694   0.91020   0.00000  Uiso   1.00
C68    C     0.62561   0.92252   0.81824   0.00000  Uiso   1.00
C69    C     0.64696   0.95062   0.72860   0.00000  Uiso   1.00
H70    H     0.95790   0.90749   0.02332   0.00000  Uiso   1.00
H71    H     0.99140   0.97452   0.20134   0.00000  Uiso   1.00
H72    H     0.00748   0.79487   0.04434   0.00000  Uiso   1.00
H73    H     0.90236   0.95642   0.82492   0.00000  Uiso   1.00
H74    H     0.98514   0.04349   0.39768   0.00000  Uiso   1.00
H75    H     0.01904   0.66470   0.06660   0.00000  Uiso   1.00
H76    H     0.79737   0.00534   0.60392   0.00000  Uiso   1.00
H77    H     0.62332   0.86649   0.01526   0.00000  Uiso   1.00
H78    H     0.63846   0.93128   0.19284   0.00000  Uiso   1.00
H79    H     0.65455   0.75163   0.03584   0.00000  Uiso   1.00
H80    H     0.54943   0.91317   0.81643   0.00000  Uiso   1.00
H81    H     0.69868   0.00839   0.39079   0.00000  Uiso   1.00
H82    H     0.73258   0.62960   0.05970   0.00000  Uiso   1.00
H83    H     0.51091   0.97025   0.59703   0.00000  Uiso   1.00
O84    O     0.85792   0.06928   0.51122   0.00000  Uiso   1.00
O85    O     0.90239   0.57232   0.07683   0.00000  Uiso   1.00
O86    O     0.61157   0.01924   0.46982   0.00000  Uiso   1.00
N87    N     0.91563   0.02635   0.37168   0.00000  Uiso   1.00
N88    N     0.94734   0.67220   0.06216   0.00000  Uiso   1.00
N89    N     0.74010   0.99066   0.62958   0.00000  Uiso   1.00
N90    N     0.76150   0.00747   0.36797   0.00000  Uiso   1.00
N91    N     0.79320   0.65331   0.05845   0.00000  Uiso   1.00
N92    N     0.58596   0.97178   0.62587   0.00000  Uiso   1.00
C93    C     0.88125   0.60190   0.52147   0.00000  Uiso   1.00
C94    C     0.85305   0.57116   0.61707   0.00000  Uiso   1.00
C95    C     0.91521   0.53480   0.69952   0.00000  Uiso   1.00
C96    C     0.87538   0.51091   0.77963   0.00000  Uiso   1.00
C97    C     0.84659   0.46137   0.92846   0.00000  Uiso   1.00
C98    C     0.86179   0.66877   0.53178   0.00000  Uiso   1.00
C99    C     0.93130   0.71448   0.54251   0.00000  Uiso   1.00
C100   C     0.89882   0.77275   0.55081   0.00000  Uiso   1.00
C101   C     0.88359   0.87475   0.56715   0.00000  Uiso   1.00
C102   C     0.80468   0.58099   0.41258   0.00000  Uiso   1.00
C103   C     0.82616   0.55291   0.32306   0.00000  Uiso   1.00
C104   C     0.74560   0.53729   0.23098   0.00000  Uiso   1.00
C105   C     0.64169   0.50301   0.06223   0.00000  Uiso   1.00
C106   C     0.69998   0.62411   0.51711   0.00000  Uiso   1.00
C107   C     0.75459   0.58323   0.61470   0.00000  Uiso   1.00
C108   C     0.71466   0.55938   0.69470   0.00000  Uiso   1.00
C109   C     0.77675   0.52299   0.77725   0.00000  Uiso   1.00
C110   C     0.76334   0.68084   0.52941   0.00000  Uiso   1.00
C111   C     0.73075   0.73905   0.53769   0.00000  Uiso   1.00
C112   C     0.80019   0.78484   0.54843   0.00000  Uiso   1.00
C113   C     0.70622   0.59306   0.41020   0.00000  Uiso   1.00
C114   C     0.62561   0.57748   0.31824   0.00000  Uiso   1.00
C115   C     0.64696   0.54938   0.22860   0.00000  Uiso   1.00
H116   H     0.95790   0.59251   0.52332   0.00000  Uiso   1.00
H117   H     0.99140   0.52548   0.70134   0.00000  Uiso   1.00
H118   H     0.00748   0.70513   0.54434   0.00000  Uiso   1.00
H119   H     0.90236   0.54358   0.32492   0.00000  Uiso   1.00
H120   H     0.98514   0.45651   0.89768   0.00000  Uiso   1.00
H121   H     0.01904   0.83530   0.56660   0.00000  Uiso   1.00
H122   H     0.79737   0.49466   0.10392   0.00000  Uiso   1.00
H123   H     0.62332   0.63351   0.51526   0.00000  Uiso   1.00
H124   H     0.63846   0.56872   0.69284   0.00000  Uiso   1.00
H125   H     0.65455   0.74837   0.53584   0.00000  Uiso   1.00
H126   H     0.54943   0.58683   0.31643   0.00000  Uiso   1.00
H127   H     0.69868   0.49161   0.89079   0.00000  Uiso   1.00
H128   H     0.73258   0.87040   0.55970   0.00000  Uiso   1.00
H129   H     0.51091   0.52975   0.09703   0.00000  Uiso   1.00
O130   O     0.85792   0.43072   0.01122   0.00000  Uiso   1.00
O131   O     0.90239   0.92768   0.57683   0.00000  Uiso   1.00
O132   O     0.61157   0.48076   0.96982   0.00000  Uiso   1.00
N133   N     0.91563   0.47365   0.87168   0.00000  Uiso   1.00
N134   N     0.94734   0.82780   0.56216   0.00000  Uiso   1.00
N135   N     0.74010   0.50934   0.12958   0.00000  Uiso   1.00
N136   N     0.76150   0.49253   0.86797   0.00000  Uiso   1.00
N137   N     0.79320   0.84669   0.55845   0.00000  Uiso   1.00
N138   N     0.58596   0.52822   0.12587   0.00000  Uiso   1.00
C139   C     0.11875   0.10190   0.97853   0.00000  Uiso   1.00
C140   C     0.14695   0.07116   0.88293   0.00000  Uiso   1.00
C141   C     0.08479   0.03480   0.80048   0.00000  Uiso   1.00
C142   C     0.12462   0.01091   0.72037   0.00000  Uiso   1.00
C143   C     0.15341   0.96137   0.57154   0.00000  Uiso   1.00
C144   C     0.13821   0.16877   0.96822   0.00000  Uiso   1.00
C145   C     0.06870   0.21448   0.95749   0.00000  Uiso   1.00
C146   C     0.10118   0.27275   0.94919   0.00000  Uiso   1.00
C147   C     0.11641   0.37475   0.93285   0.00000  Uiso   1.00
C148   C     0.19532   0.08099   0.08742   0.00000  Uiso   1.00
C149   C     0.17384   0.05291   0.17694   0.00000  Uiso   1.00
C150   C     0.25440   0.03729   0.26902   0.00000  Uiso   1.00
C151   C     0.35831   0.00301   0.43777   0.00000  Uiso   1.00
C152   C     0.30002   0.12411   0.98289   0.00000  Uiso   1.00
C153   C     0.24541   0.08323   0.88530   0.00000  Uiso   1.00
C154   C     0.28534   0.05938   0.80530   0.00000  Uiso   1.00
C155   C     0.22325   0.02299   0.72275   0.00000  Uiso   1.00
C156   C     0.23666   0.18084   0.97059   0.00000  Uiso   1.00
C157   C     0.26925   0.23905   0.96231   0.00000  Uiso   1.00
C158   C     0.19981   0.28484   0.95157   0.00000  Uiso   1.00
C159   C     0.29378   0.09306   0.08980   0.00000  Uiso   1.00
C160   C     0.37439   0.07748   0.18176   0.00000  Uiso   1.00
C161   C     0.35304   0.04938   0.27140   0.00000  Uiso   1.00
H162   H     0.04210   0.09251   0.97668   0.00000  Uiso   1.00
H163   H     0.00860   0.02548   0.79866   0.00000  Uiso   1.00
H164   H     0.99252   0.20513   0.95566   0.00000  Uiso   1.00
H165   H     0.09764   0.04358   0.17508   0.00000  Uiso   1.00
H166   H     0.01486   0.95651   0.60232   0.00000  Uiso   1.00
H167   H     0.98096   0.33530   0.93340   0.00000  Uiso   1.00
H168   H     0.20263   0.99466   0.39608   0.00000  Uiso   1.00
H169   H     0.37668   0.13351   0.98474   0.00000  Uiso   1.00
H170   H     0.36154   0.06872   0.80716   0.00000  Uiso   1.00
H171   H     0.34545   0.24837   0.96416   0.00000  Uiso   1.00
H172   H     0.45057   0.08683   0.18357   0.00000  Uiso   1.00
H173   H     0.30132   0.99161   0.60921   0.00000  Uiso   1.00
H174   H     0.26742   0.37040   0.94030   0.00000  Uiso   1.00
H175   H     0.48909   0.02975   0.40297   0.00000  Uiso   1.00
O176   O     0.14208   0.93072   0.48878   0.00000  Uiso   1.00
O177   O     0.09761   0.42768   0.92317   0.00000  Uiso   1.00
O178   O     0.38843   0.98076   0.53018   0.00000  Uiso   1.00
N179   N     0.08437   0.97365   0.62832   0.00000  Uiso   1.00
N180   N     0.05266   0.32780   0.93784   0.00000  Uiso   1.00
N181   N     0.25990   0.00934   0.37042   0.00000  Uiso   1.00
N182   N     0.23850   0.99253   0.63203   0.00000  Uiso   1.00
N183   N     0.20680   0.34669   0.94155   0.00000  Uiso   1.00
N184   N     0.41404   0.02822   0.37413   0.00000  Uiso   1.00
