data_job_01734
_audit_creation_date              2018-12-19
_audit_creation_method            'Materials Studio'
_symmetry_space_group_name_H-M    'P1'
_symmetry_Int_Tables_number       1
_symmetry_cell_setting            triclinic
loop_
_symmetry_equiv_pos_as_xyz
  x,y,z
_cell_length_a                    40.4120
_cell_length_b                    15.0742
_cell_length_c                    38.2552
_cell_angle_alpha                 90.0000
_cell_angle_beta                  166.1968
_cell_angle_gamma                 90.0000
loop_
_atom_site_label
_atom_site_type_symbol
_atom_site_fract_x
_atom_site_fract_y
_atom_site_fract_z
_atom_site_U_iso_or_equiv
_atom_site_adp_type
_atom_site_occupancy
C1     C     0.49933   0.26176   0.67544   0.00000  Uiso   1.00
C2     C     0.65713   0.25972   0.83476   0.00000  Uiso   1.00
C3     C     0.74591   0.21688   0.94886   0.00000  Uiso   1.00
C4     C     0.88699   0.22288   0.08672   0.00000  Uiso   1.00
C5     C     0.12436   0.21257   0.33065   0.00000  Uiso   1.00
C6     C     0.45885   0.35953   0.63470   0.00000  Uiso   1.00
C7     C     0.38089   0.40060   0.58058   0.00000  Uiso   1.00
C8     C     0.35504   0.49062   0.55000   0.00000  Uiso   1.00
C9     C     0.28447   0.63526   0.48324   0.00000  Uiso   1.00
C10    C     0.44553   0.22555   0.58558   0.00000  Uiso   1.00
C11    C     0.35635   0.15399   0.49013   0.00000  Uiso   1.00
C12    C     0.31926   0.13123   0.41817   0.00000  Uiso   1.00
C13    C     0.22802   0.06785   0.27515   0.00000  Uiso   1.00
C14    C     0.59201   0.34860   0.71735   0.00000  Uiso   1.00
C15    C     0.70746   0.30689   0.85752   0.00000  Uiso   1.00
C16    C     0.84845   0.31296   0.99524   0.00000  Uiso   1.00
C17    C     0.93742   0.27013   0.10953   0.00000  Uiso   1.00
C18    C     0.50918   0.40670   0.65746   0.00000  Uiso   1.00
C19    C     0.48342   0.49668   0.62695   0.00000  Uiso   1.00
C20    C     0.40546   0.53788   0.57281   0.00000  Uiso   1.00
C21    C     0.49587   0.27272   0.60835   0.00000  Uiso   1.00
C22    C     0.45889   0.25007   0.53651   0.00000  Uiso   1.00
C23    C     0.36968   0.17849   0.44098   0.00000  Uiso   1.00
H24    H     0.46014   0.22504   0.65771   0.00000  Uiso   1.00
H25    H     0.70692   0.18038   0.93120   0.00000  Uiso   1.00
H26    H     0.34194   0.36408   0.56296   0.00000  Uiso   1.00
H27    H     0.31742   0.11750   0.47254   0.00000  Uiso   1.00
H28    H     0.00272   0.15171   0.24447   0.00000  Uiso   1.00
H29    H     0.23311   0.53902   0.46797   0.00000  Uiso   1.00
H30    H     0.18139   0.01908   0.27729   0.00000  Uiso   1.00
H31    H     0.63119   0.38533   0.73507   0.00000  Uiso   1.00
H32    H     0.88737   0.34947   0.01282   0.00000  Uiso   1.00
H33    H     0.52239   0.53316   0.64457   0.00000  Uiso   1.00
H34    H     0.49787   0.28659   0.55415   0.00000  Uiso   1.00
H35    H     0.14918   0.28895   0.31072   0.00000  Uiso   1.00
H36    H     0.37956   0.67626   0.53420   0.00000  Uiso   1.00
H37    H     0.32785   0.15632   0.34353   0.00000  Uiso   1.00
O38    O     0.24138   0.19387   0.45892   0.00000  Uiso   1.00
O39    O     0.23166   0.70201   0.44014   0.00000  Uiso   1.00
O40    O     0.16381   0.01985   0.18999   0.00000  Uiso   1.00
N41    N     0.00203   0.18891   0.22194   0.00000  Uiso   1.00
N42    N     0.28251   0.55103   0.49597   0.00000  Uiso   1.00
N43    N     0.23412   0.06495   0.31768   0.00000  Uiso   1.00
N44    N     0.08084   0.26276   0.25759   0.00000  Uiso   1.00
N45    N     0.36132   0.62488   0.53162   0.00000  Uiso   1.00
N46    N     0.31293   0.13879   0.35332   0.00000  Uiso   1.00
C47    C     0.99150   0.57666   0.66641   0.00000  Uiso   1.00
C48    C     0.14932   0.57419   0.82589   0.00000  Uiso   1.00
C49    C     0.23738   0.53007   0.93905   0.00000  Uiso   1.00
C50    C     0.37861   0.53588   0.07725   0.00000  Uiso   1.00
C51    C     0.61588   0.52475   0.32125   0.00000  Uiso   1.00
C52    C     0.95181   0.67452   0.62709   0.00000  Uiso   1.00
C53    C     0.87378   0.71475   0.57308   0.00000  Uiso   1.00
C54    C     0.84874   0.80502   0.54391   0.00000  Uiso   1.00
C55    C     0.77928   0.94963   0.47917   0.00000  Uiso   1.00
C56    C     0.93795   0.54212   0.57652   0.00000  Uiso   1.00
C57    C     0.84825   0.47104   0.47997   0.00000  Uiso   1.00
C58    C     0.81151   0.44986   0.40819   0.00000  Uiso   1.00
C59    C     0.72054   0.38891   0.26494   0.00000  Uiso   1.00
C60    C     0.08573   0.66544   0.71059   0.00000  Uiso   1.00
C61    C     0.20050   0.62241   0.84989   0.00000  Uiso   1.00
C62    C     0.34164   0.62829   0.98795   0.00000  Uiso   1.00
C63    C     0.42989   0.58419   0.10130   0.00000  Uiso   1.00
C64    C     0.00299   0.72274   0.65109   0.00000  Uiso   1.00
C65    C     0.97804   0.81297   0.62198   0.00000  Uiso   1.00
C66    C     0.90001   0.85333   0.56795   0.00000  Uiso   1.00
C67    C     0.98914   0.59034   0.60052   0.00000  Uiso   1.00
C68    C     0.95252   0.56927   0.52887   0.00000  Uiso   1.00
C69    C     0.86278   0.49817   0.43223   0.00000  Uiso   1.00
H70    H     0.95165   0.53912   0.64771   0.00000  Uiso   1.00
H71    H     0.19773   0.49276   0.92044   0.00000  Uiso   1.00
H72    H     0.83418   0.67741   0.55451   0.00000  Uiso   1.00
H73    H     0.80866   0.43374   0.46142   0.00000  Uiso   1.00
H74    H     0.49313   0.46266   0.23340   0.00000  Uiso   1.00
H75    H     0.72652   0.85199   0.46177   0.00000  Uiso   1.00
H76    H     0.67270   0.33817   0.26547   0.00000  Uiso   1.00
H77    H     0.12558   0.70299   0.72928   0.00000  Uiso   1.00
H78    H     0.38122   0.66562   0.00649   0.00000  Uiso   1.00
H79    H     0.01766   0.85027   0.64056   0.00000  Uiso   1.00
H80    H     0.99215   0.60660   0.54747   0.00000  Uiso   1.00
H81    H     0.64205   0.60296   0.30324   0.00000  Uiso   1.00
H82    H     0.87544   0.99229   0.53161   0.00000  Uiso   1.00
H83    H     0.82163   0.47847   0.33531   0.00000  Uiso   1.00
O84    O     0.73262   0.50530   0.44921   0.00000  Uiso   1.00
O85    O     0.72684   0.01608   0.43684   0.00000  Uiso   1.00
O86    O     0.65624   0.34196   0.17931   0.00000  Uiso   1.00
N87    N     0.49309   0.50079   0.21179   0.00000  Uiso   1.00
N88    N     0.77638   0.86480   0.49039   0.00000  Uiso   1.00
N89    N     0.72604   0.38444   0.30683   0.00000  Uiso   1.00
N90    N     0.57323   0.57629   0.24937   0.00000  Uiso   1.00
N91    N     0.85652   0.94029   0.52797   0.00000  Uiso   1.00
N92    N     0.80617   0.45993   0.34441   0.00000  Uiso   1.00
C93    C     0.50067   0.76176   0.82456   0.00000  Uiso   1.00
C94    C     0.34287   0.75972   0.66524   0.00000  Uiso   1.00
C95    C     0.25409   0.71688   0.55114   0.00000  Uiso   1.00
C96    C     0.11301   0.72288   0.41328   0.00000  Uiso   1.00
C97    C     0.87564   0.71257   0.16935   0.00000  Uiso   1.00
C98    C     0.54115   0.85953   0.86530   0.00000  Uiso   1.00
C99    C     0.61911   0.90060   0.91942   0.00000  Uiso   1.00
C100   C     0.64496   0.99062   0.95000   0.00000  Uiso   1.00
C101   C     0.71553   0.13526   0.01676   0.00000  Uiso   1.00
C102   C     0.55447   0.72555   0.91442   0.00000  Uiso   1.00
C103   C     0.64365   0.65399   0.00987   0.00000  Uiso   1.00
C104   C     0.68074   0.63123   0.08183   0.00000  Uiso   1.00
C105   C     0.77198   0.56785   0.22485   0.00000  Uiso   1.00
C106   C     0.40799   0.84860   0.78265   0.00000  Uiso   1.00
C107   C     0.29254   0.80689   0.64248   0.00000  Uiso   1.00
C108   C     0.15155   0.81296   0.50476   0.00000  Uiso   1.00
C109   C     0.06258   0.77013   0.39047   0.00000  Uiso   1.00
C110   C     0.49082   0.90670   0.84254   0.00000  Uiso   1.00
C111   C     0.51658   0.99668   0.87305   0.00000  Uiso   1.00
C112   C     0.59454   0.03788   0.92719   0.00000  Uiso   1.00
C113   C     0.50413   0.77272   0.89165   0.00000  Uiso   1.00
C114   C     0.54111   0.75007   0.96349   0.00000  Uiso   1.00
C115   C     0.63032   0.67849   0.05902   0.00000  Uiso   1.00
H116   H     0.53986   0.72504   0.84229   0.00000  Uiso   1.00
H117   H     0.29308   0.68038   0.56880   0.00000  Uiso   1.00
H118   H     0.65806   0.86408   0.93704   0.00000  Uiso   1.00
H119   H     0.68258   0.61750   0.02746   0.00000  Uiso   1.00
H120   H     0.99728   0.65171   0.25553   0.00000  Uiso   1.00
H121   H     0.76689   0.03902   0.03203   0.00000  Uiso   1.00
H122   H     0.81861   0.51908   0.22271   0.00000  Uiso   1.00
H123   H     0.36881   0.88533   0.76493   0.00000  Uiso   1.00
H124   H     0.11263   0.84947   0.48718   0.00000  Uiso   1.00
H125   H     0.47761   0.03316   0.85543   0.00000  Uiso   1.00
H126   H     0.50213   0.78659   0.94585   0.00000  Uiso   1.00
H127   H     0.85082   0.78895   0.18928   0.00000  Uiso   1.00
H128   H     0.62044   0.17626   0.96580   0.00000  Uiso   1.00
H129   H     0.67215   0.65632   0.15647   0.00000  Uiso   1.00
O130   O     0.75862   0.69387   0.04108   0.00000  Uiso   1.00
O131   O     0.76834   0.20201   0.05986   0.00000  Uiso   1.00
O132   O     0.83619   0.51985   0.31001   0.00000  Uiso   1.00
N133   N     0.99797   0.68891   0.27806   0.00000  Uiso   1.00
N134   N     0.71749   0.05103   0.00403   0.00000  Uiso   1.00
N135   N     0.76588   0.56495   0.18232   0.00000  Uiso   1.00
N136   N     0.91916   0.76276   0.24241   0.00000  Uiso   1.00
N137   N     0.63868   0.12488   0.96838   0.00000  Uiso   1.00
N138   N     0.68707   0.63879   0.14668   0.00000  Uiso   1.00
C139   C     0.00850   0.07666   0.83359   0.00000  Uiso   1.00
C140   C     0.85068   0.07419   0.67411   0.00000  Uiso   1.00
C141   C     0.76262   0.03007   0.56095   0.00000  Uiso   1.00
C142   C     0.62139   0.03588   0.42275   0.00000  Uiso   1.00
C143   C     0.38412   0.02475   0.17875   0.00000  Uiso   1.00
C144   C     0.04819   0.17452   0.87291   0.00000  Uiso   1.00
C145   C     0.12622   0.21475   0.92692   0.00000  Uiso   1.00
C146   C     0.15126   0.30502   0.95609   0.00000  Uiso   1.00
C147   C     0.22072   0.44963   0.02083   0.00000  Uiso   1.00
C148   C     0.06205   0.04212   0.92348   0.00000  Uiso   1.00
C149   C     0.15175   0.97104   0.02003   0.00000  Uiso   1.00
C150   C     0.18849   0.94986   0.09181   0.00000  Uiso   1.00
C151   C     0.27946   0.88891   0.23506   0.00000  Uiso   1.00
C152   C     0.91427   0.16544   0.78941   0.00000  Uiso   1.00
C153   C     0.79950   0.12241   0.65011   0.00000  Uiso   1.00
C154   C     0.65836   0.12829   0.51205   0.00000  Uiso   1.00
C155   C     0.57011   0.08419   0.39870   0.00000  Uiso   1.00
C156   C     0.99701   0.22274   0.84891   0.00000  Uiso   1.00
C157   C     0.02196   0.31297   0.87802   0.00000  Uiso   1.00
C158   C     0.09999   0.35333   0.93205   0.00000  Uiso   1.00
C159   C     0.01086   0.09034   0.89948   0.00000  Uiso   1.00
C160   C     0.04748   0.06927   0.97113   0.00000  Uiso   1.00
C161   C     0.13722   0.99817   0.06777   0.00000  Uiso   1.00
H162   H     0.04835   0.03912   0.85229   0.00000  Uiso   1.00
H163   H     0.80227   0.99276   0.57956   0.00000  Uiso   1.00
H164   H     0.16582   0.17741   0.94549   0.00000  Uiso   1.00
H165   H     0.19134   0.93374   0.03858   0.00000  Uiso   1.00
H166   H     0.50687   0.96266   0.26660   0.00000  Uiso   1.00
H167   H     0.27348   0.35199   0.03823   0.00000  Uiso   1.00
H168   H     0.32730   0.83817   0.23453   0.00000  Uiso   1.00
H169   H     0.87442   0.20299   0.77072   0.00000  Uiso   1.00
H170   H     0.61878   0.16562   0.49351   0.00000  Uiso   1.00
H171   H     0.98234   0.35027   0.85944   0.00000  Uiso   1.00
H172   H     0.00785   0.10660   0.95253   0.00000  Uiso   1.00
H173   H     0.35795   0.10296   0.19676   0.00000  Uiso   1.00
H174   H     0.12456   0.49229   0.96839   0.00000  Uiso   1.00
H175   H     0.17837   0.97847   0.16469   0.00000  Uiso   1.00
O176   O     0.26738   0.00530   0.05079   0.00000  Uiso   1.00
O177   O     0.27316   0.51608   0.06316   0.00000  Uiso   1.00
O178   O     0.34376   0.84196   0.32069   0.00000  Uiso   1.00
N179   N     0.50691   0.00079   0.28821   0.00000  Uiso   1.00
N180   N     0.22362   0.36480   0.00961   0.00000  Uiso   1.00
N181   N     0.27396   0.88444   0.19317   0.00000  Uiso   1.00
N182   N     0.42677   0.07629   0.25063   0.00000  Uiso   1.00
N183   N     0.14348   0.44029   0.97203   0.00000  Uiso   1.00
N184   N     0.19383   0.95993   0.15559   0.00000  Uiso   1.00
C185   C     0.50067   0.73824   0.32456   0.00000  Uiso   1.00
C186   C     0.34287   0.74028   0.16524   0.00000  Uiso   1.00
C187   C     0.25409   0.78312   0.05114   0.00000  Uiso   1.00
C188   C     0.11301   0.77712   0.91328   0.00000  Uiso   1.00
C189   C     0.87564   0.78743   0.66935   0.00000  Uiso   1.00
C190   C     0.54115   0.64047   0.36530   0.00000  Uiso   1.00
C191   C     0.61911   0.59940   0.41942   0.00000  Uiso   1.00
C192   C     0.64496   0.50938   0.45000   0.00000  Uiso   1.00
C193   C     0.71553   0.36474   0.51676   0.00000  Uiso   1.00
C194   C     0.55447   0.77445   0.41442   0.00000  Uiso   1.00
C195   C     0.64365   0.84601   0.50987   0.00000  Uiso   1.00
C196   C     0.68074   0.86877   0.58183   0.00000  Uiso   1.00
C197   C     0.77198   0.93215   0.72485   0.00000  Uiso   1.00
C198   C     0.40799   0.65140   0.28265   0.00000  Uiso   1.00
C199   C     0.29254   0.69311   0.14248   0.00000  Uiso   1.00
C200   C     0.15155   0.68704   0.00476   0.00000  Uiso   1.00
C201   C     0.06258   0.72987   0.89047   0.00000  Uiso   1.00
C202   C     0.49082   0.59330   0.34254   0.00000  Uiso   1.00
C203   C     0.51658   0.50332   0.37305   0.00000  Uiso   1.00
C204   C     0.59454   0.46212   0.42719   0.00000  Uiso   1.00
C205   C     0.50413   0.72728   0.39165   0.00000  Uiso   1.00
C206   C     0.54111   0.74993   0.46349   0.00000  Uiso   1.00
C207   C     0.63032   0.82151   0.55902   0.00000  Uiso   1.00
H208   H     0.53986   0.77496   0.34229   0.00000  Uiso   1.00
H209   H     0.29308   0.81962   0.06880   0.00000  Uiso   1.00
H210   H     0.65806   0.63592   0.43704   0.00000  Uiso   1.00
H211   H     0.68258   0.88250   0.52746   0.00000  Uiso   1.00
H212   H     0.99728   0.84829   0.75553   0.00000  Uiso   1.00
H213   H     0.76689   0.46098   0.53203   0.00000  Uiso   1.00
H214   H     0.81861   0.98092   0.72271   0.00000  Uiso   1.00
H215   H     0.36881   0.61467   0.26493   0.00000  Uiso   1.00
H216   H     0.11263   0.65053   0.98718   0.00000  Uiso   1.00
H217   H     0.47761   0.46684   0.35543   0.00000  Uiso   1.00
H218   H     0.50213   0.71341   0.44585   0.00000  Uiso   1.00
H219   H     0.85082   0.71105   0.68928   0.00000  Uiso   1.00
H220   H     0.62044   0.32374   0.46580   0.00000  Uiso   1.00
H221   H     0.67215   0.84368   0.65647   0.00000  Uiso   1.00
O222   O     0.75862   0.80613   0.54108   0.00000  Uiso   1.00
O223   O     0.76834   0.29799   0.55986   0.00000  Uiso   1.00
O224   O     0.83619   0.98015   0.81001   0.00000  Uiso   1.00
N225   N     0.99797   0.81109   0.77806   0.00000  Uiso   1.00
N226   N     0.71749   0.44897   0.50403   0.00000  Uiso   1.00
N227   N     0.76588   0.93505   0.68232   0.00000  Uiso   1.00
N228   N     0.91916   0.73724   0.74241   0.00000  Uiso   1.00
N229   N     0.63868   0.37512   0.46838   0.00000  Uiso   1.00
N230   N     0.68707   0.86121   0.64668   0.00000  Uiso   1.00
C231   C     0.00850   0.42334   0.33359   0.00000  Uiso   1.00
C232   C     0.85068   0.42581   0.17411   0.00000  Uiso   1.00
C233   C     0.76262   0.46993   0.06095   0.00000  Uiso   1.00
C234   C     0.62139   0.46412   0.92275   0.00000  Uiso   1.00
C235   C     0.38412   0.47525   0.67875   0.00000  Uiso   1.00
C236   C     0.04819   0.32548   0.37291   0.00000  Uiso   1.00
C237   C     0.12622   0.28525   0.42692   0.00000  Uiso   1.00
C238   C     0.15126   0.19498   0.45609   0.00000  Uiso   1.00
C239   C     0.22072   0.05037   0.52083   0.00000  Uiso   1.00
C240   C     0.06205   0.45788   0.42348   0.00000  Uiso   1.00
C241   C     0.15175   0.52896   0.52003   0.00000  Uiso   1.00
C242   C     0.18849   0.55014   0.59181   0.00000  Uiso   1.00
C243   C     0.27946   0.61109   0.73506   0.00000  Uiso   1.00
C244   C     0.91427   0.33456   0.28941   0.00000  Uiso   1.00
C245   C     0.79950   0.37759   0.15011   0.00000  Uiso   1.00
C246   C     0.65836   0.37171   0.01205   0.00000  Uiso   1.00
C247   C     0.57011   0.41581   0.89870   0.00000  Uiso   1.00
C248   C     0.99701   0.27726   0.34891   0.00000  Uiso   1.00
C249   C     0.02196   0.18703   0.37802   0.00000  Uiso   1.00
C250   C     0.09999   0.14667   0.43205   0.00000  Uiso   1.00
C251   C     0.01086   0.40966   0.39948   0.00000  Uiso   1.00
C252   C     0.04748   0.43073   0.47113   0.00000  Uiso   1.00
C253   C     0.13722   0.50183   0.56777   0.00000  Uiso   1.00
H254   H     0.04835   0.46088   0.35229   0.00000  Uiso   1.00
H255   H     0.80227   0.50724   0.07956   0.00000  Uiso   1.00
H256   H     0.16582   0.32259   0.44549   0.00000  Uiso   1.00
H257   H     0.19134   0.56626   0.53858   0.00000  Uiso   1.00
H258   H     0.50687   0.53734   0.76660   0.00000  Uiso   1.00
H259   H     0.27348   0.14801   0.53823   0.00000  Uiso   1.00
H260   H     0.32730   0.66183   0.73453   0.00000  Uiso   1.00
H261   H     0.87442   0.29701   0.27072   0.00000  Uiso   1.00
H262   H     0.61878   0.33438   0.99351   0.00000  Uiso   1.00
H263   H     0.98234   0.14973   0.35944   0.00000  Uiso   1.00
H264   H     0.00785   0.39340   0.45253   0.00000  Uiso   1.00
H265   H     0.35795   0.39704   0.69676   0.00000  Uiso   1.00
H266   H     0.12456   0.00771   0.46839   0.00000  Uiso   1.00
H267   H     0.17837   0.52153   0.66469   0.00000  Uiso   1.00
O268   O     0.26738   0.49470   0.55079   0.00000  Uiso   1.00
O269   O     0.27316   0.98392   0.56316   0.00000  Uiso   1.00
O270   O     0.34376   0.65804   0.82069   0.00000  Uiso   1.00
N271   N     0.50691   0.49921   0.78821   0.00000  Uiso   1.00
N272   N     0.22362   0.13520   0.50961   0.00000  Uiso   1.00
N273   N     0.27396   0.61556   0.69317   0.00000  Uiso   1.00
N274   N     0.42677   0.42371   0.75063   0.00000  Uiso   1.00
N275   N     0.14348   0.05971   0.47203   0.00000  Uiso   1.00
N276   N     0.19383   0.54007   0.65559   0.00000  Uiso   1.00
C277   C     0.49933   0.23824   0.17544   0.00000  Uiso   1.00
C278   C     0.65713   0.24028   0.33476   0.00000  Uiso   1.00
C279   C     0.74591   0.28312   0.44886   0.00000  Uiso   1.00
C280   C     0.88699   0.27712   0.58672   0.00000  Uiso   1.00
C281   C     0.12436   0.28743   0.83065   0.00000  Uiso   1.00
C282   C     0.45885   0.14047   0.13470   0.00000  Uiso   1.00
C283   C     0.38089   0.09940   0.08058   0.00000  Uiso   1.00
C284   C     0.35504   0.00938   0.05000   0.00000  Uiso   1.00
C285   C     0.28447   0.86474   0.98324   0.00000  Uiso   1.00
C286   C     0.44553   0.27445   0.08558   0.00000  Uiso   1.00
C287   C     0.35635   0.34601   0.99013   0.00000  Uiso   1.00
C288   C     0.31926   0.36877   0.91817   0.00000  Uiso   1.00
C289   C     0.22802   0.43215   0.77515   0.00000  Uiso   1.00
C290   C     0.59201   0.15140   0.21735   0.00000  Uiso   1.00
C291   C     0.70746   0.19311   0.35752   0.00000  Uiso   1.00
C292   C     0.84845   0.18704   0.49524   0.00000  Uiso   1.00
C293   C     0.93742   0.22987   0.60953   0.00000  Uiso   1.00
C294   C     0.50918   0.09330   0.15746   0.00000  Uiso   1.00
C295   C     0.48342   0.00332   0.12695   0.00000  Uiso   1.00
C296   C     0.40546   0.96212   0.07281   0.00000  Uiso   1.00
C297   C     0.49587   0.22728   0.10835   0.00000  Uiso   1.00
C298   C     0.45889   0.24993   0.03651   0.00000  Uiso   1.00
C299   C     0.36968   0.32151   0.94098   0.00000  Uiso   1.00
H300   H     0.46014   0.27496   0.15771   0.00000  Uiso   1.00
H301   H     0.70692   0.31962   0.43120   0.00000  Uiso   1.00
H302   H     0.34194   0.13592   0.06296   0.00000  Uiso   1.00
H303   H     0.31742   0.38250   0.97254   0.00000  Uiso   1.00
H304   H     0.00272   0.34829   0.74447   0.00000  Uiso   1.00
H305   H     0.23311   0.96098   0.96797   0.00000  Uiso   1.00
H306   H     0.18139   0.48092   0.77729   0.00000  Uiso   1.00
H307   H     0.63119   0.11467   0.23507   0.00000  Uiso   1.00
H308   H     0.88737   0.15053   0.51282   0.00000  Uiso   1.00
H309   H     0.52239   0.96684   0.14457   0.00000  Uiso   1.00
H310   H     0.49787   0.21341   0.05415   0.00000  Uiso   1.00
H311   H     0.14918   0.21105   0.81072   0.00000  Uiso   1.00
H312   H     0.37956   0.82374   0.03420   0.00000  Uiso   1.00
H313   H     0.32785   0.34368   0.84353   0.00000  Uiso   1.00
O314   O     0.24138   0.30613   0.95892   0.00000  Uiso   1.00
O315   O     0.23166   0.79799   0.94014   0.00000  Uiso   1.00
O316   O     0.16381   0.48015   0.68999   0.00000  Uiso   1.00
N317   N     0.00203   0.31109   0.72194   0.00000  Uiso   1.00
N318   N     0.28251   0.94897   0.99597   0.00000  Uiso   1.00
N319   N     0.23412   0.43505   0.81768   0.00000  Uiso   1.00
N320   N     0.08084   0.23724   0.75759   0.00000  Uiso   1.00
N321   N     0.36132   0.87512   0.03162   0.00000  Uiso   1.00
N322   N     0.31293   0.36121   0.85332   0.00000  Uiso   1.00
C323   C     0.99150   0.92334   0.16641   0.00000  Uiso   1.00
C324   C     0.14932   0.92581   0.32589   0.00000  Uiso   1.00
C325   C     0.23738   0.96993   0.43905   0.00000  Uiso   1.00
C326   C     0.37861   0.96412   0.57725   0.00000  Uiso   1.00
C327   C     0.61588   0.97525   0.82125   0.00000  Uiso   1.00
C328   C     0.95181   0.82548   0.12709   0.00000  Uiso   1.00
C329   C     0.87378   0.78525   0.07308   0.00000  Uiso   1.00
C330   C     0.84874   0.69498   0.04391   0.00000  Uiso   1.00
C331   C     0.77928   0.55037   0.97917   0.00000  Uiso   1.00
C332   C     0.93795   0.95788   0.07652   0.00000  Uiso   1.00
C333   C     0.84825   0.02896   0.97997   0.00000  Uiso   1.00
C334   C     0.81151   0.05014   0.90819   0.00000  Uiso   1.00
C335   C     0.72054   0.11109   0.76494   0.00000  Uiso   1.00
C336   C     0.08573   0.83456   0.21059   0.00000  Uiso   1.00
C337   C     0.20050   0.87759   0.34989   0.00000  Uiso   1.00
C338   C     0.34164   0.87171   0.48795   0.00000  Uiso   1.00
C339   C     0.42989   0.91581   0.60130   0.00000  Uiso   1.00
C340   C     0.00299   0.77726   0.15109   0.00000  Uiso   1.00
C341   C     0.97804   0.68703   0.12198   0.00000  Uiso   1.00
C342   C     0.90001   0.64667   0.06795   0.00000  Uiso   1.00
C343   C     0.98914   0.90966   0.10052   0.00000  Uiso   1.00
C344   C     0.95252   0.93073   0.02887   0.00000  Uiso   1.00
C345   C     0.86278   0.00183   0.93223   0.00000  Uiso   1.00
H346   H     0.95165   0.96088   0.14771   0.00000  Uiso   1.00
H347   H     0.19773   0.00724   0.42044   0.00000  Uiso   1.00
H348   H     0.83418   0.82259   0.05451   0.00000  Uiso   1.00
H349   H     0.80866   0.06626   0.96142   0.00000  Uiso   1.00
H350   H     0.49313   0.03734   0.73340   0.00000  Uiso   1.00
H351   H     0.72652   0.64801   0.96177   0.00000  Uiso   1.00
H352   H     0.67270   0.16183   0.76547   0.00000  Uiso   1.00
H353   H     0.12558   0.79701   0.22928   0.00000  Uiso   1.00
H354   H     0.38122   0.83438   0.50649   0.00000  Uiso   1.00
H355   H     0.01766   0.64973   0.14056   0.00000  Uiso   1.00
H356   H     0.99215   0.89340   0.04747   0.00000  Uiso   1.00
H357   H     0.64205   0.89704   0.80324   0.00000  Uiso   1.00
H358   H     0.87544   0.50771   0.03161   0.00000  Uiso   1.00
H359   H     0.82163   0.02153   0.83531   0.00000  Uiso   1.00
O360   O     0.73262   0.99470   0.94921   0.00000  Uiso   1.00
O361   O     0.72684   0.48392   0.93684   0.00000  Uiso   1.00
O362   O     0.65624   0.15804   0.67931   0.00000  Uiso   1.00
N363   N     0.49309   0.99921   0.71179   0.00000  Uiso   1.00
N364   N     0.77638   0.63520   0.99039   0.00000  Uiso   1.00
N365   N     0.72604   0.11556   0.80683   0.00000  Uiso   1.00
N366   N     0.57323   0.92371   0.74937   0.00000  Uiso   1.00
N367   N     0.85652   0.55971   0.02797   0.00000  Uiso   1.00
N368   N     0.80617   0.04007   0.84441   0.00000  Uiso   1.00
