data_job_03697
_audit_creation_date              2018-12-19
_audit_creation_method            'Materials Studio'
_symmetry_space_group_name_H-M    'P1'
_symmetry_Int_Tables_number       1
_symmetry_cell_setting            triclinic
loop_
_symmetry_equiv_pos_as_xyz
  x,y,z
_cell_length_a                    10.7272
_cell_length_b                    17.2440
_cell_length_c                    20.0398
_cell_angle_alpha                 90.0000
_cell_angle_beta                  100.7750
_cell_angle_gamma                 90.0000
loop_
_atom_site_label
_atom_site_type_symbol
_atom_site_fract_x
_atom_site_fract_y
_atom_site_fract_z
_atom_site_U_iso_or_equiv
_atom_site_adp_type
_atom_site_occupancy
C1     C     0.55419   0.07227   0.27081   0.00000  Uiso   1.00
C2     C     0.51178   0.13746   0.31289   0.00000  Uiso   1.00
C3     C     0.57328   0.20792   0.32764   0.00000  Uiso   1.00
C4     C     0.51937   0.25986   0.36695   0.00000  Uiso   1.00
C5     C     0.47050   0.36380   0.42873   0.00000  Uiso   1.00
C6     C     0.56802   0.00046   0.31599   0.00000  Uiso   1.00
C7     C     0.67681   0.95572   0.33333   0.00000  Uiso   1.00
C8     C     0.67023   0.89232   0.37524   0.00000  Uiso   1.00
C9     C     0.70865   0.78352   0.44179   0.00000  Uiso   1.00
C10    C     0.44222   0.05625   0.21342   0.00000  Uiso   1.00
C11    C     0.44524   0.05841   0.14451   0.00000  Uiso   1.00
C12    C     0.33276   0.04197   0.10006   0.00000  Uiso   1.00
C13    C     0.17585   0.01980   0.00734   0.00000  Uiso   1.00
C14    C     0.34908   0.03922   0.31440   0.00000  Uiso   1.00
C15    C     0.40037   0.11951   0.33657   0.00000  Uiso   1.00
C16    C     0.34635   0.17136   0.37587   0.00000  Uiso   1.00
C17    C     0.40776   0.24188   0.39067   0.00000  Uiso   1.00
C18    C     0.45662   0.98250   0.33967   0.00000  Uiso   1.00
C19    C     0.44988   0.91915   0.38156   0.00000  Uiso   1.00
C20    C     0.55863   0.87433   0.39896   0.00000  Uiso   1.00
C21    C     0.33081   0.03830   0.23709   0.00000  Uiso   1.00
C22    C     0.21831   0.02185   0.19274   0.00000  Uiso   1.00
C23    C     0.22115   0.02398   0.12378   0.00000  Uiso   1.00
H24    H     0.64092   0.08625   0.25237   0.00000  Uiso   1.00
H25    H     0.65950   0.22179   0.30931   0.00000  Uiso   1.00
H26    H     0.76300   0.96962   0.31499   0.00000  Uiso   1.00
H27    H     0.53147   0.07230   0.12620   0.00000  Uiso   1.00
H28    H     0.63099   0.36414   0.38290   0.00000  Uiso   1.00
H29    H     0.84922   0.83241   0.39486   0.00000  Uiso   1.00
H30    H     0.36098   0.04893   0.99676   0.00000  Uiso   1.00
H31    H     0.26234   0.02525   0.33284   0.00000  Uiso   1.00
H32    H     0.26014   0.15745   0.39419   0.00000  Uiso   1.00
H33    H     0.36365   0.90528   0.39987   0.00000  Uiso   1.00
H34    H     0.13211   0.00796   0.21108   0.00000  Uiso   1.00
H35    H     0.30686   0.31191   0.45179   0.00000  Uiso   1.00
H36    H     0.52509   0.78018   0.46375   0.00000  Uiso   1.00
H37    H     0.03685   0.99670   0.06565   0.00000  Uiso   1.00
O38    O     0.47433   0.42608   0.45627   0.00000  Uiso   1.00
O39    O     0.76063   0.72847   0.47196   0.00000  Uiso   1.00
O40    O     0.12008   0.01254   0.94965   0.00000  Uiso   1.00
N41    N     0.55499   0.33371   0.39068   0.00000  Uiso   1.00
N42    N     0.75903   0.83658   0.40188   0.00000  Uiso   1.00
N43    N     0.30258   0.03899   0.02968   0.00000  Uiso   1.00
N44    N     0.38058   0.30561   0.42775   0.00000  Uiso   1.00
N45    N     0.58462   0.80848   0.43895   0.00000  Uiso   1.00
N46    N     0.12817   0.01089   0.06675   0.00000  Uiso   1.00
C47    C     0.44581   0.57227   0.22919   0.00000  Uiso   1.00
C48    C     0.48822   0.63746   0.18711   0.00000  Uiso   1.00
C49    C     0.42672   0.70792   0.17236   0.00000  Uiso   1.00
C50    C     0.48063   0.75986   0.13305   0.00000  Uiso   1.00
C51    C     0.52950   0.86380   0.07127   0.00000  Uiso   1.00
C52    C     0.43198   0.50046   0.18401   0.00000  Uiso   1.00
C53    C     0.32319   0.45572   0.16667   0.00000  Uiso   1.00
C54    C     0.32977   0.39232   0.12476   0.00000  Uiso   1.00
C55    C     0.29135   0.28352   0.05821   0.00000  Uiso   1.00
C56    C     0.55778   0.55625   0.28658   0.00000  Uiso   1.00
C57    C     0.55476   0.55841   0.35549   0.00000  Uiso   1.00
C58    C     0.66724   0.54197   0.39994   0.00000  Uiso   1.00
C59    C     0.82415   0.51980   0.49266   0.00000  Uiso   1.00
C60    C     0.65092   0.53922   0.18560   0.00000  Uiso   1.00
C61    C     0.59963   0.61951   0.16343   0.00000  Uiso   1.00
C62    C     0.65365   0.67136   0.12413   0.00000  Uiso   1.00
C63    C     0.59224   0.74188   0.10933   0.00000  Uiso   1.00
C64    C     0.54338   0.48250   0.16033   0.00000  Uiso   1.00
C65    C     0.55012   0.41915   0.11844   0.00000  Uiso   1.00
C66    C     0.44137   0.37433   0.10104   0.00000  Uiso   1.00
C67    C     0.66919   0.53830   0.26291   0.00000  Uiso   1.00
C68    C     0.78169   0.52185   0.30726   0.00000  Uiso   1.00
C69    C     0.77885   0.52398   0.37622   0.00000  Uiso   1.00
H70    H     0.35908   0.58625   0.24763   0.00000  Uiso   1.00
H71    H     0.34050   0.72179   0.19069   0.00000  Uiso   1.00
H72    H     0.23700   0.46962   0.18501   0.00000  Uiso   1.00
H73    H     0.46853   0.57230   0.37380   0.00000  Uiso   1.00
H74    H     0.36901   0.86414   0.11710   0.00000  Uiso   1.00
H75    H     0.15078   0.33241   0.10514   0.00000  Uiso   1.00
H76    H     0.63902   0.54893   0.50324   0.00000  Uiso   1.00
H77    H     0.73766   0.52525   0.16716   0.00000  Uiso   1.00
H78    H     0.73986   0.65745   0.10581   0.00000  Uiso   1.00
H79    H     0.63635   0.40528   0.10013   0.00000  Uiso   1.00
H80    H     0.86789   0.50796   0.28892   0.00000  Uiso   1.00
H81    H     0.69314   0.81191   0.04821   0.00000  Uiso   1.00
H82    H     0.47491   0.28018   0.03625   0.00000  Uiso   1.00
H83    H     0.96315   0.49670   0.43435   0.00000  Uiso   1.00
O84    O     0.52567   0.92608   0.04373   0.00000  Uiso   1.00
O85    O     0.23937   0.22847   0.02804   0.00000  Uiso   1.00
O86    O     0.87992   0.51254   0.55035   0.00000  Uiso   1.00
N87    N     0.44501   0.83371   0.10932   0.00000  Uiso   1.00
N88    N     0.24097   0.33658   0.09812   0.00000  Uiso   1.00
N89    N     0.69742   0.53899   0.47032   0.00000  Uiso   1.00
N90    N     0.61942   0.80561   0.07225   0.00000  Uiso   1.00
N91    N     0.41538   0.30848   0.06105   0.00000  Uiso   1.00
N92    N     0.87183   0.51089   0.43325   0.00000  Uiso   1.00
C93    C     0.44581   0.92773   0.72919   0.00000  Uiso   1.00
C94    C     0.48822   0.86254   0.68711   0.00000  Uiso   1.00
C95    C     0.42672   0.79208   0.67236   0.00000  Uiso   1.00
C96    C     0.48063   0.74014   0.63305   0.00000  Uiso   1.00
C97    C     0.52950   0.63620   0.57127   0.00000  Uiso   1.00
C98    C     0.43198   0.99954   0.68401   0.00000  Uiso   1.00
C99    C     0.32319   0.04428   0.66667   0.00000  Uiso   1.00
C100   C     0.32977   0.10768   0.62476   0.00000  Uiso   1.00
C101   C     0.29135   0.21648   0.55821   0.00000  Uiso   1.00
C102   C     0.55778   0.94375   0.78658   0.00000  Uiso   1.00
C103   C     0.55476   0.94159   0.85549   0.00000  Uiso   1.00
C104   C     0.66724   0.95803   0.89994   0.00000  Uiso   1.00
C105   C     0.82415   0.98020   0.99266   0.00000  Uiso   1.00
C106   C     0.65092   0.96078   0.68560   0.00000  Uiso   1.00
C107   C     0.59963   0.88049   0.66343   0.00000  Uiso   1.00
C108   C     0.65365   0.82864   0.62413   0.00000  Uiso   1.00
C109   C     0.59224   0.75812   0.60933   0.00000  Uiso   1.00
C110   C     0.54338   0.01750   0.66033   0.00000  Uiso   1.00
C111   C     0.55012   0.08085   0.61844   0.00000  Uiso   1.00
C112   C     0.44137   0.12567   0.60104   0.00000  Uiso   1.00
C113   C     0.66919   0.96170   0.76291   0.00000  Uiso   1.00
C114   C     0.78169   0.97815   0.80726   0.00000  Uiso   1.00
C115   C     0.77885   0.97602   0.87622   0.00000  Uiso   1.00
H116   H     0.35908   0.91375   0.74763   0.00000  Uiso   1.00
H117   H     0.34050   0.77821   0.69069   0.00000  Uiso   1.00
H118   H     0.23700   0.03038   0.68501   0.00000  Uiso   1.00
H119   H     0.46853   0.92770   0.87380   0.00000  Uiso   1.00
H120   H     0.36901   0.63586   0.61710   0.00000  Uiso   1.00
H121   H     0.15078   0.16759   0.60514   0.00000  Uiso   1.00
H122   H     0.63902   0.95107   0.00324   0.00000  Uiso   1.00
H123   H     0.73766   0.97475   0.66716   0.00000  Uiso   1.00
H124   H     0.73986   0.84255   0.60581   0.00000  Uiso   1.00
H125   H     0.63635   0.09472   0.60013   0.00000  Uiso   1.00
H126   H     0.86789   0.99204   0.78892   0.00000  Uiso   1.00
H127   H     0.69314   0.68809   0.54821   0.00000  Uiso   1.00
H128   H     0.47491   0.21982   0.53625   0.00000  Uiso   1.00
H129   H     0.96315   0.00330   0.93435   0.00000  Uiso   1.00
O130   O     0.52567   0.57392   0.54373   0.00000  Uiso   1.00
O131   O     0.23937   0.27153   0.52804   0.00000  Uiso   1.00
O132   O     0.87992   0.98746   0.05035   0.00000  Uiso   1.00
N133   N     0.44501   0.66629   0.60932   0.00000  Uiso   1.00
N134   N     0.24097   0.16342   0.59812   0.00000  Uiso   1.00
N135   N     0.69742   0.96101   0.97032   0.00000  Uiso   1.00
N136   N     0.61942   0.69439   0.57225   0.00000  Uiso   1.00
N137   N     0.41538   0.19152   0.56105   0.00000  Uiso   1.00
N138   N     0.87183   0.98911   0.93325   0.00000  Uiso   1.00
C139   C     0.55419   0.42773   0.77081   0.00000  Uiso   1.00
C140   C     0.51178   0.36254   0.81289   0.00000  Uiso   1.00
C141   C     0.57328   0.29208   0.82764   0.00000  Uiso   1.00
C142   C     0.51937   0.24014   0.86695   0.00000  Uiso   1.00
C143   C     0.47050   0.13620   0.92873   0.00000  Uiso   1.00
C144   C     0.56802   0.49954   0.81599   0.00000  Uiso   1.00
C145   C     0.67681   0.54428   0.83333   0.00000  Uiso   1.00
C146   C     0.67023   0.60768   0.87524   0.00000  Uiso   1.00
C147   C     0.70865   0.71648   0.94179   0.00000  Uiso   1.00
C148   C     0.44222   0.44375   0.71342   0.00000  Uiso   1.00
C149   C     0.44524   0.44159   0.64451   0.00000  Uiso   1.00
C150   C     0.33276   0.45803   0.60006   0.00000  Uiso   1.00
C151   C     0.17585   0.48020   0.50734   0.00000  Uiso   1.00
C152   C     0.34908   0.46078   0.81440   0.00000  Uiso   1.00
C153   C     0.40037   0.38049   0.83657   0.00000  Uiso   1.00
C154   C     0.34635   0.32864   0.87587   0.00000  Uiso   1.00
C155   C     0.40776   0.25812   0.89067   0.00000  Uiso   1.00
C156   C     0.45662   0.51750   0.83967   0.00000  Uiso   1.00
C157   C     0.44988   0.58085   0.88156   0.00000  Uiso   1.00
C158   C     0.55863   0.62567   0.89896   0.00000  Uiso   1.00
C159   C     0.33081   0.46170   0.73709   0.00000  Uiso   1.00
C160   C     0.21831   0.47815   0.69274   0.00000  Uiso   1.00
C161   C     0.22115   0.47602   0.62378   0.00000  Uiso   1.00
H162   H     0.64092   0.41375   0.75237   0.00000  Uiso   1.00
H163   H     0.65950   0.27821   0.80931   0.00000  Uiso   1.00
H164   H     0.76300   0.53038   0.81499   0.00000  Uiso   1.00
H165   H     0.53147   0.42770   0.62620   0.00000  Uiso   1.00
H166   H     0.63099   0.13586   0.88290   0.00000  Uiso   1.00
H167   H     0.84922   0.66759   0.89486   0.00000  Uiso   1.00
H168   H     0.36098   0.45107   0.49676   0.00000  Uiso   1.00
H169   H     0.26234   0.47475   0.83284   0.00000  Uiso   1.00
H170   H     0.26014   0.34255   0.89419   0.00000  Uiso   1.00
H171   H     0.36365   0.59472   0.89987   0.00000  Uiso   1.00
H172   H     0.13211   0.49204   0.71108   0.00000  Uiso   1.00
H173   H     0.30686   0.18809   0.95179   0.00000  Uiso   1.00
H174   H     0.52509   0.71982   0.96375   0.00000  Uiso   1.00
H175   H     0.03685   0.50330   0.56565   0.00000  Uiso   1.00
O176   O     0.47433   0.07392   0.95627   0.00000  Uiso   1.00
O177   O     0.76063   0.77153   0.97196   0.00000  Uiso   1.00
O178   O     0.12008   0.48746   0.44965   0.00000  Uiso   1.00
N179   N     0.55499   0.16629   0.89068   0.00000  Uiso   1.00
N180   N     0.75903   0.66342   0.90188   0.00000  Uiso   1.00
N181   N     0.30258   0.46101   0.52968   0.00000  Uiso   1.00
N182   N     0.38058   0.19439   0.92775   0.00000  Uiso   1.00
N183   N     0.58462   0.69152   0.93895   0.00000  Uiso   1.00
N184   N     0.12817   0.48911   0.56675   0.00000  Uiso   1.00
