data_job_03975
_audit_creation_date              2018-12-19
_audit_creation_method            'Materials Studio'
_symmetry_space_group_name_H-M    'P1'
_symmetry_Int_Tables_number       1
_symmetry_cell_setting            triclinic
loop_
_symmetry_equiv_pos_as_xyz
  x,y,z
_cell_length_a                    31.8415
_cell_length_b                    10.6675
_cell_length_c                    16.1396
_cell_angle_alpha                 90.0000
_cell_angle_beta                  82.2815
_cell_angle_gamma                 90.0000
loop_
_atom_site_label
_atom_site_type_symbol
_atom_site_fract_x
_atom_site_fract_y
_atom_site_fract_z
_atom_site_U_iso_or_equiv
_atom_site_adp_type
_atom_site_occupancy
C1     C     0.40175   0.41000   0.09741   0.00000  Uiso   1.00
C2     C     0.40277   0.34461   0.01315   0.00000  Uiso   1.00
C3     C     0.43808   0.28964   0.96763   0.00000  Uiso   1.00
C4     C     0.43248   0.23461   0.89193   0.00000  Uiso   1.00
C5     C     0.44008   0.13313   0.76549   0.00000  Uiso   1.00
C6     C     0.38504   0.54185   0.08558   0.00000  Uiso   1.00
C7     C     0.40544   0.65273   0.10098   0.00000  Uiso   1.00
C8     C     0.38491   0.76374   0.08626   0.00000  Uiso   1.00
C9     C     0.36497   0.96849   0.07233   0.00000  Uiso   1.00
C10    C     0.36759   0.34354   0.15685   0.00000  Uiso   1.00
C11    C     0.37333   0.28770   0.23218   0.00000  Uiso   1.00
C12    C     0.33811   0.23178   0.27748   0.00000  Uiso   1.00
C13    C     0.29108   0.12862   0.37421   0.00000  Uiso   1.00
C14    C     0.32900   0.41000   0.04392   0.00000  Uiso   1.00
C15    C     0.36325   0.34461   0.98409   0.00000  Uiso   1.00
C16    C     0.35760   0.28964   0.90844   0.00000  Uiso   1.00
C17    C     0.39290   0.23461   0.86282   0.00000  Uiso   1.00
C18    C     0.34553   0.54186   0.05652   0.00000  Uiso   1.00
C19    C     0.32496   0.65273   0.04179   0.00000  Uiso   1.00
C20    C     0.34533   0.76374   0.05715   0.00000  Uiso   1.00
C21    C     0.32808   0.34354   0.12779   0.00000  Uiso   1.00
C22    C     0.29285   0.28770   0.17299   0.00000  Uiso   1.00
C23    C     0.29852   0.23178   0.24837   0.00000  Uiso   1.00
H24    H     0.43251   0.41000   0.12004   0.00000  Uiso   1.00
H25    H     0.46865   0.28967   0.99014   0.00000  Uiso   1.00
H26    H     0.43601   0.65270   0.12347   0.00000  Uiso   1.00
H27    H     0.40391   0.28772   0.25465   0.00000  Uiso   1.00
H28    H     0.49130   0.15630   0.83329   0.00000  Uiso   1.00
H29    H     0.42248   0.92176   0.11446   0.00000  Uiso   1.00
H30    H     0.35477   0.15215   0.39108   0.00000  Uiso   1.00
H31    H     0.29824   0.41000   0.02130   0.00000  Uiso   1.00
H32    H     0.32702   0.28966   0.88597   0.00000  Uiso   1.00
H33    H     0.29438   0.65269   0.01931   0.00000  Uiso   1.00
H34    H     0.26227   0.28772   0.15049   0.00000  Uiso   1.00
H35    H     0.37635   0.15630   0.74875   0.00000  Uiso   1.00
H36    H     0.30752   0.92176   0.02992   0.00000  Uiso   1.00
H37    H     0.23982   0.15214   0.30653   0.00000  Uiso   1.00
O38    O     0.45518   0.07717   0.70377   0.00000  Uiso   1.00
O39    O     0.36488   0.08142   0.07267   0.00000  Uiso   1.00
O40    O     0.27606   0.07170   0.43558   0.00000  Uiso   1.00
N41    N     0.46030   0.17279   0.83197   0.00000  Uiso   1.00
N42    N     0.39595   0.88845   0.09483   0.00000  Uiso   1.00
N43    N     0.33265   0.16896   0.35346   0.00000  Uiso   1.00
N44    N     0.39844   0.17279   0.78648   0.00000  Uiso   1.00
N45    N     0.33410   0.88845   0.04934   0.00000  Uiso   1.00
N46    N     0.27080   0.16895   0.30797   0.00000  Uiso   1.00
C47    C     0.90175   0.91000   0.09741   0.00000  Uiso   1.00
C48    C     0.90277   0.84461   0.01315   0.00000  Uiso   1.00
C49    C     0.93808   0.78964   0.96763   0.00000  Uiso   1.00
C50    C     0.93248   0.73461   0.89193   0.00000  Uiso   1.00
C51    C     0.94008   0.63313   0.76549   0.00000  Uiso   1.00
C52    C     0.88504   0.04185   0.08558   0.00000  Uiso   1.00
C53    C     0.90544   0.15273   0.10098   0.00000  Uiso   1.00
C54    C     0.88491   0.26374   0.08626   0.00000  Uiso   1.00
C55    C     0.86497   0.46849   0.07233   0.00000  Uiso   1.00
C56    C     0.86759   0.84354   0.15685   0.00000  Uiso   1.00
C57    C     0.87333   0.78770   0.23218   0.00000  Uiso   1.00
C58    C     0.83811   0.73178   0.27748   0.00000  Uiso   1.00
C59    C     0.79108   0.62862   0.37421   0.00000  Uiso   1.00
C60    C     0.82900   0.91000   0.04392   0.00000  Uiso   1.00
C61    C     0.86325   0.84461   0.98409   0.00000  Uiso   1.00
C62    C     0.85760   0.78964   0.90844   0.00000  Uiso   1.00
C63    C     0.89290   0.73461   0.86282   0.00000  Uiso   1.00
C64    C     0.84553   0.04186   0.05652   0.00000  Uiso   1.00
C65    C     0.82496   0.15273   0.04179   0.00000  Uiso   1.00
C66    C     0.84533   0.26374   0.05715   0.00000  Uiso   1.00
C67    C     0.82808   0.84354   0.12779   0.00000  Uiso   1.00
C68    C     0.79285   0.78770   0.17299   0.00000  Uiso   1.00
C69    C     0.79852   0.73178   0.24837   0.00000  Uiso   1.00
H70    H     0.93251   0.91000   0.12004   0.00000  Uiso   1.00
H71    H     0.96865   0.78967   0.99014   0.00000  Uiso   1.00
H72    H     0.93601   0.15270   0.12347   0.00000  Uiso   1.00
H73    H     0.90391   0.78772   0.25465   0.00000  Uiso   1.00
H74    H     0.99130   0.65630   0.83329   0.00000  Uiso   1.00
H75    H     0.92248   0.42176   0.11446   0.00000  Uiso   1.00
H76    H     0.85477   0.65215   0.39108   0.00000  Uiso   1.00
H77    H     0.79824   0.91000   0.02130   0.00000  Uiso   1.00
H78    H     0.82702   0.78966   0.88597   0.00000  Uiso   1.00
H79    H     0.79438   0.15269   0.01931   0.00000  Uiso   1.00
H80    H     0.76227   0.78772   0.15049   0.00000  Uiso   1.00
H81    H     0.87635   0.65630   0.74875   0.00000  Uiso   1.00
H82    H     0.80752   0.42176   0.02992   0.00000  Uiso   1.00
H83    H     0.73982   0.65214   0.30653   0.00000  Uiso   1.00
O84    O     0.95518   0.57717   0.70377   0.00000  Uiso   1.00
O85    O     0.86488   0.58142   0.07267   0.00000  Uiso   1.00
O86    O     0.77606   0.57170   0.43558   0.00000  Uiso   1.00
N87    N     0.96030   0.67279   0.83197   0.00000  Uiso   1.00
N88    N     0.89595   0.38845   0.09483   0.00000  Uiso   1.00
N89    N     0.83265   0.66896   0.35346   0.00000  Uiso   1.00
N90    N     0.89844   0.67279   0.78648   0.00000  Uiso   1.00
N91    N     0.83410   0.38845   0.04934   0.00000  Uiso   1.00
N92    N     0.77080   0.66895   0.30797   0.00000  Uiso   1.00
C93    C     0.59825   0.41000   0.40259   0.00000  Uiso   1.00
C94    C     0.59723   0.34461   0.48685   0.00000  Uiso   1.00
C95    C     0.56192   0.28964   0.53237   0.00000  Uiso   1.00
C96    C     0.56752   0.23461   0.60807   0.00000  Uiso   1.00
C97    C     0.55992   0.13313   0.73451   0.00000  Uiso   1.00
C98    C     0.61496   0.54185   0.41442   0.00000  Uiso   1.00
C99    C     0.59456   0.65273   0.39902   0.00000  Uiso   1.00
C100   C     0.61509   0.76374   0.41374   0.00000  Uiso   1.00
C101   C     0.63503   0.96849   0.42767   0.00000  Uiso   1.00
C102   C     0.63241   0.34354   0.34315   0.00000  Uiso   1.00
C103   C     0.62667   0.28770   0.26782   0.00000  Uiso   1.00
C104   C     0.66189   0.23178   0.22252   0.00000  Uiso   1.00
C105   C     0.70892   0.12862   0.12579   0.00000  Uiso   1.00
C106   C     0.67100   0.41000   0.45608   0.00000  Uiso   1.00
C107   C     0.63675   0.34461   0.51591   0.00000  Uiso   1.00
C108   C     0.64240   0.28964   0.59156   0.00000  Uiso   1.00
C109   C     0.60710   0.23461   0.63718   0.00000  Uiso   1.00
C110   C     0.65447   0.54186   0.44348   0.00000  Uiso   1.00
C111   C     0.67504   0.65273   0.45821   0.00000  Uiso   1.00
C112   C     0.65467   0.76374   0.44285   0.00000  Uiso   1.00
C113   C     0.67192   0.34354   0.37221   0.00000  Uiso   1.00
C114   C     0.70715   0.28770   0.32701   0.00000  Uiso   1.00
C115   C     0.70148   0.23178   0.25163   0.00000  Uiso   1.00
H116   H     0.56749   0.41000   0.37996   0.00000  Uiso   1.00
H117   H     0.53135   0.28967   0.50986   0.00000  Uiso   1.00
H118   H     0.56399   0.65270   0.37653   0.00000  Uiso   1.00
H119   H     0.59609   0.28772   0.24535   0.00000  Uiso   1.00
H120   H     0.50870   0.15630   0.66671   0.00000  Uiso   1.00
H121   H     0.57752   0.92176   0.38554   0.00000  Uiso   1.00
H122   H     0.64523   0.15215   0.10892   0.00000  Uiso   1.00
H123   H     0.70176   0.41000   0.47870   0.00000  Uiso   1.00
H124   H     0.67298   0.28966   0.61403   0.00000  Uiso   1.00
H125   H     0.70562   0.65269   0.48069   0.00000  Uiso   1.00
H126   H     0.73773   0.28772   0.34951   0.00000  Uiso   1.00
H127   H     0.62365   0.15630   0.75125   0.00000  Uiso   1.00
H128   H     0.69248   0.92176   0.47008   0.00000  Uiso   1.00
H129   H     0.76018   0.15214   0.19347   0.00000  Uiso   1.00
O130   O     0.54482   0.07717   0.79623   0.00000  Uiso   1.00
O131   O     0.63512   0.08142   0.42733   0.00000  Uiso   1.00
O132   O     0.72394   0.07170   0.06442   0.00000  Uiso   1.00
N133   N     0.53970   0.17279   0.66803   0.00000  Uiso   1.00
N134   N     0.60405   0.88845   0.40517   0.00000  Uiso   1.00
N135   N     0.66735   0.16896   0.14654   0.00000  Uiso   1.00
N136   N     0.60156   0.17279   0.71352   0.00000  Uiso   1.00
N137   N     0.66590   0.88845   0.45066   0.00000  Uiso   1.00
N138   N     0.72920   0.16895   0.19203   0.00000  Uiso   1.00
C139   C     0.09825   0.91000   0.40259   0.00000  Uiso   1.00
C140   C     0.09723   0.84461   0.48685   0.00000  Uiso   1.00
C141   C     0.06192   0.78964   0.53237   0.00000  Uiso   1.00
C142   C     0.06752   0.73461   0.60807   0.00000  Uiso   1.00
C143   C     0.05992   0.63313   0.73451   0.00000  Uiso   1.00
C144   C     0.11496   0.04185   0.41442   0.00000  Uiso   1.00
C145   C     0.09456   0.15273   0.39902   0.00000  Uiso   1.00
C146   C     0.11509   0.26374   0.41374   0.00000  Uiso   1.00
C147   C     0.13503   0.46849   0.42767   0.00000  Uiso   1.00
C148   C     0.13241   0.84354   0.34315   0.00000  Uiso   1.00
C149   C     0.12667   0.78770   0.26782   0.00000  Uiso   1.00
C150   C     0.16189   0.73178   0.22252   0.00000  Uiso   1.00
C151   C     0.20892   0.62862   0.12579   0.00000  Uiso   1.00
C152   C     0.17100   0.91000   0.45608   0.00000  Uiso   1.00
C153   C     0.13675   0.84461   0.51591   0.00000  Uiso   1.00
C154   C     0.14240   0.78964   0.59156   0.00000  Uiso   1.00
C155   C     0.10710   0.73461   0.63718   0.00000  Uiso   1.00
C156   C     0.15447   0.04186   0.44348   0.00000  Uiso   1.00
C157   C     0.17504   0.15273   0.45821   0.00000  Uiso   1.00
C158   C     0.15467   0.26374   0.44285   0.00000  Uiso   1.00
C159   C     0.17192   0.84354   0.37221   0.00000  Uiso   1.00
C160   C     0.20715   0.78770   0.32701   0.00000  Uiso   1.00
C161   C     0.20148   0.73178   0.25163   0.00000  Uiso   1.00
H162   H     0.06749   0.91000   0.37996   0.00000  Uiso   1.00
H163   H     0.03135   0.78967   0.50986   0.00000  Uiso   1.00
H164   H     0.06399   0.15270   0.37653   0.00000  Uiso   1.00
H165   H     0.09609   0.78772   0.24535   0.00000  Uiso   1.00
H166   H     0.00870   0.65630   0.66671   0.00000  Uiso   1.00
H167   H     0.07752   0.42176   0.38554   0.00000  Uiso   1.00
H168   H     0.14523   0.65215   0.10892   0.00000  Uiso   1.00
H169   H     0.20176   0.91000   0.47870   0.00000  Uiso   1.00
H170   H     0.17298   0.78966   0.61403   0.00000  Uiso   1.00
H171   H     0.20562   0.15269   0.48069   0.00000  Uiso   1.00
H172   H     0.23773   0.78772   0.34951   0.00000  Uiso   1.00
H173   H     0.12365   0.65630   0.75125   0.00000  Uiso   1.00
H174   H     0.19248   0.42176   0.47008   0.00000  Uiso   1.00
H175   H     0.26018   0.65214   0.19347   0.00000  Uiso   1.00
O176   O     0.04482   0.57717   0.79623   0.00000  Uiso   1.00
O177   O     0.13512   0.58142   0.42733   0.00000  Uiso   1.00
O178   O     0.22394   0.57170   0.06442   0.00000  Uiso   1.00
N179   N     0.03970   0.67279   0.66803   0.00000  Uiso   1.00
N180   N     0.10405   0.38845   0.40517   0.00000  Uiso   1.00
N181   N     0.16735   0.66896   0.14654   0.00000  Uiso   1.00
N182   N     0.10156   0.67279   0.71352   0.00000  Uiso   1.00
N183   N     0.16590   0.38845   0.45066   0.00000  Uiso   1.00
N184   N     0.22920   0.66895   0.19203   0.00000  Uiso   1.00
C185   C     0.59825   0.59000   0.90259   0.00000  Uiso   1.00
C186   C     0.59723   0.65539   0.98685   0.00000  Uiso   1.00
C187   C     0.56192   0.71036   0.03237   0.00000  Uiso   1.00
C188   C     0.56752   0.76539   0.10807   0.00000  Uiso   1.00
C189   C     0.55992   0.86687   0.23451   0.00000  Uiso   1.00
C190   C     0.61496   0.45815   0.91442   0.00000  Uiso   1.00
C191   C     0.59456   0.34727   0.89902   0.00000  Uiso   1.00
C192   C     0.61509   0.23626   0.91374   0.00000  Uiso   1.00
C193   C     0.63503   0.03151   0.92767   0.00000  Uiso   1.00
C194   C     0.63241   0.65646   0.84315   0.00000  Uiso   1.00
C195   C     0.62667   0.71230   0.76782   0.00000  Uiso   1.00
C196   C     0.66189   0.76822   0.72252   0.00000  Uiso   1.00
C197   C     0.70892   0.87138   0.62579   0.00000  Uiso   1.00
C198   C     0.67100   0.59000   0.95608   0.00000  Uiso   1.00
C199   C     0.63675   0.65539   0.01591   0.00000  Uiso   1.00
C200   C     0.64240   0.71036   0.09156   0.00000  Uiso   1.00
C201   C     0.60710   0.76539   0.13718   0.00000  Uiso   1.00
C202   C     0.65447   0.45814   0.94348   0.00000  Uiso   1.00
C203   C     0.67504   0.34727   0.95821   0.00000  Uiso   1.00
C204   C     0.65467   0.23626   0.94285   0.00000  Uiso   1.00
C205   C     0.67192   0.65646   0.87221   0.00000  Uiso   1.00
C206   C     0.70715   0.71230   0.82701   0.00000  Uiso   1.00
C207   C     0.70148   0.76822   0.75163   0.00000  Uiso   1.00
H208   H     0.56749   0.59000   0.87996   0.00000  Uiso   1.00
H209   H     0.53135   0.71033   0.00986   0.00000  Uiso   1.00
H210   H     0.56399   0.34730   0.87653   0.00000  Uiso   1.00
H211   H     0.59609   0.71228   0.74535   0.00000  Uiso   1.00
H212   H     0.50870   0.84370   0.16671   0.00000  Uiso   1.00
H213   H     0.57752   0.07824   0.88554   0.00000  Uiso   1.00
H214   H     0.64523   0.84785   0.60892   0.00000  Uiso   1.00
H215   H     0.70176   0.59000   0.97870   0.00000  Uiso   1.00
H216   H     0.67298   0.71034   0.11403   0.00000  Uiso   1.00
H217   H     0.70562   0.34731   0.98069   0.00000  Uiso   1.00
H218   H     0.73773   0.71228   0.84951   0.00000  Uiso   1.00
H219   H     0.62365   0.84370   0.25125   0.00000  Uiso   1.00
H220   H     0.69248   0.07824   0.97008   0.00000  Uiso   1.00
H221   H     0.76018   0.84786   0.69347   0.00000  Uiso   1.00
O222   O     0.54482   0.92283   0.29623   0.00000  Uiso   1.00
O223   O     0.63512   0.91858   0.92733   0.00000  Uiso   1.00
O224   O     0.72394   0.92830   0.56442   0.00000  Uiso   1.00
N225   N     0.53970   0.82721   0.16803   0.00000  Uiso   1.00
N226   N     0.60405   0.11155   0.90517   0.00000  Uiso   1.00
N227   N     0.66735   0.83104   0.64654   0.00000  Uiso   1.00
N228   N     0.60156   0.82721   0.21352   0.00000  Uiso   1.00
N229   N     0.66590   0.11155   0.95066   0.00000  Uiso   1.00
N230   N     0.72920   0.83105   0.69203   0.00000  Uiso   1.00
C231   C     0.09825   0.09000   0.90259   0.00000  Uiso   1.00
C232   C     0.09723   0.15539   0.98685   0.00000  Uiso   1.00
C233   C     0.06192   0.21036   0.03237   0.00000  Uiso   1.00
C234   C     0.06752   0.26539   0.10807   0.00000  Uiso   1.00
C235   C     0.05992   0.36687   0.23451   0.00000  Uiso   1.00
C236   C     0.11496   0.95815   0.91442   0.00000  Uiso   1.00
C237   C     0.09456   0.84727   0.89902   0.00000  Uiso   1.00
C238   C     0.11509   0.73626   0.91374   0.00000  Uiso   1.00
C239   C     0.13503   0.53151   0.92767   0.00000  Uiso   1.00
C240   C     0.13241   0.15646   0.84315   0.00000  Uiso   1.00
C241   C     0.12667   0.21230   0.76782   0.00000  Uiso   1.00
C242   C     0.16189   0.26822   0.72252   0.00000  Uiso   1.00
C243   C     0.20892   0.37138   0.62579   0.00000  Uiso   1.00
C244   C     0.17100   0.09000   0.95608   0.00000  Uiso   1.00
C245   C     0.13675   0.15539   0.01591   0.00000  Uiso   1.00
C246   C     0.14240   0.21036   0.09156   0.00000  Uiso   1.00
C247   C     0.10710   0.26539   0.13718   0.00000  Uiso   1.00
C248   C     0.15447   0.95814   0.94348   0.00000  Uiso   1.00
C249   C     0.17504   0.84727   0.95821   0.00000  Uiso   1.00
C250   C     0.15467   0.73626   0.94285   0.00000  Uiso   1.00
C251   C     0.17192   0.15646   0.87221   0.00000  Uiso   1.00
C252   C     0.20715   0.21230   0.82701   0.00000  Uiso   1.00
C253   C     0.20148   0.26822   0.75163   0.00000  Uiso   1.00
H254   H     0.06749   0.09000   0.87996   0.00000  Uiso   1.00
H255   H     0.03135   0.21033   0.00986   0.00000  Uiso   1.00
H256   H     0.06399   0.84730   0.87653   0.00000  Uiso   1.00
H257   H     0.09609   0.21228   0.74535   0.00000  Uiso   1.00
H258   H     0.00870   0.34370   0.16671   0.00000  Uiso   1.00
H259   H     0.07752   0.57824   0.88554   0.00000  Uiso   1.00
H260   H     0.14523   0.34785   0.60892   0.00000  Uiso   1.00
H261   H     0.20176   0.09000   0.97870   0.00000  Uiso   1.00
H262   H     0.17298   0.21034   0.11403   0.00000  Uiso   1.00
H263   H     0.20562   0.84731   0.98069   0.00000  Uiso   1.00
H264   H     0.23773   0.21228   0.84951   0.00000  Uiso   1.00
H265   H     0.12365   0.34370   0.25125   0.00000  Uiso   1.00
H266   H     0.19248   0.57824   0.97008   0.00000  Uiso   1.00
H267   H     0.26018   0.34786   0.69347   0.00000  Uiso   1.00
O268   O     0.04482   0.42283   0.29623   0.00000  Uiso   1.00
O269   O     0.13512   0.41858   0.92733   0.00000  Uiso   1.00
O270   O     0.22394   0.42830   0.56442   0.00000  Uiso   1.00
N271   N     0.03970   0.32721   0.16803   0.00000  Uiso   1.00
N272   N     0.10405   0.61155   0.90517   0.00000  Uiso   1.00
N273   N     0.16735   0.33104   0.64654   0.00000  Uiso   1.00
N274   N     0.10156   0.32721   0.21352   0.00000  Uiso   1.00
N275   N     0.16590   0.61155   0.95066   0.00000  Uiso   1.00
N276   N     0.22920   0.33105   0.69203   0.00000  Uiso   1.00
C277   C     0.40175   0.59000   0.59741   0.00000  Uiso   1.00
C278   C     0.40277   0.65539   0.51315   0.00000  Uiso   1.00
C279   C     0.43808   0.71036   0.46763   0.00000  Uiso   1.00
C280   C     0.43248   0.76539   0.39193   0.00000  Uiso   1.00
C281   C     0.44008   0.86687   0.26549   0.00000  Uiso   1.00
C282   C     0.38504   0.45815   0.58558   0.00000  Uiso   1.00
C283   C     0.40544   0.34727   0.60098   0.00000  Uiso   1.00
C284   C     0.38491   0.23626   0.58626   0.00000  Uiso   1.00
C285   C     0.36497   0.03151   0.57233   0.00000  Uiso   1.00
C286   C     0.36759   0.65646   0.65685   0.00000  Uiso   1.00
C287   C     0.37333   0.71230   0.73218   0.00000  Uiso   1.00
C288   C     0.33811   0.76822   0.77748   0.00000  Uiso   1.00
C289   C     0.29108   0.87138   0.87421   0.00000  Uiso   1.00
C290   C     0.32900   0.59000   0.54392   0.00000  Uiso   1.00
C291   C     0.36325   0.65539   0.48409   0.00000  Uiso   1.00
C292   C     0.35760   0.71036   0.40844   0.00000  Uiso   1.00
C293   C     0.39290   0.76539   0.36282   0.00000  Uiso   1.00
C294   C     0.34553   0.45814   0.55652   0.00000  Uiso   1.00
C295   C     0.32496   0.34727   0.54179   0.00000  Uiso   1.00
C296   C     0.34533   0.23626   0.55715   0.00000  Uiso   1.00
C297   C     0.32808   0.65646   0.62779   0.00000  Uiso   1.00
C298   C     0.29285   0.71230   0.67299   0.00000  Uiso   1.00
C299   C     0.29852   0.76822   0.74837   0.00000  Uiso   1.00
H300   H     0.43251   0.59000   0.62004   0.00000  Uiso   1.00
H301   H     0.46865   0.71033   0.49014   0.00000  Uiso   1.00
H302   H     0.43601   0.34730   0.62347   0.00000  Uiso   1.00
H303   H     0.40391   0.71228   0.75465   0.00000  Uiso   1.00
H304   H     0.49130   0.84370   0.33329   0.00000  Uiso   1.00
H305   H     0.42248   0.07824   0.61446   0.00000  Uiso   1.00
H306   H     0.35477   0.84785   0.89108   0.00000  Uiso   1.00
H307   H     0.29824   0.59000   0.52130   0.00000  Uiso   1.00
H308   H     0.32702   0.71034   0.38597   0.00000  Uiso   1.00
H309   H     0.29438   0.34731   0.51931   0.00000  Uiso   1.00
H310   H     0.26227   0.71228   0.65049   0.00000  Uiso   1.00
H311   H     0.37635   0.84370   0.24875   0.00000  Uiso   1.00
H312   H     0.30752   0.07824   0.52992   0.00000  Uiso   1.00
H313   H     0.23982   0.84786   0.80653   0.00000  Uiso   1.00
O314   O     0.45518   0.92283   0.20377   0.00000  Uiso   1.00
O315   O     0.36488   0.91858   0.57267   0.00000  Uiso   1.00
O316   O     0.27606   0.92830   0.93558   0.00000  Uiso   1.00
N317   N     0.46030   0.82721   0.33197   0.00000  Uiso   1.00
N318   N     0.39595   0.11155   0.59483   0.00000  Uiso   1.00
N319   N     0.33265   0.83104   0.85346   0.00000  Uiso   1.00
N320   N     0.39844   0.82721   0.28648   0.00000  Uiso   1.00
N321   N     0.33410   0.11155   0.54934   0.00000  Uiso   1.00
N322   N     0.27080   0.83105   0.80797   0.00000  Uiso   1.00
C323   C     0.90175   0.09000   0.59741   0.00000  Uiso   1.00
C324   C     0.90277   0.15539   0.51315   0.00000  Uiso   1.00
C325   C     0.93808   0.21036   0.46763   0.00000  Uiso   1.00
C326   C     0.93248   0.26539   0.39193   0.00000  Uiso   1.00
C327   C     0.94008   0.36687   0.26549   0.00000  Uiso   1.00
C328   C     0.88504   0.95815   0.58558   0.00000  Uiso   1.00
C329   C     0.90544   0.84727   0.60098   0.00000  Uiso   1.00
C330   C     0.88491   0.73626   0.58626   0.00000  Uiso   1.00
C331   C     0.86497   0.53151   0.57233   0.00000  Uiso   1.00
C332   C     0.86759   0.15646   0.65685   0.00000  Uiso   1.00
C333   C     0.87333   0.21230   0.73218   0.00000  Uiso   1.00
C334   C     0.83811   0.26822   0.77748   0.00000  Uiso   1.00
C335   C     0.79108   0.37138   0.87421   0.00000  Uiso   1.00
C336   C     0.82900   0.09000   0.54392   0.00000  Uiso   1.00
C337   C     0.86325   0.15539   0.48409   0.00000  Uiso   1.00
C338   C     0.85760   0.21036   0.40844   0.00000  Uiso   1.00
C339   C     0.89290   0.26539   0.36282   0.00000  Uiso   1.00
C340   C     0.84553   0.95814   0.55652   0.00000  Uiso   1.00
C341   C     0.82496   0.84727   0.54179   0.00000  Uiso   1.00
C342   C     0.84533   0.73626   0.55715   0.00000  Uiso   1.00
C343   C     0.82808   0.15646   0.62779   0.00000  Uiso   1.00
C344   C     0.79285   0.21230   0.67299   0.00000  Uiso   1.00
C345   C     0.79852   0.26822   0.74837   0.00000  Uiso   1.00
H346   H     0.93251   0.09000   0.62004   0.00000  Uiso   1.00
H347   H     0.96865   0.21033   0.49014   0.00000  Uiso   1.00
H348   H     0.93601   0.84730   0.62347   0.00000  Uiso   1.00
H349   H     0.90391   0.21228   0.75465   0.00000  Uiso   1.00
H350   H     0.99130   0.34370   0.33329   0.00000  Uiso   1.00
H351   H     0.92248   0.57824   0.61446   0.00000  Uiso   1.00
H352   H     0.85477   0.34785   0.89108   0.00000  Uiso   1.00
H353   H     0.79824   0.09000   0.52130   0.00000  Uiso   1.00
H354   H     0.82702   0.21034   0.38597   0.00000  Uiso   1.00
H355   H     0.79438   0.84731   0.51931   0.00000  Uiso   1.00
H356   H     0.76227   0.21228   0.65049   0.00000  Uiso   1.00
H357   H     0.87635   0.34370   0.24875   0.00000  Uiso   1.00
H358   H     0.80752   0.57824   0.52992   0.00000  Uiso   1.00
H359   H     0.73982   0.34786   0.80653   0.00000  Uiso   1.00
O360   O     0.95518   0.42283   0.20377   0.00000  Uiso   1.00
O361   O     0.86488   0.41858   0.57267   0.00000  Uiso   1.00
O362   O     0.77606   0.42830   0.93558   0.00000  Uiso   1.00
N363   N     0.96030   0.32721   0.33197   0.00000  Uiso   1.00
N364   N     0.89595   0.61155   0.59483   0.00000  Uiso   1.00
N365   N     0.83265   0.33104   0.85346   0.00000  Uiso   1.00
N366   N     0.89844   0.32721   0.28648   0.00000  Uiso   1.00
N367   N     0.83410   0.61155   0.54934   0.00000  Uiso   1.00
N368   N     0.77080   0.33105   0.80797   0.00000  Uiso   1.00
