data_job_02336
_audit_creation_date              2018-12-19
_audit_creation_method            'Materials Studio'
_symmetry_space_group_name_H-M    'P1'
_symmetry_Int_Tables_number       1
_symmetry_cell_setting            triclinic
loop_
_symmetry_equiv_pos_as_xyz
  x,y,z
_cell_length_a                    17.0040
_cell_length_b                    18.7986
_cell_length_c                    14.8214
_cell_angle_alpha                 90.0000
_cell_angle_beta                  142.5944
_cell_angle_gamma                 90.0000
loop_
_atom_site_label
_atom_site_type_symbol
_atom_site_fract_x
_atom_site_fract_y
_atom_site_fract_z
_atom_site_U_iso_or_equiv
_atom_site_adp_type
_atom_site_occupancy
C1     C     0.29675   0.49076   0.52139   0.00000  Uiso   1.00
C2     C     0.25362   0.56260   0.44495   0.00000  Uiso   1.00
C3     C     0.17088   0.57296   0.29695   0.00000  Uiso   1.00
C4     C     0.14331   0.64282   0.24829   0.00000  Uiso   1.00
C5     C     0.06829   0.74564   0.11501   0.00000  Uiso   1.00
C6     C     0.44433   0.49137   0.65328   0.00000  Uiso   1.00
C7     C     0.52192   0.44182   0.68046   0.00000  Uiso   1.00
C8     C     0.65489   0.45172   0.80720   0.00000  Uiso   1.00
C9     C     0.87595   0.44393   0.99742   0.00000  Uiso   1.00
C10    C     0.25958   0.49071   0.58708   0.00000  Uiso   1.00
C11    C     0.18186   0.44061   0.55864   0.00000  Uiso   1.00
C12    C     0.15930   0.44995   0.62967   0.00000  Uiso   1.00
C13    C     0.09350   0.44114   0.71710   0.00000  Uiso   1.00
C14    C     0.39492   0.59642   0.69816   0.00000  Uiso   1.00
C15    C     0.30695   0.61999   0.54096   0.00000  Uiso   1.00
C16    C     0.27950   0.68986   0.49252   0.00000  Uiso   1.00
C17    C     0.19672   0.70031   0.34447   0.00000  Uiso   1.00
C18    C     0.49765   0.54875   0.74930   0.00000  Uiso   1.00
C19    C     0.63054   0.55873   0.87603   0.00000  Uiso   1.00
C20    C     0.70831   0.50922   0.90339   0.00000  Uiso   1.00
C21    C     0.31290   0.54810   0.68310   0.00000  Uiso   1.00
C22    C     0.29047   0.55752   0.75420   0.00000  Uiso   1.00
C23    C     0.21272   0.50744   0.72586   0.00000  Uiso   1.00
H24    H     0.25524   0.44608   0.44665   0.00000  Uiso   1.00
H25    H     0.12965   0.52853   0.22268   0.00000  Uiso   1.00
H26    H     0.48063   0.39742   0.60615   0.00000  Uiso   1.00
H27    H     0.14061   0.39621   0.48433   0.00000  Uiso   1.00
H28    H     0.01395   0.64525   0.01673   0.00000  Uiso   1.00
H29    H     0.75402   0.36878   0.82531   0.00000  Uiso   1.00
H30    H     0.03703   0.36623   0.56844   0.00000  Uiso   1.00
H31    H     0.43644   0.64110   0.77291   0.00000  Uiso   1.00
H32    H     0.32077   0.73426   0.56685   0.00000  Uiso   1.00
H33    H     0.67177   0.60314   0.95031   0.00000  Uiso   1.00
H34    H     0.33175   0.60193   0.82849   0.00000  Uiso   1.00
H35    H     0.16908   0.81223   0.29607   0.00000  Uiso   1.00
H36    H     0.90916   0.53575   0.10465   0.00000  Uiso   1.00
H37    H     0.19216   0.53321   0.84778   0.00000  Uiso   1.00
O38    O     0.01220   0.78650   0.01497   0.00000  Uiso   1.00
O39    O     0.98314   0.42377   0.07580   0.00000  Uiso   1.00
O40    O     0.04246   0.42043   0.73879   0.00000  Uiso   1.00
N41    N     0.06631   0.67177   0.11075   0.00000  Uiso   1.00
N42    N     0.75824   0.41329   0.86671   0.00000  Uiso   1.00
N43    N     0.08794   0.41089   0.62659   0.00000  Uiso   1.00
N44    N     0.14979   0.76161   0.26106   0.00000  Uiso   1.00
N45    N     0.84171   0.50313   0.01701   0.00000  Uiso   1.00
N46    N     0.17141   0.50074   0.77689   0.00000  Uiso   1.00
C47    C     0.70325   0.99076   0.97861   0.00000  Uiso   1.00
C48    C     0.74638   0.06260   0.05505   0.00000  Uiso   1.00
C49    C     0.82912   0.07296   0.20305   0.00000  Uiso   1.00
C50    C     0.85669   0.14282   0.25171   0.00000  Uiso   1.00
C51    C     0.93171   0.24564   0.38499   0.00000  Uiso   1.00
C52    C     0.55567   0.99137   0.84672   0.00000  Uiso   1.00
C53    C     0.47808   0.94182   0.81954   0.00000  Uiso   1.00
C54    C     0.34511   0.95172   0.69280   0.00000  Uiso   1.00
C55    C     0.12405   0.94393   0.50258   0.00000  Uiso   1.00
C56    C     0.74042   0.99071   0.91292   0.00000  Uiso   1.00
C57    C     0.81814   0.94061   0.94136   0.00000  Uiso   1.00
C58    C     0.84070   0.94995   0.87033   0.00000  Uiso   1.00
C59    C     0.90650   0.94114   0.78290   0.00000  Uiso   1.00
C60    C     0.60508   0.09642   0.80184   0.00000  Uiso   1.00
C61    C     0.69305   0.11999   0.95904   0.00000  Uiso   1.00
C62    C     0.72050   0.18986   0.00748   0.00000  Uiso   1.00
C63    C     0.80328   0.20031   0.15553   0.00000  Uiso   1.00
C64    C     0.50235   0.04875   0.75070   0.00000  Uiso   1.00
C65    C     0.36946   0.05873   0.62397   0.00000  Uiso   1.00
C66    C     0.29169   0.00922   0.59661   0.00000  Uiso   1.00
C67    C     0.68710   0.04810   0.81690   0.00000  Uiso   1.00
C68    C     0.70953   0.05752   0.74580   0.00000  Uiso   1.00
C69    C     0.78728   0.00744   0.77414   0.00000  Uiso   1.00
H70    H     0.74476   0.94608   0.05335   0.00000  Uiso   1.00
H71    H     0.87035   0.02853   0.27732   0.00000  Uiso   1.00
H72    H     0.51937   0.89742   0.89385   0.00000  Uiso   1.00
H73    H     0.85939   0.89621   0.01567   0.00000  Uiso   1.00
H74    H     0.98605   0.14525   0.48327   0.00000  Uiso   1.00
H75    H     0.24598   0.86878   0.67469   0.00000  Uiso   1.00
H76    H     0.96297   0.86623   0.93156   0.00000  Uiso   1.00
H77    H     0.56356   0.14110   0.72709   0.00000  Uiso   1.00
H78    H     0.67923   0.23426   0.93315   0.00000  Uiso   1.00
H79    H     0.32823   0.10314   0.54969   0.00000  Uiso   1.00
H80    H     0.66825   0.10193   0.67151   0.00000  Uiso   1.00
H81    H     0.83092   0.31223   0.20393   0.00000  Uiso   1.00
H82    H     0.09084   0.03575   0.39535   0.00000  Uiso   1.00
H83    H     0.80784   0.03321   0.65222   0.00000  Uiso   1.00
O84    O     0.98780   0.28650   0.48503   0.00000  Uiso   1.00
O85    O     0.01686   0.92377   0.42420   0.00000  Uiso   1.00
O86    O     0.95754   0.92043   0.76121   0.00000  Uiso   1.00
N87    N     0.93369   0.17177   0.38925   0.00000  Uiso   1.00
N88    N     0.24176   0.91329   0.63329   0.00000  Uiso   1.00
N89    N     0.91206   0.91089   0.87341   0.00000  Uiso   1.00
N90    N     0.85021   0.26161   0.23894   0.00000  Uiso   1.00
N91    N     0.15829   0.00313   0.48299   0.00000  Uiso   1.00
N92    N     0.82859   0.00074   0.72311   0.00000  Uiso   1.00
C93    C     0.70325   0.50924   0.47861   0.00000  Uiso   1.00
C94    C     0.74638   0.43740   0.55505   0.00000  Uiso   1.00
C95    C     0.82912   0.42704   0.70305   0.00000  Uiso   1.00
C96    C     0.85669   0.35718   0.75171   0.00000  Uiso   1.00
C97    C     0.93171   0.25436   0.88499   0.00000  Uiso   1.00
C98    C     0.55567   0.50863   0.34672   0.00000  Uiso   1.00
C99    C     0.47808   0.55818   0.31954   0.00000  Uiso   1.00
C100   C     0.34511   0.54828   0.19280   0.00000  Uiso   1.00
C101   C     0.12405   0.55607   0.00258   0.00000  Uiso   1.00
C102   C     0.74042   0.50929   0.41292   0.00000  Uiso   1.00
C103   C     0.81814   0.55939   0.44136   0.00000  Uiso   1.00
C104   C     0.84070   0.55005   0.37033   0.00000  Uiso   1.00
C105   C     0.90650   0.55886   0.28290   0.00000  Uiso   1.00
C106   C     0.60508   0.40358   0.30184   0.00000  Uiso   1.00
C107   C     0.69305   0.38001   0.45904   0.00000  Uiso   1.00
C108   C     0.72050   0.31014   0.50748   0.00000  Uiso   1.00
C109   C     0.80328   0.29969   0.65553   0.00000  Uiso   1.00
C110   C     0.50235   0.45125   0.25070   0.00000  Uiso   1.00
C111   C     0.36946   0.44127   0.12397   0.00000  Uiso   1.00
C112   C     0.29169   0.49078   0.09661   0.00000  Uiso   1.00
C113   C     0.68710   0.45190   0.31690   0.00000  Uiso   1.00
C114   C     0.70953   0.44248   0.24580   0.00000  Uiso   1.00
C115   C     0.78728   0.49256   0.27414   0.00000  Uiso   1.00
H116   H     0.74476   0.55392   0.55335   0.00000  Uiso   1.00
H117   H     0.87035   0.47147   0.77732   0.00000  Uiso   1.00
H118   H     0.51937   0.60258   0.39385   0.00000  Uiso   1.00
H119   H     0.85939   0.60379   0.51567   0.00000  Uiso   1.00
H120   H     0.98605   0.35475   0.98327   0.00000  Uiso   1.00
H121   H     0.24598   0.63122   0.17469   0.00000  Uiso   1.00
H122   H     0.96297   0.63377   0.43156   0.00000  Uiso   1.00
H123   H     0.56356   0.35890   0.22709   0.00000  Uiso   1.00
H124   H     0.67923   0.26574   0.43315   0.00000  Uiso   1.00
H125   H     0.32823   0.39686   0.04969   0.00000  Uiso   1.00
H126   H     0.66825   0.39807   0.17151   0.00000  Uiso   1.00
H127   H     0.83092   0.18777   0.70393   0.00000  Uiso   1.00
H128   H     0.09084   0.46425   0.89535   0.00000  Uiso   1.00
H129   H     0.80784   0.46679   0.15222   0.00000  Uiso   1.00
O130   O     0.98780   0.21350   0.98503   0.00000  Uiso   1.00
O131   O     0.01686   0.57623   0.92420   0.00000  Uiso   1.00
O132   O     0.95754   0.57957   0.26121   0.00000  Uiso   1.00
N133   N     0.93369   0.32823   0.88925   0.00000  Uiso   1.00
N134   N     0.24176   0.58671   0.13329   0.00000  Uiso   1.00
N135   N     0.91206   0.58911   0.37341   0.00000  Uiso   1.00
N136   N     0.85021   0.23839   0.73894   0.00000  Uiso   1.00
N137   N     0.15829   0.49687   0.98299   0.00000  Uiso   1.00
N138   N     0.82859   0.49926   0.22311   0.00000  Uiso   1.00
C139   C     0.29675   0.00924   0.02139   0.00000  Uiso   1.00
C140   C     0.25362   0.93740   0.94495   0.00000  Uiso   1.00
C141   C     0.17088   0.92704   0.79695   0.00000  Uiso   1.00
C142   C     0.14331   0.85718   0.74829   0.00000  Uiso   1.00
C143   C     0.06829   0.75436   0.61501   0.00000  Uiso   1.00
C144   C     0.44433   0.00863   0.15328   0.00000  Uiso   1.00
C145   C     0.52192   0.05818   0.18046   0.00000  Uiso   1.00
C146   C     0.65489   0.04828   0.30720   0.00000  Uiso   1.00
C147   C     0.87595   0.05607   0.49742   0.00000  Uiso   1.00
C148   C     0.25958   0.00929   0.08708   0.00000  Uiso   1.00
C149   C     0.18186   0.05939   0.05864   0.00000  Uiso   1.00
C150   C     0.15930   0.05005   0.12967   0.00000  Uiso   1.00
C151   C     0.09350   0.05886   0.21710   0.00000  Uiso   1.00
C152   C     0.39492   0.90358   0.19816   0.00000  Uiso   1.00
C153   C     0.30695   0.88001   0.04096   0.00000  Uiso   1.00
C154   C     0.27950   0.81014   0.99252   0.00000  Uiso   1.00
C155   C     0.19672   0.79969   0.84447   0.00000  Uiso   1.00
C156   C     0.49765   0.95125   0.24930   0.00000  Uiso   1.00
C157   C     0.63054   0.94127   0.37603   0.00000  Uiso   1.00
C158   C     0.70831   0.99078   0.40339   0.00000  Uiso   1.00
C159   C     0.31290   0.95190   0.18310   0.00000  Uiso   1.00
C160   C     0.29047   0.94248   0.25420   0.00000  Uiso   1.00
C161   C     0.21272   0.99256   0.22586   0.00000  Uiso   1.00
H162   H     0.25524   0.05392   0.94665   0.00000  Uiso   1.00
H163   H     0.12965   0.97147   0.72268   0.00000  Uiso   1.00
H164   H     0.48063   0.10258   0.10615   0.00000  Uiso   1.00
H165   H     0.14061   0.10379   0.98433   0.00000  Uiso   1.00
H166   H     0.01395   0.85475   0.51673   0.00000  Uiso   1.00
H167   H     0.75402   0.13122   0.32531   0.00000  Uiso   1.00
H168   H     0.03703   0.13377   0.06844   0.00000  Uiso   1.00
H169   H     0.43644   0.85890   0.27291   0.00000  Uiso   1.00
H170   H     0.32077   0.76574   0.06685   0.00000  Uiso   1.00
H171   H     0.67177   0.89686   0.45031   0.00000  Uiso   1.00
H172   H     0.33175   0.89807   0.32849   0.00000  Uiso   1.00
H173   H     0.16908   0.68777   0.79607   0.00000  Uiso   1.00
H174   H     0.90916   0.96425   0.60465   0.00000  Uiso   1.00
H175   H     0.19216   0.96679   0.34778   0.00000  Uiso   1.00
O176   O     0.01220   0.71350   0.51497   0.00000  Uiso   1.00
O177   O     0.98314   0.07623   0.57580   0.00000  Uiso   1.00
O178   O     0.04246   0.07957   0.23879   0.00000  Uiso   1.00
N179   N     0.06631   0.82823   0.61075   0.00000  Uiso   1.00
N180   N     0.75824   0.08671   0.36671   0.00000  Uiso   1.00
N181   N     0.08794   0.08911   0.12659   0.00000  Uiso   1.00
N182   N     0.14979   0.73839   0.76106   0.00000  Uiso   1.00
N183   N     0.84171   0.99687   0.51701   0.00000  Uiso   1.00
N184   N     0.17141   0.99926   0.27689   0.00000  Uiso   1.00
