data_job_05358
_audit_creation_date              2018-12-19
_audit_creation_method            'Materials Studio'
_symmetry_space_group_name_H-M    'P1'
_symmetry_Int_Tables_number       1
_symmetry_cell_setting            triclinic
loop_
_symmetry_equiv_pos_as_xyz
  x,y,z
_cell_length_a                    19.3645
_cell_length_b                    11.5026
_cell_length_c                    12.5489
_cell_angle_alpha                 90.0000
_cell_angle_beta                  82.6448
_cell_angle_gamma                 90.0000
loop_
_atom_site_label
_atom_site_type_symbol
_atom_site_fract_x
_atom_site_fract_y
_atom_site_fract_z
_atom_site_U_iso_or_equiv
_atom_site_adp_type
_atom_site_occupancy
C1     C     0.19102   0.66529   0.39016   0.00000  Uiso   1.00
C2     C     0.17948   0.59932   0.28853   0.00000  Uiso   1.00
C3     C     0.11920   0.60142   0.23947   0.00000  Uiso   1.00
C4     C     0.11895   0.53507   0.14709   0.00000  Uiso   1.00
C5     C     0.09219   0.44263   0.99566   0.00000  Uiso   1.00
C6     C     0.21076   0.57402   0.46906   0.00000  Uiso   1.00
C7     C     0.17679   0.55487   0.57180   0.00000  Uiso   1.00
C8     C     0.20288   0.46723   0.63140   0.00000  Uiso   1.00
C9     C     0.22471   0.33557   0.76028   0.00000  Uiso   1.00
C10    C     0.25598   0.73920   0.36026   0.00000  Uiso   1.00
C11    C     0.26005   0.85894   0.37154   0.00000  Uiso   1.00
C12    C     0.32423   0.91037   0.33957   0.00000  Uiso   1.00
C13    C     0.41629   0.03519   0.29952   0.00000  Uiso   1.00
C14    C     0.29777   0.54371   0.31335   0.00000  Uiso   1.00
C15    C     0.23746   0.53328   0.24681   0.00000  Uiso   1.00
C16    C     0.23731   0.46691   0.15448   0.00000  Uiso   1.00
C17    C     0.17704   0.46892   0.10529   0.00000  Uiso   1.00
C18    C     0.26873   0.50798   0.42735   0.00000  Uiso   1.00
C19    C     0.29489   0.42036   0.48681   0.00000  Uiso   1.00
C20    C     0.26097   0.40107   0.58961   0.00000  Uiso   1.00
C21    C     0.31397   0.67317   0.31854   0.00000  Uiso   1.00
C22    C     0.37815   0.72442   0.28655   0.00000  Uiso   1.00
C23    C     0.38232   0.84421   0.29778   0.00000  Uiso   1.00
H24    H     0.14588   0.71670   0.42265   0.00000  Uiso   1.00
H25    H     0.07434   0.65253   0.27179   0.00000  Uiso   1.00
H26    H     0.13192   0.60599   0.60406   0.00000  Uiso   1.00
H27    H     0.21517   0.91001   0.40383   0.00000  Uiso   1.00
H28    H     0.02058   0.55224   0.08615   0.00000  Uiso   1.00
H29    H     0.14201   0.45413   0.78679   0.00000  Uiso   1.00
H30    H     0.31756   0.09522   0.36457   0.00000  Uiso   1.00
H31    H     0.34291   0.49229   0.28087   0.00000  Uiso   1.00
H32    H     0.28218   0.41581   0.12222   0.00000  Uiso   1.00
H33    H     0.33976   0.36927   0.45450   0.00000  Uiso   1.00
H34    H     0.42301   0.67329   0.25427   0.00000  Uiso   1.00
H35    H     0.18927   0.36010   0.96476   0.00000  Uiso   1.00
H36    H     0.31070   0.26200   0.66541   0.00000  Uiso   1.00
H37    H     0.48625   0.90309   0.24318   0.00000  Uiso   1.00
O38    O     0.06141   0.40988   0.92367   0.00000  Uiso   1.00
O39    O     0.22073   0.28119   0.84289   0.00000  Uiso   1.00
O40    O     0.45104   0.12228   0.28894   0.00000  Uiso   1.00
N41    N     0.06862   0.51753   0.07934   0.00000  Uiso   1.00
N42    N     0.18215   0.42580   0.73439   0.00000  Uiso   1.00
N43    N     0.34627   0.02516   0.33968   0.00000  Uiso   1.00
N44    N     0.15939   0.41415   0.01402   0.00000  Uiso   1.00
N45    N     0.27292   0.32242   0.66907   0.00000  Uiso   1.00
N46    N     0.43704   0.92178   0.27436   0.00000  Uiso   1.00
C47    C     0.80898   0.16529   0.10984   0.00000  Uiso   1.00
C48    C     0.82052   0.09932   0.21147   0.00000  Uiso   1.00
C49    C     0.88080   0.10142   0.26053   0.00000  Uiso   1.00
C50    C     0.88105   0.03507   0.35291   0.00000  Uiso   1.00
C51    C     0.90781   0.94263   0.50434   0.00000  Uiso   1.00
C52    C     0.78924   0.07402   0.03094   0.00000  Uiso   1.00
C53    C     0.82321   0.05487   0.92820   0.00000  Uiso   1.00
C54    C     0.79712   0.96723   0.86860   0.00000  Uiso   1.00
C55    C     0.77529   0.83557   0.73972   0.00000  Uiso   1.00
C56    C     0.74402   0.23920   0.13974   0.00000  Uiso   1.00
C57    C     0.73995   0.35894   0.12846   0.00000  Uiso   1.00
C58    C     0.67577   0.41037   0.16043   0.00000  Uiso   1.00
C59    C     0.58371   0.53519   0.20048   0.00000  Uiso   1.00
C60    C     0.70223   0.04371   0.18665   0.00000  Uiso   1.00
C61    C     0.76254   0.03328   0.25319   0.00000  Uiso   1.00
C62    C     0.76269   0.96691   0.34552   0.00000  Uiso   1.00
C63    C     0.82296   0.96892   0.39471   0.00000  Uiso   1.00
C64    C     0.73127   0.00798   0.07265   0.00000  Uiso   1.00
C65    C     0.70511   0.92036   0.01319   0.00000  Uiso   1.00
C66    C     0.73903   0.90107   0.91039   0.00000  Uiso   1.00
C67    C     0.68603   0.17317   0.18146   0.00000  Uiso   1.00
C68    C     0.62185   0.22442   0.21345   0.00000  Uiso   1.00
C69    C     0.61768   0.34421   0.20222   0.00000  Uiso   1.00
H70    H     0.85412   0.21670   0.07735   0.00000  Uiso   1.00
H71    H     0.92566   0.15253   0.22821   0.00000  Uiso   1.00
H72    H     0.86808   0.10599   0.89594   0.00000  Uiso   1.00
H73    H     0.78483   0.41001   0.09617   0.00000  Uiso   1.00
H74    H     0.97942   0.05224   0.41385   0.00000  Uiso   1.00
H75    H     0.85799   0.95413   0.71321   0.00000  Uiso   1.00
H76    H     0.68244   0.59522   0.13543   0.00000  Uiso   1.00
H77    H     0.65709   0.99229   0.21913   0.00000  Uiso   1.00
H78    H     0.71782   0.91581   0.37778   0.00000  Uiso   1.00
H79    H     0.66024   0.86927   0.04550   0.00000  Uiso   1.00
H80    H     0.57699   0.17329   0.24573   0.00000  Uiso   1.00
H81    H     0.81073   0.86010   0.53524   0.00000  Uiso   1.00
H82    H     0.68930   0.76200   0.83459   0.00000  Uiso   1.00
H83    H     0.51375   0.40309   0.25682   0.00000  Uiso   1.00
O84    O     0.93859   0.90988   0.57633   0.00000  Uiso   1.00
O85    O     0.77927   0.78119   0.65711   0.00000  Uiso   1.00
O86    O     0.54896   0.62228   0.21106   0.00000  Uiso   1.00
N87    N     0.93138   0.01753   0.42066   0.00000  Uiso   1.00
N88    N     0.81785   0.92580   0.76561   0.00000  Uiso   1.00
N89    N     0.65373   0.52516   0.16032   0.00000  Uiso   1.00
N90    N     0.84061   0.91415   0.48598   0.00000  Uiso   1.00
N91    N     0.72708   0.82242   0.83093   0.00000  Uiso   1.00
N92    N     0.56296   0.42178   0.22564   0.00000  Uiso   1.00
C93    C     0.80898   0.33471   0.60984   0.00000  Uiso   1.00
C94    C     0.82052   0.40068   0.71147   0.00000  Uiso   1.00
C95    C     0.88080   0.39858   0.76053   0.00000  Uiso   1.00
C96    C     0.88105   0.46493   0.85291   0.00000  Uiso   1.00
C97    C     0.90781   0.55737   0.00434   0.00000  Uiso   1.00
C98    C     0.78924   0.42598   0.53094   0.00000  Uiso   1.00
C99    C     0.82321   0.44513   0.42820   0.00000  Uiso   1.00
C100   C     0.79712   0.53277   0.36860   0.00000  Uiso   1.00
C101   C     0.77529   0.66443   0.23972   0.00000  Uiso   1.00
C102   C     0.74402   0.26080   0.63974   0.00000  Uiso   1.00
C103   C     0.73995   0.14106   0.62846   0.00000  Uiso   1.00
C104   C     0.67577   0.08963   0.66043   0.00000  Uiso   1.00
C105   C     0.58371   0.96481   0.70048   0.00000  Uiso   1.00
C106   C     0.70223   0.45629   0.68665   0.00000  Uiso   1.00
C107   C     0.76254   0.46672   0.75319   0.00000  Uiso   1.00
C108   C     0.76269   0.53309   0.84552   0.00000  Uiso   1.00
C109   C     0.82296   0.53108   0.89471   0.00000  Uiso   1.00
C110   C     0.73127   0.49202   0.57265   0.00000  Uiso   1.00
C111   C     0.70511   0.57964   0.51319   0.00000  Uiso   1.00
C112   C     0.73903   0.59893   0.41039   0.00000  Uiso   1.00
C113   C     0.68603   0.32683   0.68146   0.00000  Uiso   1.00
C114   C     0.62185   0.27558   0.71345   0.00000  Uiso   1.00
C115   C     0.61768   0.15579   0.70222   0.00000  Uiso   1.00
H116   H     0.85412   0.28330   0.57735   0.00000  Uiso   1.00
H117   H     0.92566   0.34747   0.72821   0.00000  Uiso   1.00
H118   H     0.86808   0.39401   0.39594   0.00000  Uiso   1.00
H119   H     0.78483   0.08999   0.59617   0.00000  Uiso   1.00
H120   H     0.97942   0.44776   0.91385   0.00000  Uiso   1.00
H121   H     0.85799   0.54587   0.21321   0.00000  Uiso   1.00
H122   H     0.68244   0.90478   0.63543   0.00000  Uiso   1.00
H123   H     0.65709   0.50771   0.71913   0.00000  Uiso   1.00
H124   H     0.71782   0.58419   0.87778   0.00000  Uiso   1.00
H125   H     0.66024   0.63073   0.54550   0.00000  Uiso   1.00
H126   H     0.57699   0.32671   0.74573   0.00000  Uiso   1.00
H127   H     0.81073   0.63990   0.03524   0.00000  Uiso   1.00
H128   H     0.68930   0.73800   0.33459   0.00000  Uiso   1.00
H129   H     0.51375   0.09691   0.75682   0.00000  Uiso   1.00
O130   O     0.93859   0.59012   0.07633   0.00000  Uiso   1.00
O131   O     0.77927   0.71881   0.15711   0.00000  Uiso   1.00
O132   O     0.54896   0.87772   0.71106   0.00000  Uiso   1.00
N133   N     0.93138   0.48247   0.92066   0.00000  Uiso   1.00
N134   N     0.81785   0.57420   0.26561   0.00000  Uiso   1.00
N135   N     0.65373   0.97484   0.66032   0.00000  Uiso   1.00
N136   N     0.84061   0.58585   0.98598   0.00000  Uiso   1.00
N137   N     0.72708   0.67758   0.33093   0.00000  Uiso   1.00
N138   N     0.56296   0.07822   0.72564   0.00000  Uiso   1.00
C139   C     0.19102   0.83471   0.89016   0.00000  Uiso   1.00
C140   C     0.17948   0.90068   0.78853   0.00000  Uiso   1.00
C141   C     0.11920   0.89858   0.73947   0.00000  Uiso   1.00
C142   C     0.11895   0.96493   0.64709   0.00000  Uiso   1.00
C143   C     0.09219   0.05737   0.49566   0.00000  Uiso   1.00
C144   C     0.21076   0.92598   0.96906   0.00000  Uiso   1.00
C145   C     0.17679   0.94513   0.07180   0.00000  Uiso   1.00
C146   C     0.20288   0.03277   0.13140   0.00000  Uiso   1.00
C147   C     0.22471   0.16443   0.26028   0.00000  Uiso   1.00
C148   C     0.25598   0.76080   0.86026   0.00000  Uiso   1.00
C149   C     0.26005   0.64106   0.87154   0.00000  Uiso   1.00
C150   C     0.32423   0.58963   0.83957   0.00000  Uiso   1.00
C151   C     0.41629   0.46481   0.79952   0.00000  Uiso   1.00
C152   C     0.29777   0.95629   0.81335   0.00000  Uiso   1.00
C153   C     0.23746   0.96672   0.74681   0.00000  Uiso   1.00
C154   C     0.23731   0.03309   0.65448   0.00000  Uiso   1.00
C155   C     0.17704   0.03108   0.60529   0.00000  Uiso   1.00
C156   C     0.26873   0.99202   0.92735   0.00000  Uiso   1.00
C157   C     0.29489   0.07964   0.98681   0.00000  Uiso   1.00
C158   C     0.26097   0.09893   0.08961   0.00000  Uiso   1.00
C159   C     0.31397   0.82683   0.81854   0.00000  Uiso   1.00
C160   C     0.37815   0.77558   0.78655   0.00000  Uiso   1.00
C161   C     0.38232   0.65579   0.79778   0.00000  Uiso   1.00
H162   H     0.14588   0.78330   0.92265   0.00000  Uiso   1.00
H163   H     0.07434   0.84747   0.77179   0.00000  Uiso   1.00
H164   H     0.13192   0.89401   0.10406   0.00000  Uiso   1.00
H165   H     0.21517   0.58999   0.90383   0.00000  Uiso   1.00
H166   H     0.02058   0.94776   0.58615   0.00000  Uiso   1.00
H167   H     0.14201   0.04587   0.28679   0.00000  Uiso   1.00
H168   H     0.31756   0.40478   0.86457   0.00000  Uiso   1.00
H169   H     0.34291   0.00771   0.78087   0.00000  Uiso   1.00
H170   H     0.28218   0.08419   0.62222   0.00000  Uiso   1.00
H171   H     0.33976   0.13073   0.95450   0.00000  Uiso   1.00
H172   H     0.42301   0.82671   0.75427   0.00000  Uiso   1.00
H173   H     0.18927   0.13990   0.46476   0.00000  Uiso   1.00
H174   H     0.31070   0.23800   0.16541   0.00000  Uiso   1.00
H175   H     0.48625   0.59691   0.74318   0.00000  Uiso   1.00
O176   O     0.06141   0.09012   0.42367   0.00000  Uiso   1.00
O177   O     0.22073   0.21881   0.34289   0.00000  Uiso   1.00
O178   O     0.45104   0.37772   0.78894   0.00000  Uiso   1.00
N179   N     0.06862   0.98247   0.57934   0.00000  Uiso   1.00
N180   N     0.18215   0.07420   0.23439   0.00000  Uiso   1.00
N181   N     0.34627   0.47484   0.83968   0.00000  Uiso   1.00
N182   N     0.15939   0.08585   0.51402   0.00000  Uiso   1.00
N183   N     0.27292   0.17758   0.16907   0.00000  Uiso   1.00
N184   N     0.43704   0.57822   0.77436   0.00000  Uiso   1.00
