data_job_01593
_audit_creation_date              2018-12-19
_audit_creation_method            'Materials Studio'
_symmetry_space_group_name_H-M    'P1'
_symmetry_Int_Tables_number       1
_symmetry_cell_setting            triclinic
loop_
_symmetry_equiv_pos_as_xyz
  x,y,z
_cell_length_a                    21.6385
_cell_length_b                    12.3509
_cell_length_c                    22.3588
_cell_angle_alpha                 90.0000
_cell_angle_beta                  90.0000
_cell_angle_gamma                 90.0000
loop_
_atom_site_label
_atom_site_type_symbol
_atom_site_fract_x
_atom_site_fract_y
_atom_site_fract_z
_atom_site_U_iso_or_equiv
_atom_site_adp_type
_atom_site_occupancy
C1     C     0.21141   0.09954   0.95789   0.00000  Uiso   1.00
C2     C     0.23351   0.07370   0.89472   0.00000  Uiso   1.00
C3     C     0.28798   0.11016   0.86888   0.00000  Uiso   1.00
C4     C     0.29985   0.07751   0.81058   0.00000  Uiso   1.00
C5     C     0.34041   0.04758   0.71724   0.00000  Uiso   1.00
C6     C     0.14751   0.15011   0.95098   0.00000  Uiso   1.00
C7     C     0.12968   0.25081   0.97245   0.00000  Uiso   1.00
C8     C     0.06916   0.28247   0.96152   0.00000  Uiso   1.00
C9     C     0.97620   0.37113   0.95557   0.00000  Uiso   1.00
C10    C     0.20127   0.99066   0.98851   0.00000  Uiso   1.00
C11    C     0.22862   0.95730   0.04154   0.00000  Uiso   1.00
C12    C     0.21334   0.85473   0.06221   0.00000  Uiso   1.00
C13    C     0.20384   0.69582   0.11452   0.00000  Uiso   1.00
C14    C     0.13562   0.97672   0.90031   0.00000  Uiso   1.00
C15    C     0.19234   0.00699   0.86344   0.00000  Uiso   1.00
C16    C     0.20413   0.97427   0.80517   0.00000  Uiso   1.00
C17    C     0.25861   0.01068   0.77925   0.00000  Uiso   1.00
C18    C     0.10635   0.08340   0.91971   0.00000  Uiso   1.00
C19    C     0.04584   0.11492   0.90874   0.00000  Uiso   1.00
C20    C     0.02792   0.21564   0.93019   0.00000  Uiso   1.00
C21    C     0.16011   0.92395   0.95723   0.00000  Uiso   1.00
C22    C     0.14478   0.82141   0.97783   0.00000  Uiso   1.00
C23    C     0.17210   0.78790   0.03088   0.00000  Uiso   1.00
H24    H     0.24345   0.15149   0.98224   0.00000  Uiso   1.00
H25    H     0.31982   0.16180   0.89309   0.00000  Uiso   1.00
H26    H     0.16155   0.30241   0.99666   0.00000  Uiso   1.00
H27    H     0.26047   0.00895   0.06573   0.00000  Uiso   1.00
H28    H     0.38632   0.14384   0.78046   0.00000  Uiso   1.00
H29    H     0.05259   0.44032   0.99884   0.00000  Uiso   1.00
H30    H     0.26119   0.82150   0.14450   0.00000  Uiso   1.00
H31    H     0.10358   0.92478   0.87596   0.00000  Uiso   1.00
H32    H     0.17227   0.92265   0.78098   0.00000  Uiso   1.00
H33    H     0.01400   0.06327   0.88454   0.00000  Uiso   1.00
H34    H     0.11292   0.76981   0.95362   0.00000  Uiso   1.00
H35    H     0.26657   0.94974   0.68946   0.00000  Uiso   1.00
H36    H     0.93283   0.24623   0.90785   0.00000  Uiso   1.00
H37    H     0.14143   0.62740   0.05350   0.00000  Uiso   1.00
O38    O     0.37415   0.04951   0.67439   0.00000  Uiso   1.00
O39    O     0.93630   0.43847   0.96092   0.00000  Uiso   1.00
O40    O     0.20998   0.62659   0.15201   0.00000  Uiso   1.00
N41    N     0.34871   0.09843   0.77208   0.00000  Uiso   1.00
N42    N     0.03670   0.37564   0.97625   0.00000  Uiso   1.00
N43    N     0.23171   0.79710   0.11244   0.00000  Uiso   1.00
N44    N     0.28428   0.99399   0.72312   0.00000  Uiso   1.00
N45    N     0.97226   0.27119   0.92729   0.00000  Uiso   1.00
N46    N     0.16727   0.69265   0.06347   0.00000  Uiso   1.00
C47    C     0.28859   0.90046   0.45789   0.00000  Uiso   1.00
C48    C     0.26649   0.92630   0.39472   0.00000  Uiso   1.00
C49    C     0.21202   0.88984   0.36888   0.00000  Uiso   1.00
C50    C     0.20015   0.92249   0.31058   0.00000  Uiso   1.00
C51    C     0.15959   0.95242   0.21724   0.00000  Uiso   1.00
C52    C     0.35249   0.84989   0.45098   0.00000  Uiso   1.00
C53    C     0.37032   0.74919   0.47245   0.00000  Uiso   1.00
C54    C     0.43084   0.71753   0.46152   0.00000  Uiso   1.00
C55    C     0.52380   0.62887   0.45557   0.00000  Uiso   1.00
C56    C     0.29873   0.00934   0.48851   0.00000  Uiso   1.00
C57    C     0.27138   0.04270   0.54154   0.00000  Uiso   1.00
C58    C     0.28666   0.14527   0.56221   0.00000  Uiso   1.00
C59    C     0.29616   0.30418   0.61452   0.00000  Uiso   1.00
C60    C     0.36438   0.02328   0.40031   0.00000  Uiso   1.00
C61    C     0.30766   0.99301   0.36344   0.00000  Uiso   1.00
C62    C     0.29587   0.02573   0.30517   0.00000  Uiso   1.00
C63    C     0.24139   0.98932   0.27925   0.00000  Uiso   1.00
C64    C     0.39365   0.91660   0.41971   0.00000  Uiso   1.00
C65    C     0.45416   0.88508   0.40874   0.00000  Uiso   1.00
C66    C     0.47208   0.78436   0.43019   0.00000  Uiso   1.00
C67    C     0.33989   0.07605   0.45723   0.00000  Uiso   1.00
C68    C     0.35522   0.17859   0.47783   0.00000  Uiso   1.00
C69    C     0.32790   0.21210   0.53088   0.00000  Uiso   1.00
H70    H     0.25655   0.84851   0.48224   0.00000  Uiso   1.00
H71    H     0.18018   0.83820   0.39309   0.00000  Uiso   1.00
H72    H     0.33845   0.69759   0.49666   0.00000  Uiso   1.00
H73    H     0.23953   0.99105   0.56573   0.00000  Uiso   1.00
H74    H     0.11368   0.85616   0.28046   0.00000  Uiso   1.00
H75    H     0.44741   0.55968   0.49884   0.00000  Uiso   1.00
H76    H     0.23881   0.17850   0.64450   0.00000  Uiso   1.00
H77    H     0.39642   0.07522   0.37596   0.00000  Uiso   1.00
H78    H     0.32773   0.07735   0.28098   0.00000  Uiso   1.00
H79    H     0.48600   0.93673   0.38454   0.00000  Uiso   1.00
H80    H     0.38708   0.23019   0.45362   0.00000  Uiso   1.00
H81    H     0.23343   0.05026   0.18946   0.00000  Uiso   1.00
H82    H     0.56717   0.75377   0.40785   0.00000  Uiso   1.00
H83    H     0.35857   0.37260   0.55350   0.00000  Uiso   1.00
O84    O     0.12585   0.95049   0.17439   0.00000  Uiso   1.00
O85    O     0.56370   0.56153   0.46092   0.00000  Uiso   1.00
O86    O     0.29002   0.37341   0.65201   0.00000  Uiso   1.00
N87    N     0.15129   0.90157   0.27208   0.00000  Uiso   1.00
N88    N     0.46330   0.62436   0.47625   0.00000  Uiso   1.00
N89    N     0.26829   0.20290   0.61244   0.00000  Uiso   1.00
N90    N     0.21572   0.00601   0.22312   0.00000  Uiso   1.00
N91    N     0.52774   0.72881   0.42729   0.00000  Uiso   1.00
N92    N     0.33273   0.30735   0.56347   0.00000  Uiso   1.00
C93    C     0.78859   0.59954   0.54211   0.00000  Uiso   1.00
C94    C     0.76649   0.57370   0.60528   0.00000  Uiso   1.00
C95    C     0.71202   0.61016   0.63112   0.00000  Uiso   1.00
C96    C     0.70015   0.57751   0.68942   0.00000  Uiso   1.00
C97    C     0.65959   0.54758   0.78276   0.00000  Uiso   1.00
C98    C     0.85249   0.65011   0.54902   0.00000  Uiso   1.00
C99    C     0.87032   0.75081   0.52755   0.00000  Uiso   1.00
C100   C     0.93084   0.78247   0.53848   0.00000  Uiso   1.00
C101   C     0.02380   0.87113   0.54443   0.00000  Uiso   1.00
C102   C     0.79873   0.49066   0.51149   0.00000  Uiso   1.00
C103   C     0.77138   0.45730   0.45846   0.00000  Uiso   1.00
C104   C     0.78666   0.35473   0.43779   0.00000  Uiso   1.00
C105   C     0.79616   0.19582   0.38548   0.00000  Uiso   1.00
C106   C     0.86438   0.47672   0.59969   0.00000  Uiso   1.00
C107   C     0.80766   0.50699   0.63656   0.00000  Uiso   1.00
C108   C     0.79587   0.47427   0.69483   0.00000  Uiso   1.00
C109   C     0.74139   0.51068   0.72075   0.00000  Uiso   1.00
C110   C     0.89365   0.58340   0.58029   0.00000  Uiso   1.00
C111   C     0.95416   0.61492   0.59126   0.00000  Uiso   1.00
C112   C     0.97208   0.71564   0.56981   0.00000  Uiso   1.00
C113   C     0.83989   0.42395   0.54277   0.00000  Uiso   1.00
C114   C     0.85522   0.32141   0.52217   0.00000  Uiso   1.00
C115   C     0.82790   0.28790   0.46912   0.00000  Uiso   1.00
H116   H     0.75655   0.65149   0.51776   0.00000  Uiso   1.00
H117   H     0.68018   0.66180   0.60691   0.00000  Uiso   1.00
H118   H     0.83845   0.80241   0.50334   0.00000  Uiso   1.00
H119   H     0.73953   0.50895   0.43427   0.00000  Uiso   1.00
H120   H     0.61368   0.64384   0.71954   0.00000  Uiso   1.00
H121   H     0.94741   0.94032   0.50116   0.00000  Uiso   1.00
H122   H     0.73881   0.32150   0.35550   0.00000  Uiso   1.00
H123   H     0.89642   0.42478   0.62404   0.00000  Uiso   1.00
H124   H     0.82773   0.42265   0.71902   0.00000  Uiso   1.00
H125   H     0.98600   0.56327   0.61546   0.00000  Uiso   1.00
H126   H     0.88708   0.26981   0.54638   0.00000  Uiso   1.00
H127   H     0.73343   0.44974   0.81054   0.00000  Uiso   1.00
H128   H     0.06717   0.74623   0.59215   0.00000  Uiso   1.00
H129   H     0.85857   0.12740   0.44650   0.00000  Uiso   1.00
O130   O     0.62585   0.54951   0.82561   0.00000  Uiso   1.00
O131   O     0.06370   0.93847   0.53908   0.00000  Uiso   1.00
O132   O     0.79002   0.12659   0.34799   0.00000  Uiso   1.00
N133   N     0.65129   0.59843   0.72792   0.00000  Uiso   1.00
N134   N     0.96330   0.87564   0.52375   0.00000  Uiso   1.00
N135   N     0.76829   0.29710   0.38756   0.00000  Uiso   1.00
N136   N     0.71572   0.49399   0.77688   0.00000  Uiso   1.00
N137   N     0.02774   0.77119   0.57271   0.00000  Uiso   1.00
N138   N     0.83273   0.19265   0.43653   0.00000  Uiso   1.00
C139   C     0.71141   0.40046   0.04211   0.00000  Uiso   1.00
C140   C     0.73351   0.42630   0.10528   0.00000  Uiso   1.00
C141   C     0.78798   0.38984   0.13112   0.00000  Uiso   1.00
C142   C     0.79985   0.42249   0.18942   0.00000  Uiso   1.00
C143   C     0.84041   0.45242   0.28276   0.00000  Uiso   1.00
C144   C     0.64751   0.34989   0.04902   0.00000  Uiso   1.00
C145   C     0.62968   0.24919   0.02755   0.00000  Uiso   1.00
C146   C     0.56916   0.21753   0.03848   0.00000  Uiso   1.00
C147   C     0.47620   0.12887   0.04443   0.00000  Uiso   1.00
C148   C     0.70127   0.50934   0.01149   0.00000  Uiso   1.00
C149   C     0.72862   0.54270   0.95846   0.00000  Uiso   1.00
C150   C     0.71334   0.64527   0.93779   0.00000  Uiso   1.00
C151   C     0.70384   0.80418   0.88548   0.00000  Uiso   1.00
C152   C     0.63562   0.52328   0.09969   0.00000  Uiso   1.00
C153   C     0.69234   0.49301   0.13656   0.00000  Uiso   1.00
C154   C     0.70413   0.52573   0.19483   0.00000  Uiso   1.00
C155   C     0.75861   0.48932   0.22075   0.00000  Uiso   1.00
C156   C     0.60635   0.41660   0.08029   0.00000  Uiso   1.00
C157   C     0.54584   0.38508   0.09126   0.00000  Uiso   1.00
C158   C     0.52792   0.28436   0.06981   0.00000  Uiso   1.00
C159   C     0.66011   0.57605   0.04277   0.00000  Uiso   1.00
C160   C     0.64478   0.67859   0.02217   0.00000  Uiso   1.00
C161   C     0.67210   0.71210   0.96912   0.00000  Uiso   1.00
H162   H     0.74345   0.34851   0.01776   0.00000  Uiso   1.00
H163   H     0.81982   0.33820   0.10691   0.00000  Uiso   1.00
H164   H     0.66155   0.19759   0.00334   0.00000  Uiso   1.00
H165   H     0.76047   0.49105   0.93427   0.00000  Uiso   1.00
H166   H     0.88632   0.35616   0.21954   0.00000  Uiso   1.00
H167   H     0.55259   0.05968   0.00116   0.00000  Uiso   1.00
H168   H     0.76119   0.67850   0.85550   0.00000  Uiso   1.00
H169   H     0.60358   0.57522   0.12404   0.00000  Uiso   1.00
H170   H     0.67227   0.57735   0.21902   0.00000  Uiso   1.00
H171   H     0.51400   0.43673   0.11546   0.00000  Uiso   1.00
H172   H     0.61292   0.73019   0.04638   0.00000  Uiso   1.00
H173   H     0.76657   0.55026   0.31054   0.00000  Uiso   1.00
H174   H     0.43283   0.25377   0.09215   0.00000  Uiso   1.00
H175   H     0.64143   0.87260   0.94650   0.00000  Uiso   1.00
O176   O     0.87415   0.45049   0.32561   0.00000  Uiso   1.00
O177   O     0.43630   0.06153   0.03908   0.00000  Uiso   1.00
O178   O     0.70998   0.87341   0.84799   0.00000  Uiso   1.00
N179   N     0.84871   0.40157   0.22792   0.00000  Uiso   1.00
N180   N     0.53670   0.12436   0.02375   0.00000  Uiso   1.00
N181   N     0.73171   0.70290   0.88756   0.00000  Uiso   1.00
N182   N     0.78428   0.50601   0.27688   0.00000  Uiso   1.00
N183   N     0.47226   0.22881   0.07271   0.00000  Uiso   1.00
N184   N     0.66727   0.80735   0.93653   0.00000  Uiso   1.00
C185   C     0.78859   0.90046   0.04211   0.00000  Uiso   1.00
C186   C     0.76649   0.92630   0.10528   0.00000  Uiso   1.00
C187   C     0.71202   0.88984   0.13112   0.00000  Uiso   1.00
C188   C     0.70015   0.92249   0.18942   0.00000  Uiso   1.00
C189   C     0.65959   0.95242   0.28276   0.00000  Uiso   1.00
C190   C     0.85249   0.84989   0.04902   0.00000  Uiso   1.00
C191   C     0.87032   0.74919   0.02755   0.00000  Uiso   1.00
C192   C     0.93084   0.71753   0.03848   0.00000  Uiso   1.00
C193   C     0.02380   0.62887   0.04443   0.00000  Uiso   1.00
C194   C     0.79873   0.00934   0.01149   0.00000  Uiso   1.00
C195   C     0.77138   0.04270   0.95846   0.00000  Uiso   1.00
C196   C     0.78666   0.14527   0.93779   0.00000  Uiso   1.00
C197   C     0.79616   0.30418   0.88548   0.00000  Uiso   1.00
C198   C     0.86438   0.02328   0.09969   0.00000  Uiso   1.00
C199   C     0.80766   0.99301   0.13656   0.00000  Uiso   1.00
C200   C     0.79587   0.02573   0.19483   0.00000  Uiso   1.00
C201   C     0.74139   0.98932   0.22075   0.00000  Uiso   1.00
C202   C     0.89365   0.91660   0.08029   0.00000  Uiso   1.00
C203   C     0.95416   0.88508   0.09126   0.00000  Uiso   1.00
C204   C     0.97208   0.78436   0.06981   0.00000  Uiso   1.00
C205   C     0.83989   0.07605   0.04277   0.00000  Uiso   1.00
C206   C     0.85522   0.17859   0.02217   0.00000  Uiso   1.00
C207   C     0.82790   0.21210   0.96912   0.00000  Uiso   1.00
H208   H     0.75655   0.84851   0.01776   0.00000  Uiso   1.00
H209   H     0.68018   0.83820   0.10691   0.00000  Uiso   1.00
H210   H     0.83845   0.69759   0.00334   0.00000  Uiso   1.00
H211   H     0.73953   0.99105   0.93427   0.00000  Uiso   1.00
H212   H     0.61368   0.85616   0.21954   0.00000  Uiso   1.00
H213   H     0.94741   0.55968   0.00116   0.00000  Uiso   1.00
H214   H     0.73881   0.17850   0.85550   0.00000  Uiso   1.00
H215   H     0.89642   0.07522   0.12404   0.00000  Uiso   1.00
H216   H     0.82773   0.07735   0.21902   0.00000  Uiso   1.00
H217   H     0.98600   0.93673   0.11546   0.00000  Uiso   1.00
H218   H     0.88708   0.23019   0.04638   0.00000  Uiso   1.00
H219   H     0.73343   0.05026   0.31054   0.00000  Uiso   1.00
H220   H     0.06717   0.75377   0.09215   0.00000  Uiso   1.00
H221   H     0.85857   0.37260   0.94650   0.00000  Uiso   1.00
O222   O     0.62585   0.95049   0.32561   0.00000  Uiso   1.00
O223   O     0.06370   0.56153   0.03908   0.00000  Uiso   1.00
O224   O     0.79002   0.37341   0.84799   0.00000  Uiso   1.00
N225   N     0.65129   0.90157   0.22792   0.00000  Uiso   1.00
N226   N     0.96330   0.62436   0.02375   0.00000  Uiso   1.00
N227   N     0.76829   0.20290   0.88756   0.00000  Uiso   1.00
N228   N     0.71572   0.00601   0.27688   0.00000  Uiso   1.00
N229   N     0.02774   0.72881   0.07271   0.00000  Uiso   1.00
N230   N     0.83273   0.30735   0.93653   0.00000  Uiso   1.00
C231   C     0.71141   0.09954   0.54211   0.00000  Uiso   1.00
C232   C     0.73351   0.07370   0.60528   0.00000  Uiso   1.00
C233   C     0.78798   0.11016   0.63112   0.00000  Uiso   1.00
C234   C     0.79985   0.07751   0.68942   0.00000  Uiso   1.00
C235   C     0.84041   0.04758   0.78276   0.00000  Uiso   1.00
C236   C     0.64751   0.15011   0.54902   0.00000  Uiso   1.00
C237   C     0.62968   0.25081   0.52755   0.00000  Uiso   1.00
C238   C     0.56916   0.28247   0.53848   0.00000  Uiso   1.00
C239   C     0.47620   0.37113   0.54443   0.00000  Uiso   1.00
C240   C     0.70127   0.99066   0.51149   0.00000  Uiso   1.00
C241   C     0.72862   0.95730   0.45846   0.00000  Uiso   1.00
C242   C     0.71334   0.85473   0.43779   0.00000  Uiso   1.00
C243   C     0.70384   0.69582   0.38548   0.00000  Uiso   1.00
C244   C     0.63562   0.97672   0.59969   0.00000  Uiso   1.00
C245   C     0.69234   0.00699   0.63656   0.00000  Uiso   1.00
C246   C     0.70413   0.97427   0.69483   0.00000  Uiso   1.00
C247   C     0.75861   0.01068   0.72075   0.00000  Uiso   1.00
C248   C     0.60635   0.08340   0.58029   0.00000  Uiso   1.00
C249   C     0.54584   0.11492   0.59126   0.00000  Uiso   1.00
C250   C     0.52792   0.21564   0.56981   0.00000  Uiso   1.00
C251   C     0.66011   0.92395   0.54277   0.00000  Uiso   1.00
C252   C     0.64478   0.82141   0.52217   0.00000  Uiso   1.00
C253   C     0.67210   0.78790   0.46912   0.00000  Uiso   1.00
H254   H     0.74345   0.15149   0.51776   0.00000  Uiso   1.00
H255   H     0.81982   0.16180   0.60691   0.00000  Uiso   1.00
H256   H     0.66155   0.30241   0.50334   0.00000  Uiso   1.00
H257   H     0.76047   0.00895   0.43427   0.00000  Uiso   1.00
H258   H     0.88632   0.14384   0.71954   0.00000  Uiso   1.00
H259   H     0.55259   0.44032   0.50116   0.00000  Uiso   1.00
H260   H     0.76119   0.82150   0.35550   0.00000  Uiso   1.00
H261   H     0.60358   0.92478   0.62404   0.00000  Uiso   1.00
H262   H     0.67227   0.92265   0.71902   0.00000  Uiso   1.00
H263   H     0.51400   0.06327   0.61546   0.00000  Uiso   1.00
H264   H     0.61292   0.76981   0.54638   0.00000  Uiso   1.00
H265   H     0.76657   0.94974   0.81054   0.00000  Uiso   1.00
H266   H     0.43283   0.24623   0.59215   0.00000  Uiso   1.00
H267   H     0.64143   0.62740   0.44650   0.00000  Uiso   1.00
O268   O     0.87415   0.04951   0.82561   0.00000  Uiso   1.00
O269   O     0.43630   0.43847   0.53908   0.00000  Uiso   1.00
O270   O     0.70998   0.62659   0.34799   0.00000  Uiso   1.00
N271   N     0.84871   0.09843   0.72792   0.00000  Uiso   1.00
N272   N     0.53670   0.37564   0.52375   0.00000  Uiso   1.00
N273   N     0.73171   0.79710   0.38756   0.00000  Uiso   1.00
N274   N     0.78428   0.99399   0.77688   0.00000  Uiso   1.00
N275   N     0.47226   0.27119   0.57271   0.00000  Uiso   1.00
N276   N     0.66727   0.69265   0.43653   0.00000  Uiso   1.00
C277   C     0.21141   0.40046   0.45789   0.00000  Uiso   1.00
C278   C     0.23351   0.42630   0.39472   0.00000  Uiso   1.00
C279   C     0.28798   0.38984   0.36888   0.00000  Uiso   1.00
C280   C     0.29985   0.42249   0.31058   0.00000  Uiso   1.00
C281   C     0.34041   0.45242   0.21724   0.00000  Uiso   1.00
C282   C     0.14751   0.34989   0.45098   0.00000  Uiso   1.00
C283   C     0.12968   0.24919   0.47245   0.00000  Uiso   1.00
C284   C     0.06916   0.21753   0.46152   0.00000  Uiso   1.00
C285   C     0.97620   0.12887   0.45557   0.00000  Uiso   1.00
C286   C     0.20127   0.50934   0.48851   0.00000  Uiso   1.00
C287   C     0.22862   0.54270   0.54154   0.00000  Uiso   1.00
C288   C     0.21334   0.64527   0.56221   0.00000  Uiso   1.00
C289   C     0.20384   0.80418   0.61452   0.00000  Uiso   1.00
C290   C     0.13562   0.52328   0.40031   0.00000  Uiso   1.00
C291   C     0.19234   0.49301   0.36344   0.00000  Uiso   1.00
C292   C     0.20413   0.52573   0.30517   0.00000  Uiso   1.00
C293   C     0.25861   0.48932   0.27925   0.00000  Uiso   1.00
C294   C     0.10635   0.41660   0.41971   0.00000  Uiso   1.00
C295   C     0.04584   0.38508   0.40874   0.00000  Uiso   1.00
C296   C     0.02792   0.28436   0.43019   0.00000  Uiso   1.00
C297   C     0.16011   0.57605   0.45723   0.00000  Uiso   1.00
C298   C     0.14478   0.67859   0.47783   0.00000  Uiso   1.00
C299   C     0.17210   0.71210   0.53088   0.00000  Uiso   1.00
H300   H     0.24345   0.34851   0.48224   0.00000  Uiso   1.00
H301   H     0.31982   0.33820   0.39309   0.00000  Uiso   1.00
H302   H     0.16155   0.19759   0.49666   0.00000  Uiso   1.00
H303   H     0.26047   0.49105   0.56573   0.00000  Uiso   1.00
H304   H     0.38632   0.35616   0.28046   0.00000  Uiso   1.00
H305   H     0.05259   0.05968   0.49884   0.00000  Uiso   1.00
H306   H     0.26119   0.67850   0.64450   0.00000  Uiso   1.00
H307   H     0.10358   0.57522   0.37596   0.00000  Uiso   1.00
H308   H     0.17227   0.57735   0.28098   0.00000  Uiso   1.00
H309   H     0.01400   0.43673   0.38454   0.00000  Uiso   1.00
H310   H     0.11292   0.73019   0.45362   0.00000  Uiso   1.00
H311   H     0.26657   0.55026   0.18946   0.00000  Uiso   1.00
H312   H     0.93283   0.25377   0.40785   0.00000  Uiso   1.00
H313   H     0.14143   0.87260   0.55350   0.00000  Uiso   1.00
O314   O     0.37415   0.45049   0.17439   0.00000  Uiso   1.00
O315   O     0.93630   0.06153   0.46092   0.00000  Uiso   1.00
O316   O     0.20998   0.87341   0.65201   0.00000  Uiso   1.00
N317   N     0.34871   0.40157   0.27208   0.00000  Uiso   1.00
N318   N     0.03670   0.12436   0.47625   0.00000  Uiso   1.00
N319   N     0.23171   0.70290   0.61244   0.00000  Uiso   1.00
N320   N     0.28428   0.50601   0.22312   0.00000  Uiso   1.00
N321   N     0.97226   0.22881   0.42729   0.00000  Uiso   1.00
N322   N     0.16727   0.80735   0.56347   0.00000  Uiso   1.00
C323   C     0.28859   0.59954   0.95789   0.00000  Uiso   1.00
C324   C     0.26649   0.57370   0.89472   0.00000  Uiso   1.00
C325   C     0.21202   0.61016   0.86888   0.00000  Uiso   1.00
C326   C     0.20015   0.57751   0.81058   0.00000  Uiso   1.00
C327   C     0.15959   0.54758   0.71724   0.00000  Uiso   1.00
C328   C     0.35249   0.65011   0.95098   0.00000  Uiso   1.00
C329   C     0.37032   0.75081   0.97245   0.00000  Uiso   1.00
C330   C     0.43084   0.78247   0.96152   0.00000  Uiso   1.00
C331   C     0.52380   0.87113   0.95557   0.00000  Uiso   1.00
C332   C     0.29873   0.49066   0.98851   0.00000  Uiso   1.00
C333   C     0.27138   0.45730   0.04154   0.00000  Uiso   1.00
C334   C     0.28666   0.35473   0.06221   0.00000  Uiso   1.00
C335   C     0.29616   0.19582   0.11452   0.00000  Uiso   1.00
C336   C     0.36438   0.47672   0.90031   0.00000  Uiso   1.00
C337   C     0.30766   0.50699   0.86344   0.00000  Uiso   1.00
C338   C     0.29587   0.47427   0.80517   0.00000  Uiso   1.00
C339   C     0.24139   0.51068   0.77925   0.00000  Uiso   1.00
C340   C     0.39365   0.58340   0.91971   0.00000  Uiso   1.00
C341   C     0.45416   0.61492   0.90874   0.00000  Uiso   1.00
C342   C     0.47208   0.71564   0.93019   0.00000  Uiso   1.00
C343   C     0.33989   0.42395   0.95723   0.00000  Uiso   1.00
C344   C     0.35522   0.32141   0.97783   0.00000  Uiso   1.00
C345   C     0.32790   0.28790   0.03088   0.00000  Uiso   1.00
H346   H     0.25655   0.65149   0.98224   0.00000  Uiso   1.00
H347   H     0.18018   0.66180   0.89309   0.00000  Uiso   1.00
H348   H     0.33845   0.80241   0.99666   0.00000  Uiso   1.00
H349   H     0.23953   0.50895   0.06573   0.00000  Uiso   1.00
H350   H     0.11368   0.64384   0.78046   0.00000  Uiso   1.00
H351   H     0.44741   0.94032   0.99884   0.00000  Uiso   1.00
H352   H     0.23881   0.32150   0.14450   0.00000  Uiso   1.00
H353   H     0.39642   0.42478   0.87596   0.00000  Uiso   1.00
H354   H     0.32773   0.42265   0.78098   0.00000  Uiso   1.00
H355   H     0.48600   0.56327   0.88454   0.00000  Uiso   1.00
H356   H     0.38708   0.26981   0.95362   0.00000  Uiso   1.00
H357   H     0.23343   0.44974   0.68946   0.00000  Uiso   1.00
H358   H     0.56717   0.74623   0.90785   0.00000  Uiso   1.00
H359   H     0.35857   0.12740   0.05350   0.00000  Uiso   1.00
O360   O     0.12585   0.54951   0.67439   0.00000  Uiso   1.00
O361   O     0.56370   0.93847   0.96092   0.00000  Uiso   1.00
O362   O     0.29002   0.12659   0.15201   0.00000  Uiso   1.00
N363   N     0.15129   0.59843   0.77208   0.00000  Uiso   1.00
N364   N     0.46330   0.87564   0.97625   0.00000  Uiso   1.00
N365   N     0.26829   0.29710   0.11244   0.00000  Uiso   1.00
N366   N     0.21572   0.49399   0.72312   0.00000  Uiso   1.00
N367   N     0.52774   0.77119   0.92729   0.00000  Uiso   1.00
N368   N     0.33273   0.19265   0.06347   0.00000  Uiso   1.00
