data_job_05399
_audit_creation_date              2018-12-19
_audit_creation_method            'Materials Studio'
_symmetry_space_group_name_H-M    'P1'
_symmetry_Int_Tables_number       1
_symmetry_cell_setting            triclinic
loop_
_symmetry_equiv_pos_as_xyz
  x,y,z
_cell_length_a                    21.2204
_cell_length_b                    21.2204
_cell_length_c                    12.5243
_cell_angle_alpha                 90.0000
_cell_angle_beta                  90.0000
_cell_angle_gamma                 90.0000
loop_
_atom_site_label
_atom_site_type_symbol
_atom_site_fract_x
_atom_site_fract_y
_atom_site_fract_z
_atom_site_U_iso_or_equiv
_atom_site_adp_type
_atom_site_occupancy
C1     C     0.92088   0.70281   0.10326   0.00000  Uiso   1.00
C2     C     0.87849   0.67228   0.01963   0.00000  Uiso   1.00
C3     C     0.89837   0.64639   0.92362   0.00000  Uiso   1.00
C4     C     0.85228   0.62075   0.85803   0.00000  Uiso   1.00
C5     C     0.79615   0.57333   0.72368   0.00000  Uiso   1.00
C6     C     0.89511   0.76914   0.12020   0.00000  Uiso   1.00
C7     C     0.92897   0.82469   0.10874   0.00000  Uiso   1.00
C8     C     0.89687   0.88058   0.12782   0.00000  Uiso   1.00
C9     C     0.86656   0.98355   0.14967   0.00000  Uiso   1.00
C10    C     0.90871   0.66734   0.20712   0.00000  Uiso   1.00
C11    C     0.95400   0.63731   0.26878   0.00000  Uiso   1.00
C12    C     0.93334   0.60750   0.36106   0.00000  Uiso   1.00
C13    C     0.92413   0.55240   0.51787   0.00000  Uiso   1.00
C14    C     0.80368   0.70330   0.15752   0.00000  Uiso   1.00
C15    C     0.81483   0.67255   0.04911   0.00000  Uiso   1.00
C16    C     0.76870   0.64694   0.98365   0.00000  Uiso   1.00
C17    C     0.78851   0.62101   0.88755   0.00000  Uiso   1.00
C18    C     0.83146   0.76941   0.14967   0.00000  Uiso   1.00
C19    C     0.79930   0.82523   0.16877   0.00000  Uiso   1.00
C20    C     0.83310   0.88085   0.15735   0.00000  Uiso   1.00
C21    C     0.84505   0.66761   0.23659   0.00000  Uiso   1.00
C22    C     0.82432   0.63785   0.32880   0.00000  Uiso   1.00
C23    C     0.86957   0.60777   0.39058   0.00000  Uiso   1.00
H24    H     0.97044   0.70261   0.08031   0.00000  Uiso   1.00
H25    H     0.94764   0.64620   0.90083   0.00000  Uiso   1.00
H26    H     0.97824   0.82447   0.08595   0.00000  Uiso   1.00
H27    H     0.00325   0.63711   0.24594   0.00000  Uiso   1.00
H28    H     0.89429   0.58380   0.71483   0.00000  Uiso   1.00
H29    H     0.95880   0.95969   0.10518   0.00000  Uiso   1.00
H30    H     0.01156   0.56461   0.44257   0.00000  Uiso   1.00
H31    H     0.75411   0.70351   0.18046   0.00000  Uiso   1.00
H32    H     0.71944   0.64715   0.00648   0.00000  Uiso   1.00
H33    H     0.75004   0.82542   0.19159   0.00000  Uiso   1.00
H34    H     0.77505   0.63806   0.35158   0.00000  Uiso   1.00
H35    H     0.70907   0.58458   0.80057   0.00000  Uiso   1.00
H36    H     0.77359   0.96047   0.19092   0.00000  Uiso   1.00
H37    H     0.82634   0.56539   0.52831   0.00000  Uiso   1.00
O38    O     0.78277   0.54712   0.64142   0.00000  Uiso   1.00
O39    O     0.86742   0.04027   0.15356   0.00000  Uiso   1.00
O40    O     0.93664   0.52193   0.59621   0.00000  Uiso   1.00
N41    N     0.85546   0.59171   0.75889   0.00000  Uiso   1.00
N42    N     0.91577   0.94314   0.12383   0.00000  Uiso   1.00
N43    N     0.96510   0.57379   0.43928   0.00000  Uiso   1.00
N44    N     0.75579   0.59212   0.80503   0.00000  Uiso   1.00
N45    N     0.81611   0.94356   0.16997   0.00000  Uiso   1.00
N46    N     0.86544   0.57421   0.48542   0.00000  Uiso   1.00
C47    C     0.07912   0.29719   0.60326   0.00000  Uiso   1.00
C48    C     0.12151   0.32772   0.51963   0.00000  Uiso   1.00
C49    C     0.10163   0.35361   0.42362   0.00000  Uiso   1.00
C50    C     0.14772   0.37925   0.35803   0.00000  Uiso   1.00
C51    C     0.20385   0.42667   0.22368   0.00000  Uiso   1.00
C52    C     0.10489   0.23086   0.62020   0.00000  Uiso   1.00
C53    C     0.07103   0.17531   0.60874   0.00000  Uiso   1.00
C54    C     0.10313   0.11942   0.62782   0.00000  Uiso   1.00
C55    C     0.13344   0.01645   0.64967   0.00000  Uiso   1.00
C56    C     0.09129   0.33266   0.70712   0.00000  Uiso   1.00
C57    C     0.04600   0.36269   0.76878   0.00000  Uiso   1.00
C58    C     0.06666   0.39250   0.86106   0.00000  Uiso   1.00
C59    C     0.07587   0.44760   0.01787   0.00000  Uiso   1.00
C60    C     0.19632   0.29670   0.65752   0.00000  Uiso   1.00
C61    C     0.18517   0.32745   0.54911   0.00000  Uiso   1.00
C62    C     0.23130   0.35306   0.48365   0.00000  Uiso   1.00
C63    C     0.21149   0.37899   0.38755   0.00000  Uiso   1.00
C64    C     0.16854   0.23059   0.64967   0.00000  Uiso   1.00
C65    C     0.20070   0.17477   0.66877   0.00000  Uiso   1.00
C66    C     0.16690   0.11915   0.65735   0.00000  Uiso   1.00
C67    C     0.15495   0.33239   0.73659   0.00000  Uiso   1.00
C68    C     0.17568   0.36215   0.82880   0.00000  Uiso   1.00
C69    C     0.13043   0.39223   0.89058   0.00000  Uiso   1.00
H70    H     0.02956   0.29739   0.58031   0.00000  Uiso   1.00
H71    H     0.05236   0.35380   0.40083   0.00000  Uiso   1.00
H72    H     0.02176   0.17553   0.58595   0.00000  Uiso   1.00
H73    H     0.99675   0.36289   0.74594   0.00000  Uiso   1.00
H74    H     0.10571   0.41620   0.21483   0.00000  Uiso   1.00
H75    H     0.04120   0.04031   0.60518   0.00000  Uiso   1.00
H76    H     0.98844   0.43539   0.94257   0.00000  Uiso   1.00
H77    H     0.24589   0.29649   0.68046   0.00000  Uiso   1.00
H78    H     0.28056   0.35285   0.50648   0.00000  Uiso   1.00
H79    H     0.24996   0.17458   0.69159   0.00000  Uiso   1.00
H80    H     0.22495   0.36194   0.85158   0.00000  Uiso   1.00
H81    H     0.29093   0.41542   0.30057   0.00000  Uiso   1.00
H82    H     0.22641   0.03953   0.69092   0.00000  Uiso   1.00
H83    H     0.17366   0.43461   0.02831   0.00000  Uiso   1.00
O84    O     0.21723   0.45288   0.14142   0.00000  Uiso   1.00
O85    O     0.13258   0.95973   0.65356   0.00000  Uiso   1.00
O86    O     0.06336   0.47807   0.09621   0.00000  Uiso   1.00
N87    N     0.14454   0.40829   0.25889   0.00000  Uiso   1.00
N88    N     0.08423   0.05686   0.62383   0.00000  Uiso   1.00
N89    N     0.03490   0.42621   0.93928   0.00000  Uiso   1.00
N90    N     0.24421   0.40788   0.30503   0.00000  Uiso   1.00
N91    N     0.18389   0.05644   0.66997   0.00000  Uiso   1.00
N92    N     0.13456   0.42579   0.98542   0.00000  Uiso   1.00
C93    C     0.79719   0.42088   0.85326   0.00000  Uiso   1.00
C94    C     0.82772   0.37849   0.76963   0.00000  Uiso   1.00
C95    C     0.85361   0.39837   0.67362   0.00000  Uiso   1.00
C96    C     0.87925   0.35228   0.60803   0.00000  Uiso   1.00
C97    C     0.92667   0.29615   0.47368   0.00000  Uiso   1.00
C98    C     0.73086   0.39511   0.87020   0.00000  Uiso   1.00
C99    C     0.67531   0.42897   0.85874   0.00000  Uiso   1.00
C100   C     0.61942   0.39687   0.87782   0.00000  Uiso   1.00
C101   C     0.51645   0.36656   0.89967   0.00000  Uiso   1.00
C102   C     0.83266   0.40871   0.95712   0.00000  Uiso   1.00
C103   C     0.86269   0.45400   0.01878   0.00000  Uiso   1.00
C104   C     0.89250   0.43334   0.11106   0.00000  Uiso   1.00
C105   C     0.94760   0.42413   0.26787   0.00000  Uiso   1.00
C106   C     0.79670   0.30368   0.90752   0.00000  Uiso   1.00
C107   C     0.82745   0.31483   0.79911   0.00000  Uiso   1.00
C108   C     0.85306   0.26870   0.73365   0.00000  Uiso   1.00
C109   C     0.87899   0.28851   0.63755   0.00000  Uiso   1.00
C110   C     0.73059   0.33146   0.89967   0.00000  Uiso   1.00
C111   C     0.67477   0.29930   0.91877   0.00000  Uiso   1.00
C112   C     0.61915   0.33310   0.90735   0.00000  Uiso   1.00
C113   C     0.83239   0.34505   0.98659   0.00000  Uiso   1.00
C114   C     0.86215   0.32432   0.07880   0.00000  Uiso   1.00
C115   C     0.89223   0.36957   0.14058   0.00000  Uiso   1.00
H116   H     0.79739   0.47044   0.83031   0.00000  Uiso   1.00
H117   H     0.85380   0.44764   0.65083   0.00000  Uiso   1.00
H118   H     0.67553   0.47824   0.83595   0.00000  Uiso   1.00
H119   H     0.86289   0.50325   0.99594   0.00000  Uiso   1.00
H120   H     0.91620   0.39429   0.46483   0.00000  Uiso   1.00
H121   H     0.54031   0.45880   0.85518   0.00000  Uiso   1.00
H122   H     0.93539   0.51156   0.19257   0.00000  Uiso   1.00
H123   H     0.79649   0.25411   0.93046   0.00000  Uiso   1.00
H124   H     0.85285   0.21944   0.75648   0.00000  Uiso   1.00
H125   H     0.67458   0.25004   0.94159   0.00000  Uiso   1.00
H126   H     0.86194   0.27505   0.10158   0.00000  Uiso   1.00
H127   H     0.91542   0.20907   0.55057   0.00000  Uiso   1.00
H128   H     0.53953   0.27359   0.94092   0.00000  Uiso   1.00
H129   H     0.93461   0.32634   0.27831   0.00000  Uiso   1.00
O130   O     0.95288   0.28277   0.39142   0.00000  Uiso   1.00
O131   O     0.45973   0.36742   0.90356   0.00000  Uiso   1.00
O132   O     0.97807   0.43664   0.34621   0.00000  Uiso   1.00
N133   N     0.90829   0.35546   0.50889   0.00000  Uiso   1.00
N134   N     0.55686   0.41577   0.87383   0.00000  Uiso   1.00
N135   N     0.92621   0.46510   0.18928   0.00000  Uiso   1.00
N136   N     0.90788   0.25579   0.55503   0.00000  Uiso   1.00
N137   N     0.55644   0.31611   0.91997   0.00000  Uiso   1.00
N138   N     0.92579   0.36544   0.23542   0.00000  Uiso   1.00
C139   C     0.20281   0.57912   0.35326   0.00000  Uiso   1.00
C140   C     0.17228   0.62151   0.26963   0.00000  Uiso   1.00
C141   C     0.14639   0.60163   0.17362   0.00000  Uiso   1.00
C142   C     0.12075   0.64772   0.10803   0.00000  Uiso   1.00
C143   C     0.07333   0.70385   0.97368   0.00000  Uiso   1.00
C144   C     0.26914   0.60489   0.37020   0.00000  Uiso   1.00
C145   C     0.32469   0.57103   0.35874   0.00000  Uiso   1.00
C146   C     0.38058   0.60313   0.37782   0.00000  Uiso   1.00
C147   C     0.48355   0.63344   0.39967   0.00000  Uiso   1.00
C148   C     0.16734   0.59129   0.45712   0.00000  Uiso   1.00
C149   C     0.13731   0.54600   0.51878   0.00000  Uiso   1.00
C150   C     0.10750   0.56666   0.61106   0.00000  Uiso   1.00
C151   C     0.05240   0.57587   0.76787   0.00000  Uiso   1.00
C152   C     0.20330   0.69632   0.40752   0.00000  Uiso   1.00
C153   C     0.17255   0.68517   0.29911   0.00000  Uiso   1.00
C154   C     0.14694   0.73130   0.23365   0.00000  Uiso   1.00
C155   C     0.12101   0.71149   0.13755   0.00000  Uiso   1.00
C156   C     0.26941   0.66854   0.39967   0.00000  Uiso   1.00
C157   C     0.32523   0.70070   0.41877   0.00000  Uiso   1.00
C158   C     0.38085   0.66690   0.40735   0.00000  Uiso   1.00
C159   C     0.16761   0.65495   0.48659   0.00000  Uiso   1.00
C160   C     0.13785   0.67568   0.57880   0.00000  Uiso   1.00
C161   C     0.10777   0.63043   0.64058   0.00000  Uiso   1.00
H162   H     0.20261   0.52956   0.33031   0.00000  Uiso   1.00
H163   H     0.14620   0.55236   0.15083   0.00000  Uiso   1.00
H164   H     0.32447   0.52176   0.33595   0.00000  Uiso   1.00
H165   H     0.13711   0.49675   0.49594   0.00000  Uiso   1.00
H166   H     0.08380   0.60571   0.96483   0.00000  Uiso   1.00
H167   H     0.45969   0.54120   0.35518   0.00000  Uiso   1.00
H168   H     0.06461   0.48844   0.69257   0.00000  Uiso   1.00
H169   H     0.20351   0.74589   0.43046   0.00000  Uiso   1.00
H170   H     0.14715   0.78056   0.25648   0.00000  Uiso   1.00
H171   H     0.32542   0.74996   0.44159   0.00000  Uiso   1.00
H172   H     0.13806   0.72495   0.60158   0.00000  Uiso   1.00
H173   H     0.08458   0.79093   0.05057   0.00000  Uiso   1.00
H174   H     0.46047   0.72641   0.44092   0.00000  Uiso   1.00
H175   H     0.06539   0.67366   0.77831   0.00000  Uiso   1.00
O176   O     0.04712   0.71723   0.89142   0.00000  Uiso   1.00
O177   O     0.54027   0.63258   0.40356   0.00000  Uiso   1.00
O178   O     0.02193   0.56336   0.84621   0.00000  Uiso   1.00
N179   N     0.09171   0.64454   0.00889   0.00000  Uiso   1.00
N180   N     0.44314   0.58423   0.37383   0.00000  Uiso   1.00
N181   N     0.07379   0.53490   0.68928   0.00000  Uiso   1.00
N182   N     0.09212   0.74421   0.05503   0.00000  Uiso   1.00
N183   N     0.44356   0.68389   0.41997   0.00000  Uiso   1.00
N184   N     0.07421   0.63456   0.73542   0.00000  Uiso   1.00
C185   C     0.57912   0.20281   0.64674   0.00000  Uiso   1.00
C186   C     0.62151   0.17228   0.73037   0.00000  Uiso   1.00
C187   C     0.60163   0.14639   0.82638   0.00000  Uiso   1.00
C188   C     0.64772   0.12075   0.89197   0.00000  Uiso   1.00
C189   C     0.70385   0.07333   0.02632   0.00000  Uiso   1.00
C190   C     0.60489   0.26914   0.62980   0.00000  Uiso   1.00
C191   C     0.57103   0.32469   0.64126   0.00000  Uiso   1.00
C192   C     0.60313   0.38058   0.62218   0.00000  Uiso   1.00
C193   C     0.63344   0.48355   0.60033   0.00000  Uiso   1.00
C194   C     0.59129   0.16734   0.54288   0.00000  Uiso   1.00
C195   C     0.54600   0.13731   0.48122   0.00000  Uiso   1.00
C196   C     0.56666   0.10750   0.38894   0.00000  Uiso   1.00
C197   C     0.57587   0.05240   0.23213   0.00000  Uiso   1.00
C198   C     0.69632   0.20330   0.59248   0.00000  Uiso   1.00
C199   C     0.68517   0.17255   0.70089   0.00000  Uiso   1.00
C200   C     0.73130   0.14694   0.76635   0.00000  Uiso   1.00
C201   C     0.71149   0.12101   0.86245   0.00000  Uiso   1.00
C202   C     0.66854   0.26941   0.60033   0.00000  Uiso   1.00
C203   C     0.70070   0.32523   0.58123   0.00000  Uiso   1.00
C204   C     0.66690   0.38085   0.59265   0.00000  Uiso   1.00
C205   C     0.65495   0.16761   0.51341   0.00000  Uiso   1.00
C206   C     0.67568   0.13785   0.42120   0.00000  Uiso   1.00
C207   C     0.63043   0.10777   0.35942   0.00000  Uiso   1.00
H208   H     0.52956   0.20261   0.66969   0.00000  Uiso   1.00
H209   H     0.55236   0.14620   0.84917   0.00000  Uiso   1.00
H210   H     0.52176   0.32447   0.66405   0.00000  Uiso   1.00
H211   H     0.49675   0.13711   0.50406   0.00000  Uiso   1.00
H212   H     0.60571   0.08380   0.03517   0.00000  Uiso   1.00
H213   H     0.54120   0.45969   0.64482   0.00000  Uiso   1.00
H214   H     0.48844   0.06461   0.30743   0.00000  Uiso   1.00
H215   H     0.74589   0.20351   0.56954   0.00000  Uiso   1.00
H216   H     0.78056   0.14715   0.74352   0.00000  Uiso   1.00
H217   H     0.74996   0.32542   0.55841   0.00000  Uiso   1.00
H218   H     0.72495   0.13806   0.39842   0.00000  Uiso   1.00
H219   H     0.79093   0.08458   0.94943   0.00000  Uiso   1.00
H220   H     0.72641   0.46047   0.55908   0.00000  Uiso   1.00
H221   H     0.67366   0.06539   0.22169   0.00000  Uiso   1.00
O222   O     0.71723   0.04712   0.10858   0.00000  Uiso   1.00
O223   O     0.63258   0.54027   0.59644   0.00000  Uiso   1.00
O224   O     0.56336   0.02193   0.15379   0.00000  Uiso   1.00
N225   N     0.64454   0.09171   0.99111   0.00000  Uiso   1.00
N226   N     0.58423   0.44314   0.62617   0.00000  Uiso   1.00
N227   N     0.53490   0.07379   0.31072   0.00000  Uiso   1.00
N228   N     0.74421   0.09212   0.94497   0.00000  Uiso   1.00
N229   N     0.68389   0.44356   0.58003   0.00000  Uiso   1.00
N230   N     0.63456   0.07421   0.26458   0.00000  Uiso   1.00
C231   C     0.42088   0.79719   0.14674   0.00000  Uiso   1.00
C232   C     0.37849   0.82772   0.23037   0.00000  Uiso   1.00
C233   C     0.39837   0.85361   0.32638   0.00000  Uiso   1.00
C234   C     0.35228   0.87925   0.39197   0.00000  Uiso   1.00
C235   C     0.29615   0.92667   0.52632   0.00000  Uiso   1.00
C236   C     0.39511   0.73086   0.12980   0.00000  Uiso   1.00
C237   C     0.42897   0.67531   0.14126   0.00000  Uiso   1.00
C238   C     0.39687   0.61942   0.12218   0.00000  Uiso   1.00
C239   C     0.36656   0.51645   0.10033   0.00000  Uiso   1.00
C240   C     0.40871   0.83266   0.04288   0.00000  Uiso   1.00
C241   C     0.45400   0.86269   0.98122   0.00000  Uiso   1.00
C242   C     0.43334   0.89250   0.88894   0.00000  Uiso   1.00
C243   C     0.42413   0.94760   0.73213   0.00000  Uiso   1.00
C244   C     0.30368   0.79670   0.09248   0.00000  Uiso   1.00
C245   C     0.31483   0.82745   0.20089   0.00000  Uiso   1.00
C246   C     0.26870   0.85306   0.26635   0.00000  Uiso   1.00
C247   C     0.28851   0.87899   0.36245   0.00000  Uiso   1.00
C248   C     0.33146   0.73059   0.10033   0.00000  Uiso   1.00
C249   C     0.29930   0.67477   0.08123   0.00000  Uiso   1.00
C250   C     0.33310   0.61915   0.09265   0.00000  Uiso   1.00
C251   C     0.34505   0.83239   0.01341   0.00000  Uiso   1.00
C252   C     0.32432   0.86215   0.92120   0.00000  Uiso   1.00
C253   C     0.36957   0.89223   0.85942   0.00000  Uiso   1.00
H254   H     0.47044   0.79739   0.16969   0.00000  Uiso   1.00
H255   H     0.44764   0.85380   0.34917   0.00000  Uiso   1.00
H256   H     0.47824   0.67553   0.16405   0.00000  Uiso   1.00
H257   H     0.50325   0.86289   0.00406   0.00000  Uiso   1.00
H258   H     0.39429   0.91620   0.53517   0.00000  Uiso   1.00
H259   H     0.45880   0.54031   0.14482   0.00000  Uiso   1.00
H260   H     0.51156   0.93539   0.80743   0.00000  Uiso   1.00
H261   H     0.25411   0.79649   0.06954   0.00000  Uiso   1.00
H262   H     0.21944   0.85285   0.24352   0.00000  Uiso   1.00
H263   H     0.25004   0.67458   0.05841   0.00000  Uiso   1.00
H264   H     0.27505   0.86194   0.89842   0.00000  Uiso   1.00
H265   H     0.20907   0.91542   0.44943   0.00000  Uiso   1.00
H266   H     0.27359   0.53953   0.05908   0.00000  Uiso   1.00
H267   H     0.32634   0.93461   0.72169   0.00000  Uiso   1.00
O268   O     0.28277   0.95288   0.60858   0.00000  Uiso   1.00
O269   O     0.36742   0.45973   0.09644   0.00000  Uiso   1.00
O270   O     0.43664   0.97807   0.65379   0.00000  Uiso   1.00
N271   N     0.35546   0.90829   0.49111   0.00000  Uiso   1.00
N272   N     0.41577   0.55686   0.12617   0.00000  Uiso   1.00
N273   N     0.46510   0.92621   0.81072   0.00000  Uiso   1.00
N274   N     0.25579   0.90788   0.44497   0.00000  Uiso   1.00
N275   N     0.31611   0.55644   0.08003   0.00000  Uiso   1.00
N276   N     0.36544   0.92579   0.76458   0.00000  Uiso   1.00
C277   C     0.70281   0.92088   0.89674   0.00000  Uiso   1.00
C278   C     0.67228   0.87849   0.98037   0.00000  Uiso   1.00
C279   C     0.64639   0.89837   0.07638   0.00000  Uiso   1.00
C280   C     0.62075   0.85228   0.14197   0.00000  Uiso   1.00
C281   C     0.57333   0.79615   0.27632   0.00000  Uiso   1.00
C282   C     0.76914   0.89511   0.87980   0.00000  Uiso   1.00
C283   C     0.82469   0.92897   0.89126   0.00000  Uiso   1.00
C284   C     0.88058   0.89687   0.87218   0.00000  Uiso   1.00
C285   C     0.98355   0.86656   0.85033   0.00000  Uiso   1.00
C286   C     0.66734   0.90871   0.79288   0.00000  Uiso   1.00
C287   C     0.63731   0.95400   0.73122   0.00000  Uiso   1.00
C288   C     0.60750   0.93334   0.63894   0.00000  Uiso   1.00
C289   C     0.55240   0.92413   0.48213   0.00000  Uiso   1.00
C290   C     0.70330   0.80368   0.84248   0.00000  Uiso   1.00
C291   C     0.67255   0.81483   0.95089   0.00000  Uiso   1.00
C292   C     0.64694   0.76870   0.01635   0.00000  Uiso   1.00
C293   C     0.62101   0.78851   0.11245   0.00000  Uiso   1.00
C294   C     0.76941   0.83146   0.85033   0.00000  Uiso   1.00
C295   C     0.82523   0.79930   0.83123   0.00000  Uiso   1.00
C296   C     0.88085   0.83310   0.84265   0.00000  Uiso   1.00
C297   C     0.66761   0.84505   0.76341   0.00000  Uiso   1.00
C298   C     0.63785   0.82432   0.67120   0.00000  Uiso   1.00
C299   C     0.60777   0.86957   0.60942   0.00000  Uiso   1.00
H300   H     0.70261   0.97044   0.91969   0.00000  Uiso   1.00
H301   H     0.64620   0.94764   0.09917   0.00000  Uiso   1.00
H302   H     0.82447   0.97824   0.91405   0.00000  Uiso   1.00
H303   H     0.63711   0.00325   0.75406   0.00000  Uiso   1.00
H304   H     0.58380   0.89429   0.28517   0.00000  Uiso   1.00
H305   H     0.95969   0.95880   0.89482   0.00000  Uiso   1.00
H306   H     0.56461   0.01156   0.55743   0.00000  Uiso   1.00
H307   H     0.70351   0.75411   0.81954   0.00000  Uiso   1.00
H308   H     0.64715   0.71944   0.99352   0.00000  Uiso   1.00
H309   H     0.82542   0.75004   0.80841   0.00000  Uiso   1.00
H310   H     0.63806   0.77505   0.64842   0.00000  Uiso   1.00
H311   H     0.58458   0.70907   0.19943   0.00000  Uiso   1.00
H312   H     0.96047   0.77359   0.80908   0.00000  Uiso   1.00
H313   H     0.56539   0.82634   0.47169   0.00000  Uiso   1.00
O314   O     0.54712   0.78277   0.35858   0.00000  Uiso   1.00
O315   O     0.04027   0.86742   0.84644   0.00000  Uiso   1.00
O316   O     0.52193   0.93664   0.40379   0.00000  Uiso   1.00
N317   N     0.59171   0.85546   0.24111   0.00000  Uiso   1.00
N318   N     0.94314   0.91577   0.87617   0.00000  Uiso   1.00
N319   N     0.57379   0.96510   0.56072   0.00000  Uiso   1.00
N320   N     0.59212   0.75579   0.19497   0.00000  Uiso   1.00
N321   N     0.94356   0.81611   0.83003   0.00000  Uiso   1.00
N322   N     0.57421   0.86544   0.51458   0.00000  Uiso   1.00
C323   C     0.29719   0.07912   0.39674   0.00000  Uiso   1.00
C324   C     0.32772   0.12151   0.48037   0.00000  Uiso   1.00
C325   C     0.35361   0.10163   0.57638   0.00000  Uiso   1.00
C326   C     0.37925   0.14772   0.64197   0.00000  Uiso   1.00
C327   C     0.42667   0.20385   0.77632   0.00000  Uiso   1.00
C328   C     0.23086   0.10489   0.37980   0.00000  Uiso   1.00
C329   C     0.17531   0.07103   0.39126   0.00000  Uiso   1.00
C330   C     0.11942   0.10313   0.37218   0.00000  Uiso   1.00
C331   C     0.01645   0.13344   0.35033   0.00000  Uiso   1.00
C332   C     0.33266   0.09129   0.29288   0.00000  Uiso   1.00
C333   C     0.36269   0.04600   0.23122   0.00000  Uiso   1.00
C334   C     0.39250   0.06666   0.13894   0.00000  Uiso   1.00
C335   C     0.44760   0.07587   0.98213   0.00000  Uiso   1.00
C336   C     0.29670   0.19632   0.34248   0.00000  Uiso   1.00
C337   C     0.32745   0.18517   0.45089   0.00000  Uiso   1.00
C338   C     0.35306   0.23130   0.51635   0.00000  Uiso   1.00
C339   C     0.37899   0.21149   0.61245   0.00000  Uiso   1.00
C340   C     0.23059   0.16854   0.35033   0.00000  Uiso   1.00
C341   C     0.17477   0.20070   0.33123   0.00000  Uiso   1.00
C342   C     0.11915   0.16690   0.34265   0.00000  Uiso   1.00
C343   C     0.33239   0.15495   0.26341   0.00000  Uiso   1.00
C344   C     0.36215   0.17568   0.17120   0.00000  Uiso   1.00
C345   C     0.39223   0.13043   0.10942   0.00000  Uiso   1.00
H346   H     0.29739   0.02956   0.41969   0.00000  Uiso   1.00
H347   H     0.35380   0.05236   0.59917   0.00000  Uiso   1.00
H348   H     0.17553   0.02176   0.41405   0.00000  Uiso   1.00
H349   H     0.36289   0.99675   0.25406   0.00000  Uiso   1.00
H350   H     0.41620   0.10571   0.78517   0.00000  Uiso   1.00
H351   H     0.04031   0.04120   0.39482   0.00000  Uiso   1.00
H352   H     0.43539   0.98844   0.05743   0.00000  Uiso   1.00
H353   H     0.29649   0.24589   0.31954   0.00000  Uiso   1.00
H354   H     0.35285   0.28056   0.49352   0.00000  Uiso   1.00
H355   H     0.17458   0.24996   0.30841   0.00000  Uiso   1.00
H356   H     0.36194   0.22495   0.14842   0.00000  Uiso   1.00
H357   H     0.41542   0.29093   0.69943   0.00000  Uiso   1.00
H358   H     0.03953   0.22641   0.30908   0.00000  Uiso   1.00
H359   H     0.43461   0.17366   0.97169   0.00000  Uiso   1.00
O360   O     0.45288   0.21723   0.85858   0.00000  Uiso   1.00
O361   O     0.95973   0.13258   0.34644   0.00000  Uiso   1.00
O362   O     0.47807   0.06336   0.90379   0.00000  Uiso   1.00
N363   N     0.40829   0.14454   0.74111   0.00000  Uiso   1.00
N364   N     0.05686   0.08423   0.37617   0.00000  Uiso   1.00
N365   N     0.42621   0.03490   0.06072   0.00000  Uiso   1.00
N366   N     0.40788   0.24421   0.69497   0.00000  Uiso   1.00
N367   N     0.05644   0.18389   0.33003   0.00000  Uiso   1.00
N368   N     0.42579   0.13456   0.01458   0.00000  Uiso   1.00
