data_job_02402
_audit_creation_date              2018-12-19
_audit_creation_method            'Materials Studio'
_symmetry_space_group_name_H-M    'P1'
_symmetry_Int_Tables_number       1
_symmetry_cell_setting            triclinic
loop_
_symmetry_equiv_pos_as_xyz
  x,y,z
_cell_length_a                    20.6924
_cell_length_b                    20.6924
_cell_length_c                    11.9766
_cell_angle_alpha                 90.0000
_cell_angle_beta                  90.0000
_cell_angle_gamma                 90.0000
loop_
_atom_site_label
_atom_site_type_symbol
_atom_site_fract_x
_atom_site_fract_y
_atom_site_fract_z
_atom_site_U_iso_or_equiv
_atom_site_adp_type
_atom_site_occupancy
C1     C     0.82996   0.21598   0.64035   0.00000  Uiso   1.00
C2     C     0.79025   0.17548   0.55907   0.00000  Uiso   1.00
C3     C     0.72610   0.15768   0.57310   0.00000  Uiso   1.00
C4     C     0.69842   0.12055   0.48922   0.00000  Uiso   1.00
C5     C     0.63138   0.06052   0.37736   0.00000  Uiso   1.00
C6     C     0.85495   0.27349   0.57346   0.00000  Uiso   1.00
C7     C     0.84520   0.33810   0.59960   0.00000  Uiso   1.00
C8     C     0.87200   0.38348   0.52783   0.00000  Uiso   1.00
C9     C     0.90544   0.47562   0.43835   0.00000  Uiso   1.00
C10    C     0.88919   0.17546   0.66933   0.00000  Uiso   1.00
C11    C     0.90825   0.15767   0.77610   0.00000  Uiso   1.00
C12    C     0.96389   0.12052   0.78505   0.00000  Uiso   1.00
C13    C     0.05050   0.06046   0.84443   0.00000  Uiso   1.00
C14    C     0.89489   0.18168   0.46643   0.00000  Uiso   1.00
C15    C     0.82551   0.15685   0.46460   0.00000  Uiso   1.00
C16    C     0.79793   0.11973   0.38068   0.00000  Uiso   1.00
C17    C     0.73375   0.10188   0.39459   0.00000  Uiso   1.00
C18    C     0.89021   0.25486   0.47899   0.00000  Uiso   1.00
C19    C     0.91703   0.30015   0.40717   0.00000  Uiso   1.00
C20    C     0.90733   0.36481   0.43319   0.00000  Uiso   1.00
C21    C     0.92446   0.15683   0.57487   0.00000  Uiso   1.00
C22    C     0.98008   0.11971   0.58366   0.00000  Uiso   1.00
C23    C     0.99922   0.10186   0.69041   0.00000  Uiso   1.00
H24    H     0.80251   0.23049   0.71390   0.00000  Uiso   1.00
H25    H     0.69882   0.17211   0.64622   0.00000  Uiso   1.00
H26    H     0.81791   0.35250   0.67271   0.00000  Uiso   1.00
H27    H     0.88095   0.17209   0.84918   0.00000  Uiso   1.00
H28    H     0.59941   0.09920   0.52950   0.00000  Uiso   1.00
H29    H     0.85054   0.47956   0.58539   0.00000  Uiso   1.00
H30    H     0.98347   0.09914   0.95751   0.00000  Uiso   1.00
H31    H     0.92235   0.16717   0.39288   0.00000  Uiso   1.00
H32    H     0.82523   0.10532   0.30758   0.00000  Uiso   1.00
H33    H     0.94432   0.28571   0.33408   0.00000  Uiso   1.00
H34    H     0.00736   0.10530   0.51054   0.00000  Uiso   1.00
H35    H     0.70200   0.04499   0.25465   0.00000  Uiso   1.00
H36    H     0.95314   0.42536   0.31055   0.00000  Uiso   1.00
H37    H     0.08607   0.04492   0.68265   0.00000  Uiso   1.00
O38    O     0.58465   0.03257   0.34174   0.00000  Uiso   1.00
O39    O     0.91414   0.53159   0.41508   0.00000  Uiso   1.00
O40    O     0.08853   0.03247   0.90328   0.00000  Uiso   1.00
N41    N     0.63688   0.09492   0.47653   0.00000  Uiso   1.00
N42    N     0.87167   0.45054   0.52878   0.00000  Uiso   1.00
N43    N     0.99596   0.09488   0.87667   0.00000  Uiso   1.00
N44    N     0.69209   0.06575   0.32864   0.00000  Uiso   1.00
N45    N     0.92688   0.42137   0.38088   0.00000  Uiso   1.00
N46    N     0.05116   0.06571   0.72878   0.00000  Uiso   1.00
C47    C     0.17004   0.78402   0.64035   0.00000  Uiso   1.00
C48    C     0.20975   0.82452   0.55907   0.00000  Uiso   1.00
C49    C     0.27390   0.84232   0.57310   0.00000  Uiso   1.00
C50    C     0.30158   0.87945   0.48922   0.00000  Uiso   1.00
C51    C     0.36862   0.93948   0.37736   0.00000  Uiso   1.00
C52    C     0.14505   0.72651   0.57346   0.00000  Uiso   1.00
C53    C     0.15480   0.66190   0.59960   0.00000  Uiso   1.00
C54    C     0.12800   0.61652   0.52783   0.00000  Uiso   1.00
C55    C     0.09456   0.52438   0.43835   0.00000  Uiso   1.00
C56    C     0.11081   0.82454   0.66933   0.00000  Uiso   1.00
C57    C     0.09175   0.84233   0.77610   0.00000  Uiso   1.00
C58    C     0.03611   0.87948   0.78505   0.00000  Uiso   1.00
C59    C     0.94950   0.93954   0.84443   0.00000  Uiso   1.00
C60    C     0.10511   0.81832   0.46643   0.00000  Uiso   1.00
C61    C     0.17449   0.84315   0.46460   0.00000  Uiso   1.00
C62    C     0.20207   0.88027   0.38068   0.00000  Uiso   1.00
C63    C     0.26625   0.89812   0.39459   0.00000  Uiso   1.00
C64    C     0.10979   0.74514   0.47899   0.00000  Uiso   1.00
C65    C     0.08297   0.69985   0.40717   0.00000  Uiso   1.00
C66    C     0.09267   0.63519   0.43319   0.00000  Uiso   1.00
C67    C     0.07554   0.84317   0.57487   0.00000  Uiso   1.00
C68    C     0.01992   0.88029   0.58366   0.00000  Uiso   1.00
C69    C     0.00078   0.89814   0.69041   0.00000  Uiso   1.00
H70    H     0.19749   0.76951   0.71390   0.00000  Uiso   1.00
H71    H     0.30118   0.82789   0.64622   0.00000  Uiso   1.00
H72    H     0.18209   0.64750   0.67271   0.00000  Uiso   1.00
H73    H     0.11905   0.82791   0.84918   0.00000  Uiso   1.00
H74    H     0.40059   0.90080   0.52950   0.00000  Uiso   1.00
H75    H     0.14946   0.52044   0.58539   0.00000  Uiso   1.00
H76    H     0.01653   0.90086   0.95751   0.00000  Uiso   1.00
H77    H     0.07765   0.83283   0.39288   0.00000  Uiso   1.00
H78    H     0.17477   0.89468   0.30758   0.00000  Uiso   1.00
H79    H     0.05568   0.71429   0.33408   0.00000  Uiso   1.00
H80    H     0.99264   0.89470   0.51054   0.00000  Uiso   1.00
H81    H     0.29800   0.95501   0.25465   0.00000  Uiso   1.00
H82    H     0.04686   0.57464   0.31055   0.00000  Uiso   1.00
H83    H     0.91393   0.95508   0.68265   0.00000  Uiso   1.00
O84    O     0.41535   0.96743   0.34174   0.00000  Uiso   1.00
O85    O     0.08586   0.46841   0.41508   0.00000  Uiso   1.00
O86    O     0.91147   0.96753   0.90328   0.00000  Uiso   1.00
N87    N     0.36312   0.90508   0.47653   0.00000  Uiso   1.00
N88    N     0.12833   0.54946   0.52878   0.00000  Uiso   1.00
N89    N     0.00404   0.90512   0.87667   0.00000  Uiso   1.00
N90    N     0.30791   0.93425   0.32864   0.00000  Uiso   1.00
N91    N     0.07312   0.57863   0.38088   0.00000  Uiso   1.00
N92    N     0.94884   0.93429   0.72878   0.00000  Uiso   1.00
C93    C     0.28402   0.32996   0.14035   0.00000  Uiso   1.00
C94    C     0.32452   0.29025   0.05907   0.00000  Uiso   1.00
C95    C     0.34232   0.22610   0.07310   0.00000  Uiso   1.00
C96    C     0.37945   0.19842   0.98922   0.00000  Uiso   1.00
C97    C     0.43948   0.13138   0.87736   0.00000  Uiso   1.00
C98    C     0.22651   0.35495   0.07346   0.00000  Uiso   1.00
C99    C     0.16190   0.34520   0.09960   0.00000  Uiso   1.00
C100   C     0.11652   0.37200   0.02783   0.00000  Uiso   1.00
C101   C     0.02438   0.40544   0.93835   0.00000  Uiso   1.00
C102   C     0.32454   0.38919   0.16933   0.00000  Uiso   1.00
C103   C     0.34233   0.40825   0.27610   0.00000  Uiso   1.00
C104   C     0.37948   0.46389   0.28505   0.00000  Uiso   1.00
C105   C     0.43954   0.55050   0.34443   0.00000  Uiso   1.00
C106   C     0.31832   0.39489   0.96643   0.00000  Uiso   1.00
C107   C     0.34315   0.32551   0.96460   0.00000  Uiso   1.00
C108   C     0.38027   0.29793   0.88068   0.00000  Uiso   1.00
C109   C     0.39812   0.23375   0.89459   0.00000  Uiso   1.00
C110   C     0.24514   0.39021   0.97899   0.00000  Uiso   1.00
C111   C     0.19985   0.41703   0.90717   0.00000  Uiso   1.00
C112   C     0.13519   0.40733   0.93319   0.00000  Uiso   1.00
C113   C     0.34317   0.42446   0.07487   0.00000  Uiso   1.00
C114   C     0.38029   0.48008   0.08366   0.00000  Uiso   1.00
C115   C     0.39814   0.49922   0.19041   0.00000  Uiso   1.00
H116   H     0.26951   0.30251   0.21390   0.00000  Uiso   1.00
H117   H     0.32789   0.19882   0.14622   0.00000  Uiso   1.00
H118   H     0.14750   0.31791   0.17271   0.00000  Uiso   1.00
H119   H     0.32791   0.38095   0.34918   0.00000  Uiso   1.00
H120   H     0.40080   0.09941   0.02950   0.00000  Uiso   1.00
H121   H     0.02044   0.35054   0.08539   0.00000  Uiso   1.00
H122   H     0.40086   0.48347   0.45751   0.00000  Uiso   1.00
H123   H     0.33283   0.42235   0.89288   0.00000  Uiso   1.00
H124   H     0.39468   0.32523   0.80758   0.00000  Uiso   1.00
H125   H     0.21429   0.44432   0.83408   0.00000  Uiso   1.00
H126   H     0.39470   0.50736   0.01054   0.00000  Uiso   1.00
H127   H     0.45501   0.20200   0.75465   0.00000  Uiso   1.00
H128   H     0.07464   0.45314   0.81055   0.00000  Uiso   1.00
H129   H     0.45508   0.58607   0.18265   0.00000  Uiso   1.00
O130   O     0.46743   0.08465   0.84174   0.00000  Uiso   1.00
O131   O     0.96841   0.41414   0.91508   0.00000  Uiso   1.00
O132   O     0.46753   0.58853   0.40328   0.00000  Uiso   1.00
N133   N     0.40508   0.13688   0.97653   0.00000  Uiso   1.00
N134   N     0.04946   0.37167   0.02878   0.00000  Uiso   1.00
N135   N     0.40512   0.49596   0.37667   0.00000  Uiso   1.00
N136   N     0.43425   0.19209   0.82864   0.00000  Uiso   1.00
N137   N     0.07863   0.42688   0.88088   0.00000  Uiso   1.00
N138   N     0.43429   0.55116   0.22878   0.00000  Uiso   1.00
C139   C     0.71598   0.67004   0.14035   0.00000  Uiso   1.00
C140   C     0.67548   0.70975   0.05907   0.00000  Uiso   1.00
C141   C     0.65768   0.77390   0.07310   0.00000  Uiso   1.00
C142   C     0.62055   0.80158   0.98922   0.00000  Uiso   1.00
C143   C     0.56052   0.86862   0.87736   0.00000  Uiso   1.00
C144   C     0.77349   0.64505   0.07346   0.00000  Uiso   1.00
C145   C     0.83810   0.65480   0.09960   0.00000  Uiso   1.00
C146   C     0.88348   0.62800   0.02783   0.00000  Uiso   1.00
C147   C     0.97562   0.59456   0.93835   0.00000  Uiso   1.00
C148   C     0.67546   0.61081   0.16933   0.00000  Uiso   1.00
C149   C     0.65767   0.59175   0.27610   0.00000  Uiso   1.00
C150   C     0.62052   0.53611   0.28505   0.00000  Uiso   1.00
C151   C     0.56046   0.44950   0.34443   0.00000  Uiso   1.00
C152   C     0.68168   0.60511   0.96643   0.00000  Uiso   1.00
C153   C     0.65685   0.67449   0.96460   0.00000  Uiso   1.00
C154   C     0.61973   0.70207   0.88068   0.00000  Uiso   1.00
C155   C     0.60188   0.76625   0.89459   0.00000  Uiso   1.00
C156   C     0.75486   0.60979   0.97899   0.00000  Uiso   1.00
C157   C     0.80015   0.58297   0.90717   0.00000  Uiso   1.00
C158   C     0.86481   0.59267   0.93319   0.00000  Uiso   1.00
C159   C     0.65683   0.57554   0.07487   0.00000  Uiso   1.00
C160   C     0.61971   0.51992   0.08366   0.00000  Uiso   1.00
C161   C     0.60186   0.50078   0.19041   0.00000  Uiso   1.00
H162   H     0.73049   0.69749   0.21390   0.00000  Uiso   1.00
H163   H     0.67211   0.80118   0.14622   0.00000  Uiso   1.00
H164   H     0.85250   0.68209   0.17271   0.00000  Uiso   1.00
H165   H     0.67209   0.61905   0.34918   0.00000  Uiso   1.00
H166   H     0.59920   0.90059   0.02950   0.00000  Uiso   1.00
H167   H     0.97956   0.64946   0.08539   0.00000  Uiso   1.00
H168   H     0.59914   0.51653   0.45751   0.00000  Uiso   1.00
H169   H     0.66717   0.57765   0.89288   0.00000  Uiso   1.00
H170   H     0.60532   0.67477   0.80758   0.00000  Uiso   1.00
H171   H     0.78571   0.55568   0.83408   0.00000  Uiso   1.00
H172   H     0.60530   0.49264   0.01054   0.00000  Uiso   1.00
H173   H     0.54499   0.79800   0.75465   0.00000  Uiso   1.00
H174   H     0.92536   0.54686   0.81055   0.00000  Uiso   1.00
H175   H     0.54492   0.41393   0.18265   0.00000  Uiso   1.00
O176   O     0.53257   0.91535   0.84174   0.00000  Uiso   1.00
O177   O     0.03159   0.58586   0.91508   0.00000  Uiso   1.00
O178   O     0.53247   0.41147   0.40328   0.00000  Uiso   1.00
N179   N     0.59492   0.86312   0.97653   0.00000  Uiso   1.00
N180   N     0.95054   0.62833   0.02878   0.00000  Uiso   1.00
N181   N     0.59488   0.50404   0.37667   0.00000  Uiso   1.00
N182   N     0.56575   0.80791   0.82864   0.00000  Uiso   1.00
N183   N     0.92137   0.57312   0.88088   0.00000  Uiso   1.00
N184   N     0.56571   0.44884   0.22878   0.00000  Uiso   1.00
C185   C     0.67004   0.28402   0.85965   0.00000  Uiso   1.00
C186   C     0.70975   0.32452   0.94093   0.00000  Uiso   1.00
C187   C     0.77390   0.34232   0.92690   0.00000  Uiso   1.00
C188   C     0.80158   0.37945   0.01078   0.00000  Uiso   1.00
C189   C     0.86862   0.43948   0.12264   0.00000  Uiso   1.00
C190   C     0.64505   0.22651   0.92654   0.00000  Uiso   1.00
C191   C     0.65480   0.16190   0.90040   0.00000  Uiso   1.00
C192   C     0.62800   0.11652   0.97217   0.00000  Uiso   1.00
C193   C     0.59456   0.02438   0.06165   0.00000  Uiso   1.00
C194   C     0.61081   0.32454   0.83067   0.00000  Uiso   1.00
C195   C     0.59175   0.34233   0.72390   0.00000  Uiso   1.00
C196   C     0.53611   0.37948   0.71495   0.00000  Uiso   1.00
C197   C     0.44950   0.43954   0.65557   0.00000  Uiso   1.00
C198   C     0.60511   0.31832   0.03357   0.00000  Uiso   1.00
C199   C     0.67449   0.34315   0.03540   0.00000  Uiso   1.00
C200   C     0.70207   0.38027   0.11932   0.00000  Uiso   1.00
C201   C     0.76625   0.39812   0.10541   0.00000  Uiso   1.00
C202   C     0.60979   0.24514   0.02101   0.00000  Uiso   1.00
C203   C     0.58297   0.19985   0.09283   0.00000  Uiso   1.00
C204   C     0.59267   0.13519   0.06681   0.00000  Uiso   1.00
C205   C     0.57554   0.34317   0.92513   0.00000  Uiso   1.00
C206   C     0.51992   0.38029   0.91634   0.00000  Uiso   1.00
C207   C     0.50078   0.39814   0.80959   0.00000  Uiso   1.00
H208   H     0.69749   0.26951   0.78610   0.00000  Uiso   1.00
H209   H     0.80118   0.32789   0.85378   0.00000  Uiso   1.00
H210   H     0.68209   0.14750   0.82729   0.00000  Uiso   1.00
H211   H     0.61905   0.32791   0.65082   0.00000  Uiso   1.00
H212   H     0.90059   0.40080   0.97050   0.00000  Uiso   1.00
H213   H     0.64946   0.02044   0.91461   0.00000  Uiso   1.00
H214   H     0.51653   0.40086   0.54249   0.00000  Uiso   1.00
H215   H     0.57765   0.33283   0.10712   0.00000  Uiso   1.00
H216   H     0.67477   0.39468   0.19242   0.00000  Uiso   1.00
H217   H     0.55568   0.21429   0.16592   0.00000  Uiso   1.00
H218   H     0.49264   0.39470   0.98946   0.00000  Uiso   1.00
H219   H     0.79800   0.45501   0.24535   0.00000  Uiso   1.00
H220   H     0.54686   0.07464   0.18945   0.00000  Uiso   1.00
H221   H     0.41393   0.45508   0.81735   0.00000  Uiso   1.00
O222   O     0.91535   0.46743   0.15826   0.00000  Uiso   1.00
O223   O     0.58586   0.96841   0.08492   0.00000  Uiso   1.00
O224   O     0.41147   0.46753   0.59672   0.00000  Uiso   1.00
N225   N     0.86312   0.40508   0.02347   0.00000  Uiso   1.00
N226   N     0.62833   0.04946   0.97122   0.00000  Uiso   1.00
N227   N     0.50404   0.40512   0.62333   0.00000  Uiso   1.00
N228   N     0.80791   0.43425   0.17136   0.00000  Uiso   1.00
N229   N     0.57312   0.07863   0.11912   0.00000  Uiso   1.00
N230   N     0.44884   0.43429   0.77122   0.00000  Uiso   1.00
C231   C     0.32996   0.71598   0.85965   0.00000  Uiso   1.00
C232   C     0.29025   0.67548   0.94093   0.00000  Uiso   1.00
C233   C     0.22610   0.65768   0.92690   0.00000  Uiso   1.00
C234   C     0.19842   0.62055   0.01078   0.00000  Uiso   1.00
C235   C     0.13138   0.56052   0.12264   0.00000  Uiso   1.00
C236   C     0.35495   0.77349   0.92654   0.00000  Uiso   1.00
C237   C     0.34520   0.83810   0.90040   0.00000  Uiso   1.00
C238   C     0.37200   0.88348   0.97217   0.00000  Uiso   1.00
C239   C     0.40544   0.97562   0.06165   0.00000  Uiso   1.00
C240   C     0.38919   0.67546   0.83067   0.00000  Uiso   1.00
C241   C     0.40825   0.65767   0.72390   0.00000  Uiso   1.00
C242   C     0.46389   0.62052   0.71495   0.00000  Uiso   1.00
C243   C     0.55050   0.56046   0.65557   0.00000  Uiso   1.00
C244   C     0.39489   0.68168   0.03357   0.00000  Uiso   1.00
C245   C     0.32551   0.65685   0.03540   0.00000  Uiso   1.00
C246   C     0.29793   0.61973   0.11932   0.00000  Uiso   1.00
C247   C     0.23375   0.60188   0.10541   0.00000  Uiso   1.00
C248   C     0.39021   0.75486   0.02101   0.00000  Uiso   1.00
C249   C     0.41703   0.80015   0.09283   0.00000  Uiso   1.00
C250   C     0.40733   0.86481   0.06681   0.00000  Uiso   1.00
C251   C     0.42446   0.65683   0.92513   0.00000  Uiso   1.00
C252   C     0.48008   0.61971   0.91634   0.00000  Uiso   1.00
C253   C     0.49922   0.60186   0.80959   0.00000  Uiso   1.00
H254   H     0.30251   0.73049   0.78610   0.00000  Uiso   1.00
H255   H     0.19882   0.67211   0.85378   0.00000  Uiso   1.00
H256   H     0.31791   0.85250   0.82729   0.00000  Uiso   1.00
H257   H     0.38095   0.67209   0.65082   0.00000  Uiso   1.00
H258   H     0.09941   0.59920   0.97050   0.00000  Uiso   1.00
H259   H     0.35054   0.97956   0.91461   0.00000  Uiso   1.00
H260   H     0.48347   0.59914   0.54249   0.00000  Uiso   1.00
H261   H     0.42235   0.66717   0.10712   0.00000  Uiso   1.00
H262   H     0.32523   0.60532   0.19242   0.00000  Uiso   1.00
H263   H     0.44432   0.78571   0.16592   0.00000  Uiso   1.00
H264   H     0.50736   0.60530   0.98946   0.00000  Uiso   1.00
H265   H     0.20200   0.54499   0.24535   0.00000  Uiso   1.00
H266   H     0.45314   0.92536   0.18945   0.00000  Uiso   1.00
H267   H     0.58607   0.54492   0.81735   0.00000  Uiso   1.00
O268   O     0.08465   0.53257   0.15826   0.00000  Uiso   1.00
O269   O     0.41414   0.03159   0.08492   0.00000  Uiso   1.00
O270   O     0.58853   0.53247   0.59672   0.00000  Uiso   1.00
N271   N     0.13688   0.59492   0.02347   0.00000  Uiso   1.00
N272   N     0.37167   0.95054   0.97122   0.00000  Uiso   1.00
N273   N     0.49596   0.59488   0.62333   0.00000  Uiso   1.00
N274   N     0.19209   0.56575   0.17136   0.00000  Uiso   1.00
N275   N     0.42688   0.92137   0.11912   0.00000  Uiso   1.00
N276   N     0.55116   0.56571   0.77122   0.00000  Uiso   1.00
C277   C     0.21598   0.17004   0.35965   0.00000  Uiso   1.00
C278   C     0.17548   0.20975   0.44093   0.00000  Uiso   1.00
C279   C     0.15768   0.27390   0.42690   0.00000  Uiso   1.00
C280   C     0.12055   0.30158   0.51078   0.00000  Uiso   1.00
C281   C     0.06052   0.36862   0.62264   0.00000  Uiso   1.00
C282   C     0.27349   0.14505   0.42654   0.00000  Uiso   1.00
C283   C     0.33810   0.15480   0.40040   0.00000  Uiso   1.00
C284   C     0.38348   0.12800   0.47217   0.00000  Uiso   1.00
C285   C     0.47562   0.09456   0.56165   0.00000  Uiso   1.00
C286   C     0.17546   0.11081   0.33067   0.00000  Uiso   1.00
C287   C     0.15767   0.09175   0.22390   0.00000  Uiso   1.00
C288   C     0.12052   0.03611   0.21495   0.00000  Uiso   1.00
C289   C     0.06046   0.94950   0.15557   0.00000  Uiso   1.00
C290   C     0.18168   0.10511   0.53357   0.00000  Uiso   1.00
C291   C     0.15685   0.17449   0.53540   0.00000  Uiso   1.00
C292   C     0.11973   0.20207   0.61932   0.00000  Uiso   1.00
C293   C     0.10188   0.26625   0.60541   0.00000  Uiso   1.00
C294   C     0.25486   0.10979   0.52101   0.00000  Uiso   1.00
C295   C     0.30015   0.08297   0.59283   0.00000  Uiso   1.00
C296   C     0.36481   0.09267   0.56681   0.00000  Uiso   1.00
C297   C     0.15683   0.07554   0.42513   0.00000  Uiso   1.00
C298   C     0.11971   0.01992   0.41634   0.00000  Uiso   1.00
C299   C     0.10186   0.00078   0.30959   0.00000  Uiso   1.00
H300   H     0.23049   0.19749   0.28610   0.00000  Uiso   1.00
H301   H     0.17211   0.30118   0.35378   0.00000  Uiso   1.00
H302   H     0.35250   0.18209   0.32729   0.00000  Uiso   1.00
H303   H     0.17209   0.11905   0.15082   0.00000  Uiso   1.00
H304   H     0.09920   0.40059   0.47050   0.00000  Uiso   1.00
H305   H     0.47956   0.14946   0.41461   0.00000  Uiso   1.00
H306   H     0.09914   0.01653   0.04249   0.00000  Uiso   1.00
H307   H     0.16717   0.07765   0.60712   0.00000  Uiso   1.00
H308   H     0.10532   0.17477   0.69242   0.00000  Uiso   1.00
H309   H     0.28571   0.05568   0.66592   0.00000  Uiso   1.00
H310   H     0.10530   0.99264   0.48946   0.00000  Uiso   1.00
H311   H     0.04499   0.29800   0.74535   0.00000  Uiso   1.00
H312   H     0.42536   0.04686   0.68945   0.00000  Uiso   1.00
H313   H     0.04492   0.91393   0.31735   0.00000  Uiso   1.00
O314   O     0.03257   0.41535   0.65826   0.00000  Uiso   1.00
O315   O     0.53159   0.08586   0.58492   0.00000  Uiso   1.00
O316   O     0.03247   0.91147   0.09672   0.00000  Uiso   1.00
N317   N     0.09492   0.36312   0.52347   0.00000  Uiso   1.00
N318   N     0.45054   0.12833   0.47122   0.00000  Uiso   1.00
N319   N     0.09488   0.00404   0.12333   0.00000  Uiso   1.00
N320   N     0.06575   0.30791   0.67136   0.00000  Uiso   1.00
N321   N     0.42137   0.07312   0.61912   0.00000  Uiso   1.00
N322   N     0.06571   0.94884   0.27122   0.00000  Uiso   1.00
C323   C     0.78402   0.82996   0.35965   0.00000  Uiso   1.00
C324   C     0.82452   0.79025   0.44093   0.00000  Uiso   1.00
C325   C     0.84232   0.72610   0.42690   0.00000  Uiso   1.00
C326   C     0.87945   0.69842   0.51078   0.00000  Uiso   1.00
C327   C     0.93948   0.63138   0.62264   0.00000  Uiso   1.00
C328   C     0.72651   0.85495   0.42654   0.00000  Uiso   1.00
C329   C     0.66190   0.84520   0.40040   0.00000  Uiso   1.00
C330   C     0.61652   0.87200   0.47217   0.00000  Uiso   1.00
C331   C     0.52438   0.90544   0.56165   0.00000  Uiso   1.00
C332   C     0.82454   0.88919   0.33067   0.00000  Uiso   1.00
C333   C     0.84233   0.90825   0.22390   0.00000  Uiso   1.00
C334   C     0.87948   0.96389   0.21495   0.00000  Uiso   1.00
C335   C     0.93954   0.05050   0.15557   0.00000  Uiso   1.00
C336   C     0.81832   0.89489   0.53357   0.00000  Uiso   1.00
C337   C     0.84315   0.82551   0.53540   0.00000  Uiso   1.00
C338   C     0.88027   0.79793   0.61932   0.00000  Uiso   1.00
C339   C     0.89812   0.73375   0.60541   0.00000  Uiso   1.00
C340   C     0.74514   0.89021   0.52101   0.00000  Uiso   1.00
C341   C     0.69985   0.91703   0.59283   0.00000  Uiso   1.00
C342   C     0.63519   0.90733   0.56681   0.00000  Uiso   1.00
C343   C     0.84317   0.92446   0.42513   0.00000  Uiso   1.00
C344   C     0.88029   0.98008   0.41634   0.00000  Uiso   1.00
C345   C     0.89814   0.99922   0.30959   0.00000  Uiso   1.00
H346   H     0.76951   0.80251   0.28610   0.00000  Uiso   1.00
H347   H     0.82789   0.69882   0.35378   0.00000  Uiso   1.00
H348   H     0.64750   0.81791   0.32729   0.00000  Uiso   1.00
H349   H     0.82791   0.88095   0.15082   0.00000  Uiso   1.00
H350   H     0.90080   0.59941   0.47050   0.00000  Uiso   1.00
H351   H     0.52044   0.85054   0.41461   0.00000  Uiso   1.00
H352   H     0.90086   0.98347   0.04249   0.00000  Uiso   1.00
H353   H     0.83283   0.92235   0.60712   0.00000  Uiso   1.00
H354   H     0.89468   0.82523   0.69242   0.00000  Uiso   1.00
H355   H     0.71429   0.94432   0.66592   0.00000  Uiso   1.00
H356   H     0.89470   0.00736   0.48946   0.00000  Uiso   1.00
H357   H     0.95501   0.70200   0.74535   0.00000  Uiso   1.00
H358   H     0.57464   0.95314   0.68945   0.00000  Uiso   1.00
H359   H     0.95508   0.08607   0.31735   0.00000  Uiso   1.00
O360   O     0.96743   0.58465   0.65826   0.00000  Uiso   1.00
O361   O     0.46841   0.91414   0.58492   0.00000  Uiso   1.00
O362   O     0.96753   0.08853   0.09672   0.00000  Uiso   1.00
N363   N     0.90508   0.63688   0.52347   0.00000  Uiso   1.00
N364   N     0.54946   0.87167   0.47122   0.00000  Uiso   1.00
N365   N     0.90512   0.99596   0.12333   0.00000  Uiso   1.00
N366   N     0.93425   0.69209   0.67136   0.00000  Uiso   1.00
N367   N     0.57863   0.92688   0.61912   0.00000  Uiso   1.00
N368   N     0.93429   0.05116   0.27122   0.00000  Uiso   1.00
