data_job_00902
_audit_creation_date              2018-12-19
_audit_creation_method            'Materials Studio'
_symmetry_space_group_name_H-M    'P1'
_symmetry_Int_Tables_number       1
_symmetry_cell_setting            triclinic
loop_
_symmetry_equiv_pos_as_xyz
  x,y,z
_cell_length_a                    21.4025
_cell_length_b                    12.3503
_cell_length_c                    14.8536
_cell_angle_alpha                 90.0000
_cell_angle_beta                  138.8592
_cell_angle_gamma                 90.0000
loop_
_atom_site_label
_atom_site_type_symbol
_atom_site_fract_x
_atom_site_fract_y
_atom_site_fract_z
_atom_site_U_iso_or_equiv
_atom_site_adp_type
_atom_site_occupancy
C1     C     0.48395   0.77475   0.12308   0.00000  Uiso   1.00
C2     C     0.52454   0.66311   0.18816   0.00000  Uiso   1.00
C3     C     0.57253   0.59680   0.18007   0.00000  Uiso   1.00
C4     C     0.60408   0.49764   0.24661   0.00000  Uiso   1.00
C5     C     0.66948   0.32907   0.33666   0.00000  Uiso   1.00
C6     C     0.37868   0.76916   0.03248   0.00000  Uiso   1.00
C7     C     0.30404   0.79205   0.89351   0.00000  Uiso   1.00
C8     C     0.21281   0.78218   0.82901   0.00000  Uiso   1.00
C9     C     0.05176   0.77835   0.67739   0.00000  Uiso   1.00
C10    C     0.52855   0.85208   0.23942   0.00000  Uiso   1.00
C11    C     0.57990   0.94470   0.27442   0.00000  Uiso   1.00
C12    C     0.61483   0.00465   0.38414   0.00000  Uiso   1.00
C13    C     0.68647   0.12956   0.55381   0.00000  Uiso   1.00
C14    C     0.45465   0.71654   0.25564   0.00000  Uiso   1.00
C15    C     0.50861   0.63149   0.26016   0.00000  Uiso   1.00
C16    C     0.54011   0.53240   0.32674   0.00000  Uiso   1.00
C17    C     0.58814   0.46596   0.31875   0.00000  Uiso   1.00
C18    C     0.36276   0.73755   0.10448   0.00000  Uiso   1.00
C19    C     0.27162   0.72765   0.04018   0.00000  Uiso   1.00
C20    C     0.19686   0.75051   0.90114   0.00000  Uiso   1.00
C21    C     0.51263   0.82047   0.31143   0.00000  Uiso   1.00
C22    C     0.54748   0.88029   0.42110   0.00000  Uiso   1.00
C23    C     0.59888   0.97298   0.45627   0.00000  Uiso   1.00
H24    H     0.49634   0.79936   0.06701   0.00000  Uiso   1.00
H25    H     0.58483   0.62129   0.12433   0.00000  Uiso   1.00
H26    H     0.31638   0.81652   0.83782   0.00000  Uiso   1.00
H27    H     0.59220   0.96914   0.21868   0.00000  Uiso   1.00
H28    H     0.67588   0.40991   0.21958   0.00000  Uiso   1.00
H29    H     0.10985   0.82160   0.61547   0.00000  Uiso   1.00
H30    H     0.69147   0.14343   0.41859   0.00000  Uiso   1.00
H31    H     0.44225   0.69193   0.31170   0.00000  Uiso   1.00
H32    H     0.52778   0.50796   0.38245   0.00000  Uiso   1.00
H33    H     0.25933   0.70319   0.09593   0.00000  Uiso   1.00
H34    H     0.53515   0.85581   0.47679   0.00000  Uiso   1.00
H35    H     0.62957   0.31792   0.42908   0.00000  Uiso   1.00
H36    H     0.06354   0.72962   0.82497   0.00000  Uiso   1.00
H37    H     0.64516   0.05144   0.62809   0.00000  Uiso   1.00
O38    O     0.70993   0.24482   0.36642   0.00000  Uiso   1.00
O39    O     0.96733   0.78496   0.57386   0.00000  Uiso   1.00
O40    O     0.73040   0.20718   0.62753   0.00000  Uiso   1.00
N41    N     0.65326   0.41352   0.25920   0.00000  Uiso   1.00
N42    N     0.12406   0.79841   0.69439   0.00000  Uiso   1.00
N43    N     0.66780   0.09930   0.44521   0.00000  Uiso   1.00
N44    N     0.62834   0.36402   0.37193   0.00000  Uiso   1.00
N45    N     0.09914   0.74891   0.80712   0.00000  Uiso   1.00
N46    N     0.64288   0.04981   0.55794   0.00000  Uiso   1.00
C47    C     0.98395   0.27475   0.12308   0.00000  Uiso   1.00
C48    C     0.02454   0.16311   0.18816   0.00000  Uiso   1.00
C49    C     0.07253   0.09680   0.18007   0.00000  Uiso   1.00
C50    C     0.10408   0.99764   0.24661   0.00000  Uiso   1.00
C51    C     0.16948   0.82907   0.33666   0.00000  Uiso   1.00
C52    C     0.87868   0.26916   0.03248   0.00000  Uiso   1.00
C53    C     0.80404   0.29205   0.89351   0.00000  Uiso   1.00
C54    C     0.71281   0.28218   0.82901   0.00000  Uiso   1.00
C55    C     0.55176   0.27835   0.67739   0.00000  Uiso   1.00
C56    C     0.02855   0.35208   0.23942   0.00000  Uiso   1.00
C57    C     0.07990   0.44470   0.27442   0.00000  Uiso   1.00
C58    C     0.11483   0.50465   0.38414   0.00000  Uiso   1.00
C59    C     0.18647   0.62956   0.55381   0.00000  Uiso   1.00
C60    C     0.95465   0.21654   0.25564   0.00000  Uiso   1.00
C61    C     0.00861   0.13149   0.26016   0.00000  Uiso   1.00
C62    C     0.04011   0.03240   0.32674   0.00000  Uiso   1.00
C63    C     0.08814   0.96596   0.31875   0.00000  Uiso   1.00
C64    C     0.86276   0.23755   0.10448   0.00000  Uiso   1.00
C65    C     0.77162   0.22765   0.04018   0.00000  Uiso   1.00
C66    C     0.69686   0.25051   0.90114   0.00000  Uiso   1.00
C67    C     0.01263   0.32047   0.31143   0.00000  Uiso   1.00
C68    C     0.04748   0.38029   0.42110   0.00000  Uiso   1.00
C69    C     0.09888   0.47298   0.45627   0.00000  Uiso   1.00
H70    H     0.99634   0.29936   0.06701   0.00000  Uiso   1.00
H71    H     0.08483   0.12129   0.12433   0.00000  Uiso   1.00
H72    H     0.81638   0.31652   0.83782   0.00000  Uiso   1.00
H73    H     0.09220   0.46914   0.21868   0.00000  Uiso   1.00
H74    H     0.17588   0.90991   0.21958   0.00000  Uiso   1.00
H75    H     0.60985   0.32160   0.61547   0.00000  Uiso   1.00
H76    H     0.19147   0.64343   0.41859   0.00000  Uiso   1.00
H77    H     0.94225   0.19193   0.31170   0.00000  Uiso   1.00
H78    H     0.02778   0.00796   0.38245   0.00000  Uiso   1.00
H79    H     0.75933   0.20319   0.09593   0.00000  Uiso   1.00
H80    H     0.03515   0.35581   0.47679   0.00000  Uiso   1.00
H81    H     0.12957   0.81792   0.42908   0.00000  Uiso   1.00
H82    H     0.56354   0.22962   0.82497   0.00000  Uiso   1.00
H83    H     0.14516   0.55144   0.62809   0.00000  Uiso   1.00
O84    O     0.20993   0.74482   0.36642   0.00000  Uiso   1.00
O85    O     0.46733   0.28496   0.57386   0.00000  Uiso   1.00
O86    O     0.23040   0.70718   0.62753   0.00000  Uiso   1.00
N87    N     0.15326   0.91352   0.25920   0.00000  Uiso   1.00
N88    N     0.62406   0.29841   0.69439   0.00000  Uiso   1.00
N89    N     0.16780   0.59930   0.44521   0.00000  Uiso   1.00
N90    N     0.12834   0.86402   0.37193   0.00000  Uiso   1.00
N91    N     0.59914   0.24891   0.80712   0.00000  Uiso   1.00
N92    N     0.14288   0.54981   0.55794   0.00000  Uiso   1.00
C93    C     0.51605   0.77475   0.87692   0.00000  Uiso   1.00
C94    C     0.47546   0.66311   0.81184   0.00000  Uiso   1.00
C95    C     0.42747   0.59680   0.81993   0.00000  Uiso   1.00
C96    C     0.39592   0.49764   0.75339   0.00000  Uiso   1.00
C97    C     0.33052   0.32907   0.66334   0.00000  Uiso   1.00
C98    C     0.62132   0.76916   0.96752   0.00000  Uiso   1.00
C99    C     0.69596   0.79205   0.10649   0.00000  Uiso   1.00
C100   C     0.78719   0.78218   0.17099   0.00000  Uiso   1.00
C101   C     0.94824   0.77835   0.32261   0.00000  Uiso   1.00
C102   C     0.47145   0.85208   0.76058   0.00000  Uiso   1.00
C103   C     0.42010   0.94470   0.72558   0.00000  Uiso   1.00
C104   C     0.38517   0.00465   0.61586   0.00000  Uiso   1.00
C105   C     0.31353   0.12956   0.44619   0.00000  Uiso   1.00
C106   C     0.54535   0.71654   0.74436   0.00000  Uiso   1.00
C107   C     0.49139   0.63149   0.73984   0.00000  Uiso   1.00
C108   C     0.45989   0.53240   0.67326   0.00000  Uiso   1.00
C109   C     0.41186   0.46596   0.68125   0.00000  Uiso   1.00
C110   C     0.63724   0.73755   0.89552   0.00000  Uiso   1.00
C111   C     0.72838   0.72765   0.95982   0.00000  Uiso   1.00
C112   C     0.80314   0.75051   0.09886   0.00000  Uiso   1.00
C113   C     0.48737   0.82047   0.68857   0.00000  Uiso   1.00
C114   C     0.45252   0.88029   0.57890   0.00000  Uiso   1.00
C115   C     0.40112   0.97298   0.54373   0.00000  Uiso   1.00
H116   H     0.50366   0.79936   0.93299   0.00000  Uiso   1.00
H117   H     0.41517   0.62129   0.87567   0.00000  Uiso   1.00
H118   H     0.68362   0.81652   0.16218   0.00000  Uiso   1.00
H119   H     0.40780   0.96914   0.78132   0.00000  Uiso   1.00
H120   H     0.32412   0.40991   0.78042   0.00000  Uiso   1.00
H121   H     0.89015   0.82160   0.38453   0.00000  Uiso   1.00
H122   H     0.30853   0.14343   0.58141   0.00000  Uiso   1.00
H123   H     0.55775   0.69193   0.68830   0.00000  Uiso   1.00
H124   H     0.47222   0.50796   0.61755   0.00000  Uiso   1.00
H125   H     0.74067   0.70319   0.90407   0.00000  Uiso   1.00
H126   H     0.46485   0.85581   0.52321   0.00000  Uiso   1.00
H127   H     0.37043   0.31792   0.57092   0.00000  Uiso   1.00
H128   H     0.93646   0.72962   0.17503   0.00000  Uiso   1.00
H129   H     0.35484   0.05144   0.37191   0.00000  Uiso   1.00
O130   O     0.29007   0.24482   0.63358   0.00000  Uiso   1.00
O131   O     0.03267   0.78496   0.42614   0.00000  Uiso   1.00
O132   O     0.26960   0.20718   0.37247   0.00000  Uiso   1.00
N133   N     0.34674   0.41352   0.74080   0.00000  Uiso   1.00
N134   N     0.87594   0.79841   0.30561   0.00000  Uiso   1.00
N135   N     0.33220   0.09930   0.55479   0.00000  Uiso   1.00
N136   N     0.37166   0.36402   0.62807   0.00000  Uiso   1.00
N137   N     0.90086   0.74891   0.19288   0.00000  Uiso   1.00
N138   N     0.35712   0.04981   0.44206   0.00000  Uiso   1.00
C139   C     0.01605   0.27475   0.87692   0.00000  Uiso   1.00
C140   C     0.97546   0.16311   0.81184   0.00000  Uiso   1.00
C141   C     0.92747   0.09680   0.81993   0.00000  Uiso   1.00
C142   C     0.89592   0.99764   0.75339   0.00000  Uiso   1.00
C143   C     0.83052   0.82907   0.66334   0.00000  Uiso   1.00
C144   C     0.12132   0.26916   0.96752   0.00000  Uiso   1.00
C145   C     0.19596   0.29205   0.10649   0.00000  Uiso   1.00
C146   C     0.28719   0.28218   0.17099   0.00000  Uiso   1.00
C147   C     0.44824   0.27835   0.32261   0.00000  Uiso   1.00
C148   C     0.97145   0.35208   0.76058   0.00000  Uiso   1.00
C149   C     0.92010   0.44470   0.72558   0.00000  Uiso   1.00
C150   C     0.88517   0.50465   0.61586   0.00000  Uiso   1.00
C151   C     0.81353   0.62956   0.44619   0.00000  Uiso   1.00
C152   C     0.04535   0.21654   0.74436   0.00000  Uiso   1.00
C153   C     0.99139   0.13149   0.73984   0.00000  Uiso   1.00
C154   C     0.95989   0.03240   0.67326   0.00000  Uiso   1.00
C155   C     0.91186   0.96596   0.68125   0.00000  Uiso   1.00
C156   C     0.13724   0.23755   0.89552   0.00000  Uiso   1.00
C157   C     0.22838   0.22765   0.95982   0.00000  Uiso   1.00
C158   C     0.30314   0.25051   0.09886   0.00000  Uiso   1.00
C159   C     0.98737   0.32047   0.68857   0.00000  Uiso   1.00
C160   C     0.95252   0.38029   0.57890   0.00000  Uiso   1.00
C161   C     0.90112   0.47298   0.54373   0.00000  Uiso   1.00
H162   H     0.00366   0.29936   0.93299   0.00000  Uiso   1.00
H163   H     0.91517   0.12129   0.87567   0.00000  Uiso   1.00
H164   H     0.18362   0.31652   0.16218   0.00000  Uiso   1.00
H165   H     0.90780   0.46914   0.78132   0.00000  Uiso   1.00
H166   H     0.82412   0.90991   0.78042   0.00000  Uiso   1.00
H167   H     0.39015   0.32160   0.38453   0.00000  Uiso   1.00
H168   H     0.80853   0.64343   0.58141   0.00000  Uiso   1.00
H169   H     0.05775   0.19193   0.68830   0.00000  Uiso   1.00
H170   H     0.97222   0.00796   0.61755   0.00000  Uiso   1.00
H171   H     0.24067   0.20319   0.90407   0.00000  Uiso   1.00
H172   H     0.96485   0.35581   0.52321   0.00000  Uiso   1.00
H173   H     0.87043   0.81792   0.57092   0.00000  Uiso   1.00
H174   H     0.43646   0.22962   0.17503   0.00000  Uiso   1.00
H175   H     0.85484   0.55144   0.37191   0.00000  Uiso   1.00
O176   O     0.79007   0.74482   0.63358   0.00000  Uiso   1.00
O177   O     0.53267   0.28496   0.42614   0.00000  Uiso   1.00
O178   O     0.76960   0.70718   0.37247   0.00000  Uiso   1.00
N179   N     0.84674   0.91352   0.74080   0.00000  Uiso   1.00
N180   N     0.37594   0.29841   0.30561   0.00000  Uiso   1.00
N181   N     0.83220   0.59930   0.55479   0.00000  Uiso   1.00
N182   N     0.87166   0.86402   0.62807   0.00000  Uiso   1.00
N183   N     0.40086   0.24891   0.19288   0.00000  Uiso   1.00
N184   N     0.85712   0.54981   0.44206   0.00000  Uiso   1.00
