data_job_02346
_audit_creation_date              2018-12-19
_audit_creation_method            'Materials Studio'
_symmetry_space_group_name_H-M    'P1'
_symmetry_Int_Tables_number       1
_symmetry_cell_setting            triclinic
loop_
_symmetry_equiv_pos_as_xyz
  x,y,z
_cell_length_a                    14.6643
_cell_length_b                    19.1278
_cell_length_c                    9.8596
_cell_angle_alpha                 90.0000
_cell_angle_beta                  90.0000
_cell_angle_gamma                 90.0000
loop_
_atom_site_label
_atom_site_type_symbol
_atom_site_fract_x
_atom_site_fract_y
_atom_site_fract_z
_atom_site_U_iso_or_equiv
_atom_site_adp_type
_atom_site_occupancy
C1     C     0.23484   0.97083   0.75396   0.00000  Uiso   1.00
C2     C     0.24928   0.02267   0.63844   0.00000  Uiso   1.00
C3     C     0.22429   0.09264   0.63966   0.00000  Uiso   1.00
C4     C     0.24340   0.13134   0.52396   0.00000  Uiso   1.00
C5     C     0.25932   0.21643   0.36172   0.00000  Uiso   1.00
C6     C     0.18018   0.91044   0.69404   0.00000  Uiso   1.00
C7     C     0.09709   0.88605   0.74201   0.00000  Uiso   1.00
C8     C     0.05803   0.83027   0.67312   0.00000  Uiso   1.00
C9     C     0.96670   0.74110   0.59726   0.00000  Uiso   1.00
C10    C     0.32876   0.94119   0.78711   0.00000  Uiso   1.00
C11    C     0.37059   0.94263   0.91334   0.00000  Uiso   1.00
C12    C     0.45662   0.91272   0.92282   0.00000  Uiso   1.00
C13    C     0.59598   0.87128   0.99146   0.00000  Uiso   1.00
C14    C     0.31324   0.91512   0.54634   0.00000  Uiso   1.00
C15    C     0.29187   0.99241   0.52567   0.00000  Uiso   1.00
C16    C     0.31103   0.03101   0.40994   0.00000  Uiso   1.00
C17    C     0.28606   0.10103   0.41099   0.00000  Uiso   1.00
C18    C     0.22276   0.88019   0.58127   0.00000  Uiso   1.00
C19    C     0.18383   0.82442   0.51230   0.00000  Uiso   1.00
C20    C     0.10069   0.79996   0.56015   0.00000  Uiso   1.00
C21    C     0.37135   0.91093   0.67434   0.00000  Uiso   1.00
C22    C     0.45733   0.88100   0.68363   0.00000  Uiso   1.00
C23    C     0.49928   0.88241   0.80985   0.00000  Uiso   1.00
H24    H     0.20168   0.99438   0.84176   0.00000  Uiso   1.00
H25    H     0.19132   0.11604   0.72694   0.00000  Uiso   1.00
H26    H     0.06415   0.90948   0.82929   0.00000  Uiso   1.00
H27    H     0.33761   0.96605   0.00059   0.00000  Uiso   1.00
H28    H     0.19859   0.23757   0.54990   0.00000  Uiso   1.00
H29    H     0.93046   0.80201   0.76573   0.00000  Uiso   1.00
H30    H     0.50710   0.92130   0.12695   0.00000  Uiso   1.00
H31    H     0.34639   0.89156   0.45853   0.00000  Uiso   1.00
H32    H     0.34398   0.00758   0.32269   0.00000  Uiso   1.00
H33    H     0.21680   0.80102   0.42504   0.00000  Uiso   1.00
H34    H     0.49026   0.85759   0.59634   0.00000  Uiso   1.00
H35    H     0.32249   0.14954   0.22179   0.00000  Uiso   1.00
H36    H     0.05435   0.71398   0.43763   0.00000  Uiso   1.00
H37    H     0.63100   0.83327   0.79884   0.00000  Uiso   1.00
O38    O     0.25632   0.27172   0.30338   0.00000  Uiso   1.00
O39    O     0.90454   0.70028   0.58656   0.00000  Uiso   1.00
O40    O     0.66108   0.85680   0.06047   0.00000  Uiso   1.00
N41    N     0.22810   0.20093   0.49133   0.00000  Uiso   1.00
N42    N     0.97740   0.79372   0.69311   0.00000  Uiso   1.00
N43    N     0.51650   0.90523   0.03083   0.00000  Uiso   1.00
N44    N     0.29477   0.15356   0.31478   0.00000  Uiso   1.00
N45    N     0.04407   0.74635   0.51656   0.00000  Uiso   1.00
N46    N     0.58317   0.85786   0.85428   0.00000  Uiso   1.00
C47    C     0.76516   0.02917   0.75396   0.00000  Uiso   1.00
C48    C     0.75072   0.97733   0.63844   0.00000  Uiso   1.00
C49    C     0.77571   0.90736   0.63966   0.00000  Uiso   1.00
C50    C     0.75660   0.86866   0.52396   0.00000  Uiso   1.00
C51    C     0.74068   0.78357   0.36172   0.00000  Uiso   1.00
C52    C     0.81982   0.08956   0.69404   0.00000  Uiso   1.00
C53    C     0.90291   0.11395   0.74201   0.00000  Uiso   1.00
C54    C     0.94197   0.16973   0.67312   0.00000  Uiso   1.00
C55    C     0.03330   0.25890   0.59726   0.00000  Uiso   1.00
C56    C     0.67124   0.05881   0.78711   0.00000  Uiso   1.00
C57    C     0.62941   0.05737   0.91334   0.00000  Uiso   1.00
C58    C     0.54338   0.08728   0.92282   0.00000  Uiso   1.00
C59    C     0.40402   0.12872   0.99146   0.00000  Uiso   1.00
C60    C     0.68676   0.08488   0.54634   0.00000  Uiso   1.00
C61    C     0.70813   0.00759   0.52567   0.00000  Uiso   1.00
C62    C     0.68897   0.96899   0.40994   0.00000  Uiso   1.00
C63    C     0.71394   0.89897   0.41099   0.00000  Uiso   1.00
C64    C     0.77724   0.11981   0.58127   0.00000  Uiso   1.00
C65    C     0.81617   0.17558   0.51230   0.00000  Uiso   1.00
C66    C     0.89931   0.20004   0.56015   0.00000  Uiso   1.00
C67    C     0.62865   0.08907   0.67434   0.00000  Uiso   1.00
C68    C     0.54267   0.11900   0.68363   0.00000  Uiso   1.00
C69    C     0.50072   0.11759   0.80985   0.00000  Uiso   1.00
H70    H     0.79832   0.00562   0.84176   0.00000  Uiso   1.00
H71    H     0.80868   0.88396   0.72694   0.00000  Uiso   1.00
H72    H     0.93585   0.09052   0.82929   0.00000  Uiso   1.00
H73    H     0.66239   0.03395   0.00059   0.00000  Uiso   1.00
H74    H     0.80141   0.76243   0.54990   0.00000  Uiso   1.00
H75    H     0.06954   0.19799   0.76573   0.00000  Uiso   1.00
H76    H     0.49290   0.07870   0.12695   0.00000  Uiso   1.00
H77    H     0.65361   0.10844   0.45853   0.00000  Uiso   1.00
H78    H     0.65602   0.99242   0.32269   0.00000  Uiso   1.00
H79    H     0.78320   0.19898   0.42504   0.00000  Uiso   1.00
H80    H     0.50974   0.14241   0.59634   0.00000  Uiso   1.00
H81    H     0.67751   0.85046   0.22179   0.00000  Uiso   1.00
H82    H     0.94565   0.28602   0.43763   0.00000  Uiso   1.00
H83    H     0.36900   0.16673   0.79884   0.00000  Uiso   1.00
O84    O     0.74368   0.72828   0.30338   0.00000  Uiso   1.00
O85    O     0.09546   0.29972   0.58656   0.00000  Uiso   1.00
O86    O     0.33892   0.14320   0.06047   0.00000  Uiso   1.00
N87    N     0.77190   0.79907   0.49133   0.00000  Uiso   1.00
N88    N     0.02260   0.20628   0.69311   0.00000  Uiso   1.00
N89    N     0.48350   0.09477   0.03083   0.00000  Uiso   1.00
N90    N     0.70523   0.84644   0.31478   0.00000  Uiso   1.00
N91    N     0.95593   0.25365   0.51656   0.00000  Uiso   1.00
N92    N     0.41683   0.14214   0.85428   0.00000  Uiso   1.00
C93    C     0.23484   0.52917   0.25396   0.00000  Uiso   1.00
C94    C     0.24928   0.47733   0.13844   0.00000  Uiso   1.00
C95    C     0.22429   0.40736   0.13966   0.00000  Uiso   1.00
C96    C     0.24340   0.36866   0.02396   0.00000  Uiso   1.00
C97    C     0.25932   0.28357   0.86172   0.00000  Uiso   1.00
C98    C     0.18018   0.58956   0.19404   0.00000  Uiso   1.00
C99    C     0.09709   0.61395   0.24201   0.00000  Uiso   1.00
C100   C     0.05803   0.66973   0.17312   0.00000  Uiso   1.00
C101   C     0.96670   0.75890   0.09726   0.00000  Uiso   1.00
C102   C     0.32876   0.55881   0.28711   0.00000  Uiso   1.00
C103   C     0.37059   0.55737   0.41334   0.00000  Uiso   1.00
C104   C     0.45662   0.58728   0.42282   0.00000  Uiso   1.00
C105   C     0.59598   0.62872   0.49146   0.00000  Uiso   1.00
C106   C     0.31324   0.58488   0.04634   0.00000  Uiso   1.00
C107   C     0.29187   0.50759   0.02567   0.00000  Uiso   1.00
C108   C     0.31103   0.46899   0.90994   0.00000  Uiso   1.00
C109   C     0.28606   0.39897   0.91099   0.00000  Uiso   1.00
C110   C     0.22276   0.61981   0.08127   0.00000  Uiso   1.00
C111   C     0.18383   0.67558   0.01230   0.00000  Uiso   1.00
C112   C     0.10069   0.70004   0.06015   0.00000  Uiso   1.00
C113   C     0.37135   0.58907   0.17434   0.00000  Uiso   1.00
C114   C     0.45733   0.61900   0.18363   0.00000  Uiso   1.00
C115   C     0.49928   0.61759   0.30985   0.00000  Uiso   1.00
H116   H     0.20168   0.50562   0.34176   0.00000  Uiso   1.00
H117   H     0.19132   0.38396   0.22694   0.00000  Uiso   1.00
H118   H     0.06415   0.59052   0.32929   0.00000  Uiso   1.00
H119   H     0.33761   0.53395   0.50059   0.00000  Uiso   1.00
H120   H     0.19859   0.26243   0.04990   0.00000  Uiso   1.00
H121   H     0.93046   0.69799   0.26573   0.00000  Uiso   1.00
H122   H     0.50710   0.57870   0.62695   0.00000  Uiso   1.00
H123   H     0.34639   0.60844   0.95853   0.00000  Uiso   1.00
H124   H     0.34398   0.49242   0.82269   0.00000  Uiso   1.00
H125   H     0.21680   0.69898   0.92504   0.00000  Uiso   1.00
H126   H     0.49026   0.64241   0.09634   0.00000  Uiso   1.00
H127   H     0.32249   0.35046   0.72179   0.00000  Uiso   1.00
H128   H     0.05435   0.78602   0.93763   0.00000  Uiso   1.00
H129   H     0.63100   0.66673   0.29884   0.00000  Uiso   1.00
O130   O     0.25632   0.22828   0.80338   0.00000  Uiso   1.00
O131   O     0.90454   0.79972   0.08656   0.00000  Uiso   1.00
O132   O     0.66108   0.64320   0.56047   0.00000  Uiso   1.00
N133   N     0.22810   0.29907   0.99133   0.00000  Uiso   1.00
N134   N     0.97740   0.70628   0.19311   0.00000  Uiso   1.00
N135   N     0.51650   0.59477   0.53083   0.00000  Uiso   1.00
N136   N     0.29477   0.34644   0.81478   0.00000  Uiso   1.00
N137   N     0.04407   0.75365   0.01656   0.00000  Uiso   1.00
N138   N     0.58317   0.64214   0.35428   0.00000  Uiso   1.00
C139   C     0.76516   0.47083   0.25396   0.00000  Uiso   1.00
C140   C     0.75072   0.52267   0.13844   0.00000  Uiso   1.00
C141   C     0.77571   0.59264   0.13966   0.00000  Uiso   1.00
C142   C     0.75660   0.63134   0.02396   0.00000  Uiso   1.00
C143   C     0.74068   0.71643   0.86172   0.00000  Uiso   1.00
C144   C     0.81982   0.41044   0.19404   0.00000  Uiso   1.00
C145   C     0.90291   0.38605   0.24201   0.00000  Uiso   1.00
C146   C     0.94197   0.33027   0.17312   0.00000  Uiso   1.00
C147   C     0.03330   0.24110   0.09726   0.00000  Uiso   1.00
C148   C     0.67124   0.44119   0.28711   0.00000  Uiso   1.00
C149   C     0.62941   0.44263   0.41334   0.00000  Uiso   1.00
C150   C     0.54338   0.41272   0.42282   0.00000  Uiso   1.00
C151   C     0.40402   0.37128   0.49146   0.00000  Uiso   1.00
C152   C     0.68676   0.41512   0.04634   0.00000  Uiso   1.00
C153   C     0.70813   0.49241   0.02567   0.00000  Uiso   1.00
C154   C     0.68897   0.53101   0.90994   0.00000  Uiso   1.00
C155   C     0.71394   0.60103   0.91099   0.00000  Uiso   1.00
C156   C     0.77724   0.38019   0.08127   0.00000  Uiso   1.00
C157   C     0.81617   0.32442   0.01230   0.00000  Uiso   1.00
C158   C     0.89931   0.29996   0.06015   0.00000  Uiso   1.00
C159   C     0.62865   0.41093   0.17434   0.00000  Uiso   1.00
C160   C     0.54267   0.38100   0.18363   0.00000  Uiso   1.00
C161   C     0.50072   0.38241   0.30985   0.00000  Uiso   1.00
H162   H     0.79832   0.49438   0.34176   0.00000  Uiso   1.00
H163   H     0.80868   0.61604   0.22694   0.00000  Uiso   1.00
H164   H     0.93585   0.40948   0.32929   0.00000  Uiso   1.00
H165   H     0.66239   0.46605   0.50059   0.00000  Uiso   1.00
H166   H     0.80141   0.73757   0.04990   0.00000  Uiso   1.00
H167   H     0.06954   0.30201   0.26573   0.00000  Uiso   1.00
H168   H     0.49290   0.42130   0.62695   0.00000  Uiso   1.00
H169   H     0.65361   0.39156   0.95853   0.00000  Uiso   1.00
H170   H     0.65602   0.50758   0.82269   0.00000  Uiso   1.00
H171   H     0.78320   0.30102   0.92504   0.00000  Uiso   1.00
H172   H     0.50974   0.35759   0.09634   0.00000  Uiso   1.00
H173   H     0.67751   0.64954   0.72179   0.00000  Uiso   1.00
H174   H     0.94565   0.21398   0.93763   0.00000  Uiso   1.00
H175   H     0.36900   0.33327   0.29884   0.00000  Uiso   1.00
O176   O     0.74368   0.77172   0.80338   0.00000  Uiso   1.00
O177   O     0.09546   0.20028   0.08656   0.00000  Uiso   1.00
O178   O     0.33892   0.35680   0.56047   0.00000  Uiso   1.00
N179   N     0.77190   0.70093   0.99133   0.00000  Uiso   1.00
N180   N     0.02260   0.29372   0.19311   0.00000  Uiso   1.00
N181   N     0.48350   0.40523   0.53083   0.00000  Uiso   1.00
N182   N     0.70523   0.65356   0.81478   0.00000  Uiso   1.00
N183   N     0.95593   0.24635   0.01656   0.00000  Uiso   1.00
N184   N     0.41683   0.35786   0.35428   0.00000  Uiso   1.00
