data_job_03722
_audit_creation_date              2018-12-19
_audit_creation_method            'Materials Studio'
_symmetry_space_group_name_H-M    'P1'
_symmetry_Int_Tables_number       1
_symmetry_cell_setting            triclinic
loop_
_symmetry_equiv_pos_as_xyz
  x,y,z
_cell_length_a                    26.1176
_cell_length_b                    23.2488
_cell_length_c                    16.3660
_cell_angle_alpha                 90.0000
_cell_angle_beta                  90.0000
_cell_angle_gamma                 90.0000
loop_
_atom_site_label
_atom_site_type_symbol
_atom_site_fract_x
_atom_site_fract_y
_atom_site_fract_z
_atom_site_U_iso_or_equiv
_atom_site_adp_type
_atom_site_occupancy
C1     C     0.92260   0.09648   0.19563   0.00000  Uiso   1.00
C2     C     0.93769   0.10712   0.10690   0.00000  Uiso   1.00
C3     C     0.98738   0.11092   0.07734   0.00000  Uiso   1.00
C4     C     0.99315   0.12085   0.99420   0.00000  Uiso   1.00
C5     C     0.02304   0.13651   0.86429   0.00000  Uiso   1.00
C6     C     0.88806   0.14655   0.21981   0.00000  Uiso   1.00
C7     C     0.89602   0.18350   0.28519   0.00000  Uiso   1.00
C8     C     0.86000   0.22662   0.29710   0.00000  Uiso   1.00
C9     C     0.81282   0.30346   0.34252   0.00000  Uiso   1.00
C10    C     0.88852   0.04323   0.19502   0.00000  Uiso   1.00
C11    C     0.89685   0.99330   0.23957   0.00000  Uiso   1.00
C12    C     0.86121   0.94944   0.23062   0.00000  Uiso   1.00
C13    C     0.81473   0.86585   0.23754   0.00000  Uiso   1.00
C14    C     0.84449   0.10735   0.10054   0.00000  Uiso   1.00
C15    C     0.89527   0.11303   0.05525   0.00000  Uiso   1.00
C16    C     0.90096   0.12295   0.97213   0.00000  Uiso   1.00
C17    C     0.95065   0.12677   0.94245   0.00000  Uiso   1.00
C18    C     0.84564   0.15246   0.16816   0.00000  Uiso   1.00
C19    C     0.80960   0.19553   0.17998   0.00000  Uiso   1.00
C20    C     0.81750   0.23254   0.24536   0.00000  Uiso   1.00
C21    C     0.84609   0.04913   0.14336   0.00000  Uiso   1.00
C22    C     0.81043   0.00534   0.13435   0.00000  Uiso   1.00
C23    C     0.81871   0.95536   0.17887   0.00000  Uiso   1.00
H24    H     0.95563   0.09188   0.23585   0.00000  Uiso   1.00
H25    H     0.02020   0.10635   0.11734   0.00000  Uiso   1.00
H26    H     0.92885   0.17891   0.32516   0.00000  Uiso   1.00
H27    H     0.92968   0.98875   0.27953   0.00000  Uiso   1.00
H28    H     0.07309   0.12502   0.96317   0.00000  Uiso   1.00
H29    H     0.88045   0.27801   0.40139   0.00000  Uiso   1.00
H30    H     0.88221   0.87701   0.30519   0.00000  Uiso   1.00
H31    H     0.81146   0.11195   0.06032   0.00000  Uiso   1.00
H32    H     0.86813   0.12752   0.93217   0.00000  Uiso   1.00
H33    H     0.77677   0.20009   0.14000   0.00000  Uiso   1.00
H34    H     0.77761   0.00992   0.09437   0.00000  Uiso   1.00
H35    H     0.94966   0.14221   0.81289   0.00000  Uiso   1.00
H36    H     0.75702   0.29520   0.25111   0.00000  Uiso   1.00
H37    H     0.75878   0.89420   0.15490   0.00000  Uiso   1.00
O38    O     0.05125   0.14352   0.80690   0.00000  Uiso   1.00
O39    O     0.79852   0.34422   0.38184   0.00000  Uiso   1.00
O40    O     0.80082   0.81812   0.25562   0.00000  Uiso   1.00
N41    N     0.03626   0.12692   0.94539   0.00000  Uiso   1.00
N42    N     0.85617   0.26996   0.35509   0.00000  Uiso   1.00
N43    N     0.85780   0.89506   0.26516   0.00000  Uiso   1.00
N44    N     0.96985   0.13617   0.86452   0.00000  Uiso   1.00
N45    N     0.78975   0.27921   0.27422   0.00000  Uiso   1.00
N46    N     0.79138   0.90431   0.18430   0.00000  Uiso   1.00
C47    C     0.42260   0.59648   0.19563   0.00000  Uiso   1.00
C48    C     0.43769   0.60712   0.10690   0.00000  Uiso   1.00
C49    C     0.48738   0.61092   0.07734   0.00000  Uiso   1.00
C50    C     0.49315   0.62085   0.99420   0.00000  Uiso   1.00
C51    C     0.52304   0.63651   0.86429   0.00000  Uiso   1.00
C52    C     0.38806   0.64655   0.21981   0.00000  Uiso   1.00
C53    C     0.39602   0.68350   0.28519   0.00000  Uiso   1.00
C54    C     0.36000   0.72662   0.29710   0.00000  Uiso   1.00
C55    C     0.31282   0.80346   0.34252   0.00000  Uiso   1.00
C56    C     0.38852   0.54323   0.19502   0.00000  Uiso   1.00
C57    C     0.39685   0.49330   0.23957   0.00000  Uiso   1.00
C58    C     0.36121   0.44944   0.23062   0.00000  Uiso   1.00
C59    C     0.31473   0.36585   0.23754   0.00000  Uiso   1.00
C60    C     0.34449   0.60735   0.10054   0.00000  Uiso   1.00
C61    C     0.39527   0.61303   0.05525   0.00000  Uiso   1.00
C62    C     0.40096   0.62295   0.97213   0.00000  Uiso   1.00
C63    C     0.45065   0.62677   0.94245   0.00000  Uiso   1.00
C64    C     0.34564   0.65246   0.16816   0.00000  Uiso   1.00
C65    C     0.30960   0.69553   0.17998   0.00000  Uiso   1.00
C66    C     0.31750   0.73254   0.24536   0.00000  Uiso   1.00
C67    C     0.34609   0.54913   0.14336   0.00000  Uiso   1.00
C68    C     0.31043   0.50534   0.13435   0.00000  Uiso   1.00
C69    C     0.31871   0.45536   0.17887   0.00000  Uiso   1.00
H70    H     0.45563   0.59188   0.23585   0.00000  Uiso   1.00
H71    H     0.52020   0.60635   0.11734   0.00000  Uiso   1.00
H72    H     0.42885   0.67891   0.32516   0.00000  Uiso   1.00
H73    H     0.42968   0.48875   0.27953   0.00000  Uiso   1.00
H74    H     0.57309   0.62502   0.96317   0.00000  Uiso   1.00
H75    H     0.38045   0.77801   0.40139   0.00000  Uiso   1.00
H76    H     0.38221   0.37701   0.30519   0.00000  Uiso   1.00
H77    H     0.31146   0.61195   0.06032   0.00000  Uiso   1.00
H78    H     0.36813   0.62752   0.93217   0.00000  Uiso   1.00
H79    H     0.27677   0.70009   0.14000   0.00000  Uiso   1.00
H80    H     0.27761   0.50992   0.09437   0.00000  Uiso   1.00
H81    H     0.44966   0.64221   0.81289   0.00000  Uiso   1.00
H82    H     0.25702   0.79520   0.25111   0.00000  Uiso   1.00
H83    H     0.25878   0.39420   0.15490   0.00000  Uiso   1.00
O84    O     0.55125   0.64352   0.80690   0.00000  Uiso   1.00
O85    O     0.29852   0.84422   0.38184   0.00000  Uiso   1.00
O86    O     0.30082   0.31812   0.25562   0.00000  Uiso   1.00
N87    N     0.53626   0.62692   0.94539   0.00000  Uiso   1.00
N88    N     0.35617   0.76996   0.35509   0.00000  Uiso   1.00
N89    N     0.35780   0.39506   0.26516   0.00000  Uiso   1.00
N90    N     0.46985   0.63617   0.86452   0.00000  Uiso   1.00
N91    N     0.28975   0.77921   0.27422   0.00000  Uiso   1.00
N92    N     0.29138   0.40431   0.18430   0.00000  Uiso   1.00
C93    C     0.07740   0.90352   0.69563   0.00000  Uiso   1.00
C94    C     0.06231   0.89288   0.60690   0.00000  Uiso   1.00
C95    C     0.01262   0.88908   0.57734   0.00000  Uiso   1.00
C96    C     0.00685   0.87915   0.49420   0.00000  Uiso   1.00
C97    C     0.97696   0.86349   0.36429   0.00000  Uiso   1.00
C98    C     0.11194   0.85345   0.71981   0.00000  Uiso   1.00
C99    C     0.10398   0.81650   0.78519   0.00000  Uiso   1.00
C100   C     0.14000   0.77338   0.79710   0.00000  Uiso   1.00
C101   C     0.18718   0.69654   0.84252   0.00000  Uiso   1.00
C102   C     0.11148   0.95677   0.69502   0.00000  Uiso   1.00
C103   C     0.10315   0.00670   0.73957   0.00000  Uiso   1.00
C104   C     0.13879   0.05056   0.73062   0.00000  Uiso   1.00
C105   C     0.18527   0.13415   0.73754   0.00000  Uiso   1.00
C106   C     0.15551   0.89265   0.60054   0.00000  Uiso   1.00
C107   C     0.10473   0.88697   0.55525   0.00000  Uiso   1.00
C108   C     0.09904   0.87705   0.47213   0.00000  Uiso   1.00
C109   C     0.04935   0.87323   0.44245   0.00000  Uiso   1.00
C110   C     0.15436   0.84754   0.66816   0.00000  Uiso   1.00
C111   C     0.19040   0.80447   0.67998   0.00000  Uiso   1.00
C112   C     0.18250   0.76746   0.74536   0.00000  Uiso   1.00
C113   C     0.15391   0.95087   0.64336   0.00000  Uiso   1.00
C114   C     0.18957   0.99466   0.63435   0.00000  Uiso   1.00
C115   C     0.18129   0.04464   0.67887   0.00000  Uiso   1.00
H116   H     0.04437   0.90812   0.73585   0.00000  Uiso   1.00
H117   H     0.97980   0.89365   0.61734   0.00000  Uiso   1.00
H118   H     0.07115   0.82109   0.82516   0.00000  Uiso   1.00
H119   H     0.07032   0.01125   0.77953   0.00000  Uiso   1.00
H120   H     0.92691   0.87498   0.46317   0.00000  Uiso   1.00
H121   H     0.11955   0.72199   0.90139   0.00000  Uiso   1.00
H122   H     0.11779   0.12299   0.80519   0.00000  Uiso   1.00
H123   H     0.18854   0.88805   0.56032   0.00000  Uiso   1.00
H124   H     0.13187   0.87248   0.43217   0.00000  Uiso   1.00
H125   H     0.22323   0.79991   0.64000   0.00000  Uiso   1.00
H126   H     0.22239   0.99008   0.59437   0.00000  Uiso   1.00
H127   H     0.05034   0.85779   0.31289   0.00000  Uiso   1.00
H128   H     0.24298   0.70480   0.75111   0.00000  Uiso   1.00
H129   H     0.24122   0.10580   0.65490   0.00000  Uiso   1.00
O130   O     0.94875   0.85648   0.30690   0.00000  Uiso   1.00
O131   O     0.20148   0.65578   0.88184   0.00000  Uiso   1.00
O132   O     0.19918   0.18188   0.75562   0.00000  Uiso   1.00
N133   N     0.96374   0.87308   0.44539   0.00000  Uiso   1.00
N134   N     0.14383   0.73004   0.85509   0.00000  Uiso   1.00
N135   N     0.14220   0.10494   0.76516   0.00000  Uiso   1.00
N136   N     0.03015   0.86383   0.36452   0.00000  Uiso   1.00
N137   N     0.21025   0.72079   0.77422   0.00000  Uiso   1.00
N138   N     0.20862   0.09569   0.68430   0.00000  Uiso   1.00
C139   C     0.57740   0.40352   0.69563   0.00000  Uiso   1.00
C140   C     0.56231   0.39288   0.60690   0.00000  Uiso   1.00
C141   C     0.51262   0.38908   0.57734   0.00000  Uiso   1.00
C142   C     0.50685   0.37915   0.49420   0.00000  Uiso   1.00
C143   C     0.47696   0.36349   0.36429   0.00000  Uiso   1.00
C144   C     0.61194   0.35345   0.71981   0.00000  Uiso   1.00
C145   C     0.60398   0.31650   0.78519   0.00000  Uiso   1.00
C146   C     0.64000   0.27338   0.79710   0.00000  Uiso   1.00
C147   C     0.68718   0.19654   0.84252   0.00000  Uiso   1.00
C148   C     0.61148   0.45677   0.69502   0.00000  Uiso   1.00
C149   C     0.60315   0.50670   0.73957   0.00000  Uiso   1.00
C150   C     0.63879   0.55056   0.73062   0.00000  Uiso   1.00
C151   C     0.68527   0.63415   0.73754   0.00000  Uiso   1.00
C152   C     0.65551   0.39265   0.60054   0.00000  Uiso   1.00
C153   C     0.60473   0.38697   0.55525   0.00000  Uiso   1.00
C154   C     0.59904   0.37705   0.47213   0.00000  Uiso   1.00
C155   C     0.54935   0.37323   0.44245   0.00000  Uiso   1.00
C156   C     0.65436   0.34754   0.66816   0.00000  Uiso   1.00
C157   C     0.69040   0.30447   0.67998   0.00000  Uiso   1.00
C158   C     0.68250   0.26746   0.74536   0.00000  Uiso   1.00
C159   C     0.65391   0.45087   0.64336   0.00000  Uiso   1.00
C160   C     0.68957   0.49466   0.63435   0.00000  Uiso   1.00
C161   C     0.68129   0.54464   0.67887   0.00000  Uiso   1.00
H162   H     0.54437   0.40812   0.73585   0.00000  Uiso   1.00
H163   H     0.47980   0.39365   0.61734   0.00000  Uiso   1.00
H164   H     0.57115   0.32109   0.82516   0.00000  Uiso   1.00
H165   H     0.57032   0.51125   0.77953   0.00000  Uiso   1.00
H166   H     0.42691   0.37498   0.46317   0.00000  Uiso   1.00
H167   H     0.61955   0.22199   0.90139   0.00000  Uiso   1.00
H168   H     0.61779   0.62299   0.80519   0.00000  Uiso   1.00
H169   H     0.68854   0.38805   0.56032   0.00000  Uiso   1.00
H170   H     0.63187   0.37248   0.43217   0.00000  Uiso   1.00
H171   H     0.72323   0.29991   0.64000   0.00000  Uiso   1.00
H172   H     0.72239   0.49008   0.59437   0.00000  Uiso   1.00
H173   H     0.55034   0.35779   0.31289   0.00000  Uiso   1.00
H174   H     0.74298   0.20480   0.75111   0.00000  Uiso   1.00
H175   H     0.74122   0.60580   0.65490   0.00000  Uiso   1.00
O176   O     0.44875   0.35648   0.30690   0.00000  Uiso   1.00
O177   O     0.70148   0.15578   0.88184   0.00000  Uiso   1.00
O178   O     0.69918   0.68188   0.75562   0.00000  Uiso   1.00
N179   N     0.46374   0.37308   0.44539   0.00000  Uiso   1.00
N180   N     0.64383   0.23004   0.85509   0.00000  Uiso   1.00
N181   N     0.64220   0.60494   0.76516   0.00000  Uiso   1.00
N182   N     0.53015   0.36383   0.36452   0.00000  Uiso   1.00
N183   N     0.71025   0.22079   0.77422   0.00000  Uiso   1.00
N184   N     0.70862   0.59569   0.68430   0.00000  Uiso   1.00
C185   C     0.07740   0.09648   0.30437   0.00000  Uiso   1.00
C186   C     0.06231   0.10712   0.39310   0.00000  Uiso   1.00
C187   C     0.01262   0.11092   0.42266   0.00000  Uiso   1.00
C188   C     0.00685   0.12085   0.50580   0.00000  Uiso   1.00
C189   C     0.97696   0.13651   0.63571   0.00000  Uiso   1.00
C190   C     0.11194   0.14655   0.28019   0.00000  Uiso   1.00
C191   C     0.10398   0.18350   0.21481   0.00000  Uiso   1.00
C192   C     0.14000   0.22662   0.20290   0.00000  Uiso   1.00
C193   C     0.18718   0.30346   0.15748   0.00000  Uiso   1.00
C194   C     0.11148   0.04323   0.30498   0.00000  Uiso   1.00
C195   C     0.10315   0.99330   0.26043   0.00000  Uiso   1.00
C196   C     0.13879   0.94944   0.26938   0.00000  Uiso   1.00
C197   C     0.18527   0.86585   0.26246   0.00000  Uiso   1.00
C198   C     0.15551   0.10735   0.39946   0.00000  Uiso   1.00
C199   C     0.10473   0.11303   0.44475   0.00000  Uiso   1.00
C200   C     0.09904   0.12295   0.52787   0.00000  Uiso   1.00
C201   C     0.04935   0.12677   0.55755   0.00000  Uiso   1.00
C202   C     0.15436   0.15246   0.33184   0.00000  Uiso   1.00
C203   C     0.19040   0.19553   0.32002   0.00000  Uiso   1.00
C204   C     0.18250   0.23254   0.25464   0.00000  Uiso   1.00
C205   C     0.15391   0.04913   0.35664   0.00000  Uiso   1.00
C206   C     0.18957   0.00534   0.36565   0.00000  Uiso   1.00
C207   C     0.18129   0.95536   0.32113   0.00000  Uiso   1.00
H208   H     0.04437   0.09188   0.26415   0.00000  Uiso   1.00
H209   H     0.97980   0.10635   0.38266   0.00000  Uiso   1.00
H210   H     0.07115   0.17891   0.17484   0.00000  Uiso   1.00
H211   H     0.07032   0.98875   0.22047   0.00000  Uiso   1.00
H212   H     0.92691   0.12502   0.53683   0.00000  Uiso   1.00
H213   H     0.11955   0.27801   0.09861   0.00000  Uiso   1.00
H214   H     0.11779   0.87701   0.19481   0.00000  Uiso   1.00
H215   H     0.18854   0.11195   0.43968   0.00000  Uiso   1.00
H216   H     0.13187   0.12752   0.56783   0.00000  Uiso   1.00
H217   H     0.22323   0.20009   0.36000   0.00000  Uiso   1.00
H218   H     0.22239   0.00992   0.40563   0.00000  Uiso   1.00
H219   H     0.05034   0.14221   0.68711   0.00000  Uiso   1.00
H220   H     0.24298   0.29520   0.24889   0.00000  Uiso   1.00
H221   H     0.24122   0.89420   0.34510   0.00000  Uiso   1.00
O222   O     0.94875   0.14352   0.69310   0.00000  Uiso   1.00
O223   O     0.20148   0.34422   0.11816   0.00000  Uiso   1.00
O224   O     0.19918   0.81812   0.24438   0.00000  Uiso   1.00
N225   N     0.96374   0.12692   0.55461   0.00000  Uiso   1.00
N226   N     0.14383   0.26996   0.14491   0.00000  Uiso   1.00
N227   N     0.14220   0.89506   0.23484   0.00000  Uiso   1.00
N228   N     0.03015   0.13617   0.63548   0.00000  Uiso   1.00
N229   N     0.21025   0.27921   0.22578   0.00000  Uiso   1.00
N230   N     0.20862   0.90431   0.31570   0.00000  Uiso   1.00
C231   C     0.57740   0.59648   0.30437   0.00000  Uiso   1.00
C232   C     0.56231   0.60712   0.39310   0.00000  Uiso   1.00
C233   C     0.51262   0.61092   0.42266   0.00000  Uiso   1.00
C234   C     0.50685   0.62085   0.50580   0.00000  Uiso   1.00
C235   C     0.47696   0.63651   0.63571   0.00000  Uiso   1.00
C236   C     0.61194   0.64655   0.28019   0.00000  Uiso   1.00
C237   C     0.60398   0.68350   0.21481   0.00000  Uiso   1.00
C238   C     0.64000   0.72662   0.20290   0.00000  Uiso   1.00
C239   C     0.68718   0.80346   0.15748   0.00000  Uiso   1.00
C240   C     0.61148   0.54323   0.30498   0.00000  Uiso   1.00
C241   C     0.60315   0.49330   0.26043   0.00000  Uiso   1.00
C242   C     0.63879   0.44944   0.26938   0.00000  Uiso   1.00
C243   C     0.68527   0.36585   0.26246   0.00000  Uiso   1.00
C244   C     0.65551   0.60735   0.39946   0.00000  Uiso   1.00
C245   C     0.60473   0.61303   0.44475   0.00000  Uiso   1.00
C246   C     0.59904   0.62295   0.52787   0.00000  Uiso   1.00
C247   C     0.54935   0.62677   0.55755   0.00000  Uiso   1.00
C248   C     0.65436   0.65246   0.33184   0.00000  Uiso   1.00
C249   C     0.69040   0.69553   0.32002   0.00000  Uiso   1.00
C250   C     0.68250   0.73254   0.25464   0.00000  Uiso   1.00
C251   C     0.65391   0.54913   0.35664   0.00000  Uiso   1.00
C252   C     0.68957   0.50534   0.36565   0.00000  Uiso   1.00
C253   C     0.68129   0.45536   0.32113   0.00000  Uiso   1.00
H254   H     0.54437   0.59188   0.26415   0.00000  Uiso   1.00
H255   H     0.47980   0.60635   0.38266   0.00000  Uiso   1.00
H256   H     0.57115   0.67891   0.17484   0.00000  Uiso   1.00
H257   H     0.57032   0.48875   0.22047   0.00000  Uiso   1.00
H258   H     0.42691   0.62502   0.53683   0.00000  Uiso   1.00
H259   H     0.61955   0.77801   0.09861   0.00000  Uiso   1.00
H260   H     0.61779   0.37701   0.19481   0.00000  Uiso   1.00
H261   H     0.68854   0.61195   0.43968   0.00000  Uiso   1.00
H262   H     0.63187   0.62752   0.56783   0.00000  Uiso   1.00
H263   H     0.72323   0.70009   0.36000   0.00000  Uiso   1.00
H264   H     0.72239   0.50992   0.40563   0.00000  Uiso   1.00
H265   H     0.55034   0.64221   0.68711   0.00000  Uiso   1.00
H266   H     0.74298   0.79520   0.24889   0.00000  Uiso   1.00
H267   H     0.74122   0.39420   0.34510   0.00000  Uiso   1.00
O268   O     0.44875   0.64352   0.69310   0.00000  Uiso   1.00
O269   O     0.70148   0.84422   0.11816   0.00000  Uiso   1.00
O270   O     0.69918   0.31812   0.24438   0.00000  Uiso   1.00
N271   N     0.46374   0.62692   0.55461   0.00000  Uiso   1.00
N272   N     0.64383   0.76996   0.14491   0.00000  Uiso   1.00
N273   N     0.64220   0.39506   0.23484   0.00000  Uiso   1.00
N274   N     0.53015   0.63617   0.63548   0.00000  Uiso   1.00
N275   N     0.71025   0.77921   0.22578   0.00000  Uiso   1.00
N276   N     0.70862   0.40431   0.31570   0.00000  Uiso   1.00
C277   C     0.92260   0.90352   0.80437   0.00000  Uiso   1.00
C278   C     0.93769   0.89288   0.89310   0.00000  Uiso   1.00
C279   C     0.98738   0.88908   0.92266   0.00000  Uiso   1.00
C280   C     0.99315   0.87915   0.00580   0.00000  Uiso   1.00
C281   C     0.02304   0.86349   0.13571   0.00000  Uiso   1.00
C282   C     0.88806   0.85345   0.78019   0.00000  Uiso   1.00
C283   C     0.89602   0.81650   0.71481   0.00000  Uiso   1.00
C284   C     0.86000   0.77338   0.70290   0.00000  Uiso   1.00
C285   C     0.81282   0.69654   0.65748   0.00000  Uiso   1.00
C286   C     0.88852   0.95677   0.80498   0.00000  Uiso   1.00
C287   C     0.89685   0.00670   0.76043   0.00000  Uiso   1.00
C288   C     0.86121   0.05056   0.76938   0.00000  Uiso   1.00
C289   C     0.81473   0.13415   0.76246   0.00000  Uiso   1.00
C290   C     0.84449   0.89265   0.89946   0.00000  Uiso   1.00
C291   C     0.89527   0.88697   0.94475   0.00000  Uiso   1.00
C292   C     0.90096   0.87705   0.02787   0.00000  Uiso   1.00
C293   C     0.95065   0.87323   0.05755   0.00000  Uiso   1.00
C294   C     0.84564   0.84754   0.83184   0.00000  Uiso   1.00
C295   C     0.80960   0.80447   0.82002   0.00000  Uiso   1.00
C296   C     0.81750   0.76746   0.75464   0.00000  Uiso   1.00
C297   C     0.84609   0.95087   0.85664   0.00000  Uiso   1.00
C298   C     0.81043   0.99466   0.86565   0.00000  Uiso   1.00
C299   C     0.81871   0.04464   0.82113   0.00000  Uiso   1.00
H300   H     0.95563   0.90812   0.76415   0.00000  Uiso   1.00
H301   H     0.02020   0.89365   0.88266   0.00000  Uiso   1.00
H302   H     0.92885   0.82109   0.67484   0.00000  Uiso   1.00
H303   H     0.92968   0.01125   0.72047   0.00000  Uiso   1.00
H304   H     0.07309   0.87498   0.03683   0.00000  Uiso   1.00
H305   H     0.88045   0.72199   0.59861   0.00000  Uiso   1.00
H306   H     0.88221   0.12299   0.69481   0.00000  Uiso   1.00
H307   H     0.81146   0.88805   0.93968   0.00000  Uiso   1.00
H308   H     0.86813   0.87248   0.06783   0.00000  Uiso   1.00
H309   H     0.77677   0.79991   0.86000   0.00000  Uiso   1.00
H310   H     0.77761   0.99008   0.90563   0.00000  Uiso   1.00
H311   H     0.94966   0.85779   0.18711   0.00000  Uiso   1.00
H312   H     0.75702   0.70480   0.74889   0.00000  Uiso   1.00
H313   H     0.75878   0.10580   0.84510   0.00000  Uiso   1.00
O314   O     0.05125   0.85648   0.19310   0.00000  Uiso   1.00
O315   O     0.79852   0.65578   0.61816   0.00000  Uiso   1.00
O316   O     0.80082   0.18188   0.74438   0.00000  Uiso   1.00
N317   N     0.03626   0.87308   0.05461   0.00000  Uiso   1.00
N318   N     0.85617   0.73004   0.64491   0.00000  Uiso   1.00
N319   N     0.85780   0.10494   0.73484   0.00000  Uiso   1.00
N320   N     0.96985   0.86383   0.13548   0.00000  Uiso   1.00
N321   N     0.78975   0.72079   0.72578   0.00000  Uiso   1.00
N322   N     0.79138   0.09569   0.81570   0.00000  Uiso   1.00
C323   C     0.42260   0.40352   0.80437   0.00000  Uiso   1.00
C324   C     0.43769   0.39288   0.89310   0.00000  Uiso   1.00
C325   C     0.48738   0.38908   0.92266   0.00000  Uiso   1.00
C326   C     0.49315   0.37915   0.00580   0.00000  Uiso   1.00
C327   C     0.52304   0.36349   0.13571   0.00000  Uiso   1.00
C328   C     0.38806   0.35345   0.78019   0.00000  Uiso   1.00
C329   C     0.39602   0.31650   0.71481   0.00000  Uiso   1.00
C330   C     0.36000   0.27338   0.70290   0.00000  Uiso   1.00
C331   C     0.31282   0.19654   0.65748   0.00000  Uiso   1.00
C332   C     0.38852   0.45677   0.80498   0.00000  Uiso   1.00
C333   C     0.39685   0.50670   0.76043   0.00000  Uiso   1.00
C334   C     0.36121   0.55056   0.76938   0.00000  Uiso   1.00
C335   C     0.31473   0.63415   0.76246   0.00000  Uiso   1.00
C336   C     0.34449   0.39265   0.89946   0.00000  Uiso   1.00
C337   C     0.39527   0.38697   0.94475   0.00000  Uiso   1.00
C338   C     0.40096   0.37705   0.02787   0.00000  Uiso   1.00
C339   C     0.45065   0.37323   0.05755   0.00000  Uiso   1.00
C340   C     0.34564   0.34754   0.83184   0.00000  Uiso   1.00
C341   C     0.30960   0.30447   0.82002   0.00000  Uiso   1.00
C342   C     0.31750   0.26746   0.75464   0.00000  Uiso   1.00
C343   C     0.34609   0.45087   0.85664   0.00000  Uiso   1.00
C344   C     0.31043   0.49466   0.86565   0.00000  Uiso   1.00
C345   C     0.31871   0.54464   0.82113   0.00000  Uiso   1.00
H346   H     0.45563   0.40812   0.76415   0.00000  Uiso   1.00
H347   H     0.52020   0.39365   0.88266   0.00000  Uiso   1.00
H348   H     0.42885   0.32109   0.67484   0.00000  Uiso   1.00
H349   H     0.42968   0.51125   0.72047   0.00000  Uiso   1.00
H350   H     0.57309   0.37498   0.03683   0.00000  Uiso   1.00
H351   H     0.38045   0.22199   0.59861   0.00000  Uiso   1.00
H352   H     0.38221   0.62299   0.69481   0.00000  Uiso   1.00
H353   H     0.31146   0.38805   0.93968   0.00000  Uiso   1.00
H354   H     0.36813   0.37248   0.06783   0.00000  Uiso   1.00
H355   H     0.27677   0.29991   0.86000   0.00000  Uiso   1.00
H356   H     0.27761   0.49008   0.90563   0.00000  Uiso   1.00
H357   H     0.44966   0.35779   0.18711   0.00000  Uiso   1.00
H358   H     0.25702   0.20480   0.74889   0.00000  Uiso   1.00
H359   H     0.25878   0.60580   0.84510   0.00000  Uiso   1.00
O360   O     0.55125   0.35648   0.19310   0.00000  Uiso   1.00
O361   O     0.29852   0.15578   0.61816   0.00000  Uiso   1.00
O362   O     0.30082   0.68188   0.74438   0.00000  Uiso   1.00
N363   N     0.53626   0.37308   0.05461   0.00000  Uiso   1.00
N364   N     0.35617   0.23004   0.64491   0.00000  Uiso   1.00
N365   N     0.35780   0.60494   0.73484   0.00000  Uiso   1.00
N366   N     0.46985   0.36383   0.13548   0.00000  Uiso   1.00
N367   N     0.28975   0.22079   0.72578   0.00000  Uiso   1.00
N368   N     0.29138   0.59569   0.81570   0.00000  Uiso   1.00
