data_job_02664
_audit_creation_date              2018-12-19
_audit_creation_method            'Materials Studio'
_symmetry_space_group_name_H-M    'P1'
_symmetry_Int_Tables_number       1
_symmetry_cell_setting            triclinic
loop_
_symmetry_equiv_pos_as_xyz
  x,y,z
_cell_length_a                    10.6312
_cell_length_b                    13.5027
_cell_length_c                    10.2132
_cell_angle_alpha                 90.0000
_cell_angle_beta                  65.9847
_cell_angle_gamma                 90.0000
loop_
_atom_site_label
_atom_site_type_symbol
_atom_site_fract_x
_atom_site_fract_y
_atom_site_fract_z
_atom_site_U_iso_or_equiv
_atom_site_adp_type
_atom_site_occupancy
C1     C     0.91303   0.41083   0.90992   0.00000  Uiso   1.00
C2     C     0.83988   0.31318   0.91279   0.00000  Uiso   1.00
C3     C     0.77988   0.25172   0.03098   0.00000  Uiso   1.00
C4     C     0.71805   0.16564   0.01168   0.00000  Uiso   1.00
C5     C     0.60479   0.01760   0.03632   0.00000  Uiso   1.00
C6     C     0.05715   0.40058   0.79114   0.00000  Uiso   1.00
C7     C     0.17982   0.41261   0.80706   0.00000  Uiso   1.00
C8     C     0.30088   0.40011   0.68535   0.00000  Uiso   1.00
C9     C     0.52493   0.38782   0.52111   0.00000  Uiso   1.00
C10    C     0.83992   0.48885   0.85831   0.00000  Uiso   1.00
C11    C     0.77997   0.57512   0.93067   0.00000  Uiso   1.00
C12    C     0.71817   0.63695   0.86550   0.00000  Uiso   1.00
C13    C     0.60494   0.76172   0.80554   0.00000  Uiso   1.00
C14    C     0.90990   0.36724   0.66548   0.00000  Uiso   1.00
C15    C     0.83819   0.28951   0.78002   0.00000  Uiso   1.00
C16    C     0.77642   0.20349   0.76054   0.00000  Uiso   1.00
C17    C     0.71634   0.14192   0.87868   0.00000  Uiso   1.00
C18    C     0.05545   0.37690   0.65838   0.00000  Uiso   1.00
C19    C     0.17636   0.36438   0.53662   0.00000  Uiso   1.00
C20    C     0.29918   0.37639   0.55235   0.00000  Uiso   1.00
C21    C     0.83822   0.46517   0.72554   0.00000  Uiso   1.00
C22    C     0.77650   0.52689   0.66024   0.00000  Uiso   1.00
C23    C     0.71647   0.61323   0.73249   0.00000  Uiso   1.00
H24    H     0.91436   0.42926   0.01328   0.00000  Uiso   1.00
H25    H     0.78123   0.27007   0.13370   0.00000  Uiso   1.00
H26    H     0.18110   0.43094   0.90981   0.00000  Uiso   1.00
H27    H     0.78131   0.59342   0.03341   0.00000  Uiso   1.00
H28    H     0.63293   0.08311   0.20865   0.00000  Uiso   1.00
H29    H     0.47608   0.42236   0.73656   0.00000  Uiso   1.00
H30    H     0.63304   0.76498   0.99719   0.00000  Uiso   1.00
H31    H     0.90858   0.34880   0.56211   0.00000  Uiso   1.00
H32    H     0.77512   0.18519   0.65778   0.00000  Uiso   1.00
H33    H     0.17500   0.34606   0.43390   0.00000  Uiso   1.00
H34    H     0.77521   0.50854   0.55750   0.00000  Uiso   1.00
H35    H     0.62798   0.01422   0.82238   0.00000  Uiso   1.00
H36    H     0.47113   0.35347   0.35028   0.00000  Uiso   1.00
H37    H     0.62809   0.69609   0.61092   0.00000  Uiso   1.00
O38    O     0.54281   0.94247   0.08658   0.00000  Uiso   1.00
O39    O     0.64898   0.38757   0.46721   0.00000  Uiso   1.00
O40    O     0.54294   0.83707   0.80915   0.00000  Uiso   1.00
N41    N     0.65005   0.08936   0.10462   0.00000  Uiso   1.00
N42    N     0.43835   0.40652   0.66324   0.00000  Uiso   1.00
N43    N     0.65021   0.72686   0.90690   0.00000  Uiso   1.00
N44    N     0.64739   0.05229   0.89677   0.00000  Uiso   1.00
N45    N     0.43568   0.36945   0.45539   0.00000  Uiso   1.00
N46    N     0.64755   0.68979   0.69905   0.00000  Uiso   1.00
C47    C     0.08697   0.91083   0.09008   0.00000  Uiso   1.00
C48    C     0.16012   0.81318   0.08721   0.00000  Uiso   1.00
C49    C     0.22012   0.75172   0.96902   0.00000  Uiso   1.00
C50    C     0.28195   0.66564   0.98832   0.00000  Uiso   1.00
C51    C     0.39521   0.51760   0.96368   0.00000  Uiso   1.00
C52    C     0.94285   0.90058   0.20886   0.00000  Uiso   1.00
C53    C     0.82018   0.91261   0.19294   0.00000  Uiso   1.00
C54    C     0.69912   0.90011   0.31465   0.00000  Uiso   1.00
C55    C     0.47507   0.88782   0.47889   0.00000  Uiso   1.00
C56    C     0.16008   0.98885   0.14169   0.00000  Uiso   1.00
C57    C     0.22003   0.07512   0.06933   0.00000  Uiso   1.00
C58    C     0.28183   0.13695   0.13450   0.00000  Uiso   1.00
C59    C     0.39506   0.26172   0.19446   0.00000  Uiso   1.00
C60    C     0.09010   0.86724   0.33452   0.00000  Uiso   1.00
C61    C     0.16181   0.78951   0.21998   0.00000  Uiso   1.00
C62    C     0.22358   0.70349   0.23946   0.00000  Uiso   1.00
C63    C     0.28366   0.64192   0.12132   0.00000  Uiso   1.00
C64    C     0.94455   0.87690   0.34162   0.00000  Uiso   1.00
C65    C     0.82364   0.86438   0.46338   0.00000  Uiso   1.00
C66    C     0.70082   0.87639   0.44765   0.00000  Uiso   1.00
C67    C     0.16178   0.96517   0.27446   0.00000  Uiso   1.00
C68    C     0.22350   0.02689   0.33976   0.00000  Uiso   1.00
C69    C     0.28353   0.11323   0.26751   0.00000  Uiso   1.00
H70    H     0.08564   0.92926   0.98672   0.00000  Uiso   1.00
H71    H     0.21877   0.77007   0.86630   0.00000  Uiso   1.00
H72    H     0.81890   0.93094   0.09019   0.00000  Uiso   1.00
H73    H     0.21869   0.09342   0.96659   0.00000  Uiso   1.00
H74    H     0.36707   0.58311   0.79135   0.00000  Uiso   1.00
H75    H     0.52392   0.92236   0.26344   0.00000  Uiso   1.00
H76    H     0.36696   0.26498   0.00281   0.00000  Uiso   1.00
H77    H     0.09142   0.84880   0.43789   0.00000  Uiso   1.00
H78    H     0.22488   0.68519   0.34222   0.00000  Uiso   1.00
H79    H     0.82500   0.84606   0.56610   0.00000  Uiso   1.00
H80    H     0.22479   0.00854   0.44250   0.00000  Uiso   1.00
H81    H     0.37202   0.51422   0.17762   0.00000  Uiso   1.00
H82    H     0.52887   0.85347   0.64972   0.00000  Uiso   1.00
H83    H     0.37191   0.19609   0.38908   0.00000  Uiso   1.00
O84    O     0.45719   0.44247   0.91342   0.00000  Uiso   1.00
O85    O     0.35102   0.88757   0.53279   0.00000  Uiso   1.00
O86    O     0.45706   0.33707   0.19085   0.00000  Uiso   1.00
N87    N     0.34995   0.58936   0.89538   0.00000  Uiso   1.00
N88    N     0.56165   0.90652   0.33676   0.00000  Uiso   1.00
N89    N     0.34979   0.22686   0.09310   0.00000  Uiso   1.00
N90    N     0.35261   0.55229   0.10323   0.00000  Uiso   1.00
N91    N     0.56432   0.86945   0.54461   0.00000  Uiso   1.00
N92    N     0.35245   0.18979   0.30095   0.00000  Uiso   1.00
