data_job_05811
_audit_creation_date              2018-12-19
_audit_creation_method            'Materials Studio'
_symmetry_space_group_name_H-M    'P1'
_symmetry_Int_Tables_number       1
_symmetry_cell_setting            triclinic
loop_
_symmetry_equiv_pos_as_xyz
  x,y,z
_cell_length_a                    15.3162
_cell_length_b                    18.3817
_cell_length_c                    17.4012
_cell_angle_alpha                 90.0000
_cell_angle_beta                  90.0000
_cell_angle_gamma                 90.0000
loop_
_atom_site_label
_atom_site_type_symbol
_atom_site_fract_x
_atom_site_fract_y
_atom_site_fract_z
_atom_site_U_iso_or_equiv
_atom_site_adp_type
_atom_site_occupancy
C1     C     0.97016   0.50548   0.28169   0.00000  Uiso   1.00
C2     C     0.04557   0.47322   0.32766   0.00000  Uiso   1.00
C3     C     0.05931   0.48209   0.40593   0.00000  Uiso   1.00
C4     C     0.13211   0.44819   0.43720   0.00000  Uiso   1.00
C5     C     0.24056   0.40440   0.51548   0.00000  Uiso   1.00
C6     C     0.01182   0.54976   0.21729   0.00000  Uiso   1.00
C7     C     0.99718   0.62299   0.20276   0.00000  Uiso   1.00
C8     C     0.04156   0.65353   0.14112   0.00000  Uiso   1.00
C9     C     0.09756   0.72857   0.04802   0.00000  Uiso   1.00
C10    C     0.92495   0.44139   0.24279   0.00000  Uiso   1.00
C11    C     0.83727   0.42351   0.24968   0.00000  Uiso   1.00
C12    C     0.80851   0.36282   0.20949   0.00000  Uiso   1.00
C13    C     0.72964   0.26960   0.15599   0.00000  Uiso   1.00
C14    C     0.07500   0.42950   0.19804   0.00000  Uiso   1.00
C15    C     0.10251   0.43195   0.28222   0.00000  Uiso   1.00
C16    C     0.17531   0.39802   0.31338   0.00000  Uiso   1.00
C17    C     0.18916   0.40684   0.39168   0.00000  Uiso   1.00
C18    C     0.06876   0.50850   0.17186   0.00000  Uiso   1.00
C19    C     0.11317   0.53893   0.11022   0.00000  Uiso   1.00
C20    C     0.09861   0.61219   0.09560   0.00000  Uiso   1.00
C21    C     0.98190   0.40012   0.19736   0.00000  Uiso   1.00
C22    C     0.95326   0.33945   0.15714   0.00000  Uiso   1.00
C23    C     0.86556   0.32148   0.16397   0.00000  Uiso   1.00
H24    H     0.92583   0.53761   0.31706   0.00000  Uiso   1.00
H25    H     0.01523   0.51403   0.44107   0.00000  Uiso   1.00
H26    H     0.95310   0.65491   0.23793   0.00000  Uiso   1.00
H27    H     0.79322   0.45546   0.28485   0.00000  Uiso   1.00
H28    H     0.13949   0.46972   0.55851   0.00000  Uiso   1.00
H29    H     0.00845   0.76677   0.13017   0.00000  Uiso   1.00
H30    H     0.67131   0.34618   0.22910   0.00000  Uiso   1.00
H31    H     0.11934   0.39737   0.16267   0.00000  Uiso   1.00
H32    H     0.21936   0.36609   0.27821   0.00000  Uiso   1.00
H33    H     0.15723   0.50698   0.07507   0.00000  Uiso   1.00
H34    H     0.99735   0.30753   0.12199   0.00000  Uiso   1.00
H35    H     0.30517   0.34965   0.42633   0.00000  Uiso   1.00
H36    H     0.17413   0.64670   0.99799   0.00000  Uiso   1.00
H37    H     0.83699   0.22611   0.09692   0.00000  Uiso   1.00
O38    O     0.28465   0.39166   0.57121   0.00000  Uiso   1.00
O39    O     0.11272   0.78137   0.00923   0.00000  Uiso   1.00
O40    O     0.67040   0.22958   0.13903   0.00000  Uiso   1.00
N41    N     0.16474   0.44574   0.51155   0.00000  Uiso   1.00
N42    N     0.04224   0.72347   0.11108   0.00000  Uiso   1.00
N43    N     0.72704   0.33027   0.20356   0.00000  Uiso   1.00
N44    N     0.25389   0.38113   0.44042   0.00000  Uiso   1.00
N45    N     0.13139   0.65886   0.03996   0.00000  Uiso   1.00
N46    N     0.81619   0.26566   0.13243   0.00000  Uiso   1.00
C47    C     0.52984   0.49452   0.28169   0.00000  Uiso   1.00
C48    C     0.45443   0.52678   0.32766   0.00000  Uiso   1.00
C49    C     0.44069   0.51791   0.40593   0.00000  Uiso   1.00
C50    C     0.36789   0.55181   0.43720   0.00000  Uiso   1.00
C51    C     0.25944   0.59560   0.51548   0.00000  Uiso   1.00
C52    C     0.48818   0.45024   0.21729   0.00000  Uiso   1.00
C53    C     0.50282   0.37701   0.20276   0.00000  Uiso   1.00
C54    C     0.45844   0.34647   0.14112   0.00000  Uiso   1.00
C55    C     0.40244   0.27143   0.04802   0.00000  Uiso   1.00
C56    C     0.57505   0.55861   0.24279   0.00000  Uiso   1.00
C57    C     0.66273   0.57649   0.24968   0.00000  Uiso   1.00
C58    C     0.69149   0.63718   0.20949   0.00000  Uiso   1.00
C59    C     0.77036   0.73040   0.15599   0.00000  Uiso   1.00
C60    C     0.42500   0.57050   0.19804   0.00000  Uiso   1.00
C61    C     0.39749   0.56805   0.28222   0.00000  Uiso   1.00
C62    C     0.32469   0.60198   0.31338   0.00000  Uiso   1.00
C63    C     0.31084   0.59316   0.39168   0.00000  Uiso   1.00
C64    C     0.43124   0.49150   0.17186   0.00000  Uiso   1.00
C65    C     0.38683   0.46107   0.11022   0.00000  Uiso   1.00
C66    C     0.40139   0.38781   0.09560   0.00000  Uiso   1.00
C67    C     0.51810   0.59988   0.19736   0.00000  Uiso   1.00
C68    C     0.54674   0.66055   0.15714   0.00000  Uiso   1.00
C69    C     0.63444   0.67852   0.16397   0.00000  Uiso   1.00
H70    H     0.57417   0.46239   0.31706   0.00000  Uiso   1.00
H71    H     0.48477   0.48597   0.44107   0.00000  Uiso   1.00
H72    H     0.54690   0.34509   0.23793   0.00000  Uiso   1.00
H73    H     0.70678   0.54454   0.28485   0.00000  Uiso   1.00
H74    H     0.36051   0.53028   0.55851   0.00000  Uiso   1.00
H75    H     0.49155   0.23323   0.13017   0.00000  Uiso   1.00
H76    H     0.82869   0.65382   0.22910   0.00000  Uiso   1.00
H77    H     0.38066   0.60263   0.16267   0.00000  Uiso   1.00
H78    H     0.28064   0.63391   0.27821   0.00000  Uiso   1.00
H79    H     0.34277   0.49302   0.07507   0.00000  Uiso   1.00
H80    H     0.50265   0.69247   0.12199   0.00000  Uiso   1.00
H81    H     0.19483   0.65035   0.42633   0.00000  Uiso   1.00
H82    H     0.32587   0.35330   0.99799   0.00000  Uiso   1.00
H83    H     0.66301   0.77389   0.09692   0.00000  Uiso   1.00
O84    O     0.21535   0.60834   0.57121   0.00000  Uiso   1.00
O85    O     0.38728   0.21863   0.00923   0.00000  Uiso   1.00
O86    O     0.82960   0.77042   0.13903   0.00000  Uiso   1.00
N87    N     0.33526   0.55426   0.51155   0.00000  Uiso   1.00
N88    N     0.45776   0.27653   0.11108   0.00000  Uiso   1.00
N89    N     0.77296   0.66973   0.20356   0.00000  Uiso   1.00
N90    N     0.24611   0.61887   0.44042   0.00000  Uiso   1.00
N91    N     0.36861   0.34114   0.03996   0.00000  Uiso   1.00
N92    N     0.68381   0.73434   0.13243   0.00000  Uiso   1.00
C93    C     0.52984   0.00548   0.21831   0.00000  Uiso   1.00
C94    C     0.45443   0.97322   0.17234   0.00000  Uiso   1.00
C95    C     0.44069   0.98209   0.09407   0.00000  Uiso   1.00
C96    C     0.36789   0.94819   0.06280   0.00000  Uiso   1.00
C97    C     0.25944   0.90440   0.98452   0.00000  Uiso   1.00
C98    C     0.48818   0.04976   0.28271   0.00000  Uiso   1.00
C99    C     0.50282   0.12299   0.29724   0.00000  Uiso   1.00
C100   C     0.45844   0.15353   0.35888   0.00000  Uiso   1.00
C101   C     0.40244   0.22857   0.45198   0.00000  Uiso   1.00
C102   C     0.57505   0.94139   0.25721   0.00000  Uiso   1.00
C103   C     0.66273   0.92351   0.25032   0.00000  Uiso   1.00
C104   C     0.69149   0.86282   0.29051   0.00000  Uiso   1.00
C105   C     0.77036   0.76960   0.34401   0.00000  Uiso   1.00
C106   C     0.42500   0.92950   0.30196   0.00000  Uiso   1.00
C107   C     0.39749   0.93195   0.21778   0.00000  Uiso   1.00
C108   C     0.32469   0.89802   0.18662   0.00000  Uiso   1.00
C109   C     0.31084   0.90684   0.10832   0.00000  Uiso   1.00
C110   C     0.43124   0.00850   0.32814   0.00000  Uiso   1.00
C111   C     0.38683   0.03893   0.38978   0.00000  Uiso   1.00
C112   C     0.40139   0.11219   0.40440   0.00000  Uiso   1.00
C113   C     0.51810   0.90012   0.30264   0.00000  Uiso   1.00
C114   C     0.54674   0.83945   0.34286   0.00000  Uiso   1.00
C115   C     0.63444   0.82148   0.33603   0.00000  Uiso   1.00
H116   H     0.57417   0.03761   0.18294   0.00000  Uiso   1.00
H117   H     0.48477   0.01403   0.05893   0.00000  Uiso   1.00
H118   H     0.54690   0.15491   0.26207   0.00000  Uiso   1.00
H119   H     0.70678   0.95546   0.21515   0.00000  Uiso   1.00
H120   H     0.36051   0.96972   0.94149   0.00000  Uiso   1.00
H121   H     0.49155   0.26677   0.36983   0.00000  Uiso   1.00
H122   H     0.82869   0.84618   0.27090   0.00000  Uiso   1.00
H123   H     0.38066   0.89737   0.33733   0.00000  Uiso   1.00
H124   H     0.28064   0.86609   0.22179   0.00000  Uiso   1.00
H125   H     0.34277   0.00698   0.42493   0.00000  Uiso   1.00
H126   H     0.50265   0.80753   0.37801   0.00000  Uiso   1.00
H127   H     0.19483   0.84965   0.07367   0.00000  Uiso   1.00
H128   H     0.32587   0.14670   0.50201   0.00000  Uiso   1.00
H129   H     0.66301   0.72611   0.40308   0.00000  Uiso   1.00
O130   O     0.21535   0.89166   0.92879   0.00000  Uiso   1.00
O131   O     0.38728   0.28137   0.49077   0.00000  Uiso   1.00
O132   O     0.82960   0.72958   0.36097   0.00000  Uiso   1.00
N133   N     0.33526   0.94574   0.98845   0.00000  Uiso   1.00
N134   N     0.45776   0.22347   0.38892   0.00000  Uiso   1.00
N135   N     0.77296   0.83027   0.29644   0.00000  Uiso   1.00
N136   N     0.24611   0.88113   0.05958   0.00000  Uiso   1.00
N137   N     0.36861   0.15886   0.46004   0.00000  Uiso   1.00
N138   N     0.68381   0.76566   0.36757   0.00000  Uiso   1.00
C139   C     0.97016   0.99452   0.21831   0.00000  Uiso   1.00
C140   C     0.04557   0.02678   0.17234   0.00000  Uiso   1.00
C141   C     0.05931   0.01791   0.09407   0.00000  Uiso   1.00
C142   C     0.13211   0.05181   0.06280   0.00000  Uiso   1.00
C143   C     0.24056   0.09560   0.98452   0.00000  Uiso   1.00
C144   C     0.01182   0.95024   0.28271   0.00000  Uiso   1.00
C145   C     0.99718   0.87701   0.29724   0.00000  Uiso   1.00
C146   C     0.04156   0.84647   0.35888   0.00000  Uiso   1.00
C147   C     0.09756   0.77143   0.45198   0.00000  Uiso   1.00
C148   C     0.92495   0.05861   0.25721   0.00000  Uiso   1.00
C149   C     0.83727   0.07649   0.25032   0.00000  Uiso   1.00
C150   C     0.80851   0.13718   0.29051   0.00000  Uiso   1.00
C151   C     0.72964   0.23040   0.34401   0.00000  Uiso   1.00
C152   C     0.07500   0.07050   0.30196   0.00000  Uiso   1.00
C153   C     0.10251   0.06805   0.21778   0.00000  Uiso   1.00
C154   C     0.17531   0.10198   0.18662   0.00000  Uiso   1.00
C155   C     0.18916   0.09316   0.10832   0.00000  Uiso   1.00
C156   C     0.06876   0.99150   0.32814   0.00000  Uiso   1.00
C157   C     0.11317   0.96107   0.38978   0.00000  Uiso   1.00
C158   C     0.09861   0.88781   0.40440   0.00000  Uiso   1.00
C159   C     0.98190   0.09988   0.30264   0.00000  Uiso   1.00
C160   C     0.95326   0.16055   0.34286   0.00000  Uiso   1.00
C161   C     0.86556   0.17852   0.33603   0.00000  Uiso   1.00
H162   H     0.92583   0.96239   0.18294   0.00000  Uiso   1.00
H163   H     0.01523   0.98597   0.05893   0.00000  Uiso   1.00
H164   H     0.95310   0.84509   0.26207   0.00000  Uiso   1.00
H165   H     0.79322   0.04454   0.21515   0.00000  Uiso   1.00
H166   H     0.13949   0.03028   0.94149   0.00000  Uiso   1.00
H167   H     0.00845   0.73323   0.36983   0.00000  Uiso   1.00
H168   H     0.67131   0.15382   0.27090   0.00000  Uiso   1.00
H169   H     0.11934   0.10263   0.33733   0.00000  Uiso   1.00
H170   H     0.21936   0.13391   0.22179   0.00000  Uiso   1.00
H171   H     0.15723   0.99302   0.42493   0.00000  Uiso   1.00
H172   H     0.99735   0.19247   0.37801   0.00000  Uiso   1.00
H173   H     0.30517   0.15035   0.07367   0.00000  Uiso   1.00
H174   H     0.17413   0.85330   0.50201   0.00000  Uiso   1.00
H175   H     0.83699   0.27389   0.40308   0.00000  Uiso   1.00
O176   O     0.28465   0.10834   0.92879   0.00000  Uiso   1.00
O177   O     0.11272   0.71863   0.49077   0.00000  Uiso   1.00
O178   O     0.67040   0.27042   0.36097   0.00000  Uiso   1.00
N179   N     0.16474   0.05426   0.98845   0.00000  Uiso   1.00
N180   N     0.04224   0.77653   0.38892   0.00000  Uiso   1.00
N181   N     0.72704   0.16973   0.29644   0.00000  Uiso   1.00
N182   N     0.25389   0.11887   0.05958   0.00000  Uiso   1.00
N183   N     0.13139   0.84114   0.46004   0.00000  Uiso   1.00
N184   N     0.81619   0.23434   0.36757   0.00000  Uiso   1.00
C185   C     0.02984   0.49452   0.71831   0.00000  Uiso   1.00
C186   C     0.95443   0.52678   0.67234   0.00000  Uiso   1.00
C187   C     0.94069   0.51791   0.59407   0.00000  Uiso   1.00
C188   C     0.86789   0.55181   0.56280   0.00000  Uiso   1.00
C189   C     0.75944   0.59560   0.48452   0.00000  Uiso   1.00
C190   C     0.98818   0.45024   0.78271   0.00000  Uiso   1.00
C191   C     0.00282   0.37701   0.79724   0.00000  Uiso   1.00
C192   C     0.95844   0.34647   0.85888   0.00000  Uiso   1.00
C193   C     0.90244   0.27143   0.95198   0.00000  Uiso   1.00
C194   C     0.07505   0.55861   0.75721   0.00000  Uiso   1.00
C195   C     0.16273   0.57649   0.75032   0.00000  Uiso   1.00
C196   C     0.19149   0.63718   0.79051   0.00000  Uiso   1.00
C197   C     0.27036   0.73040   0.84401   0.00000  Uiso   1.00
C198   C     0.92500   0.57050   0.80196   0.00000  Uiso   1.00
C199   C     0.89749   0.56805   0.71778   0.00000  Uiso   1.00
C200   C     0.82469   0.60198   0.68662   0.00000  Uiso   1.00
C201   C     0.81084   0.59316   0.60832   0.00000  Uiso   1.00
C202   C     0.93124   0.49150   0.82814   0.00000  Uiso   1.00
C203   C     0.88683   0.46107   0.88978   0.00000  Uiso   1.00
C204   C     0.90139   0.38781   0.90440   0.00000  Uiso   1.00
C205   C     0.01810   0.59988   0.80264   0.00000  Uiso   1.00
C206   C     0.04674   0.66055   0.84286   0.00000  Uiso   1.00
C207   C     0.13444   0.67852   0.83603   0.00000  Uiso   1.00
H208   H     0.07417   0.46239   0.68294   0.00000  Uiso   1.00
H209   H     0.98477   0.48597   0.55893   0.00000  Uiso   1.00
H210   H     0.04690   0.34509   0.76207   0.00000  Uiso   1.00
H211   H     0.20678   0.54454   0.71515   0.00000  Uiso   1.00
H212   H     0.86051   0.53028   0.44149   0.00000  Uiso   1.00
H213   H     0.99155   0.23323   0.86983   0.00000  Uiso   1.00
H214   H     0.32869   0.65382   0.77090   0.00000  Uiso   1.00
H215   H     0.88066   0.60263   0.83733   0.00000  Uiso   1.00
H216   H     0.78064   0.63391   0.72179   0.00000  Uiso   1.00
H217   H     0.84277   0.49302   0.92493   0.00000  Uiso   1.00
H218   H     0.00265   0.69247   0.87801   0.00000  Uiso   1.00
H219   H     0.69483   0.65035   0.57367   0.00000  Uiso   1.00
H220   H     0.82587   0.35330   0.00201   0.00000  Uiso   1.00
H221   H     0.16301   0.77389   0.90308   0.00000  Uiso   1.00
O222   O     0.71535   0.60834   0.42879   0.00000  Uiso   1.00
O223   O     0.88728   0.21863   0.99077   0.00000  Uiso   1.00
O224   O     0.32960   0.77042   0.86097   0.00000  Uiso   1.00
N225   N     0.83526   0.55426   0.48845   0.00000  Uiso   1.00
N226   N     0.95776   0.27653   0.88892   0.00000  Uiso   1.00
N227   N     0.27296   0.66973   0.79644   0.00000  Uiso   1.00
N228   N     0.74611   0.61887   0.55958   0.00000  Uiso   1.00
N229   N     0.86861   0.34114   0.96004   0.00000  Uiso   1.00
N230   N     0.18381   0.73434   0.86757   0.00000  Uiso   1.00
C231   C     0.47016   0.50548   0.71831   0.00000  Uiso   1.00
C232   C     0.54557   0.47322   0.67234   0.00000  Uiso   1.00
C233   C     0.55931   0.48209   0.59407   0.00000  Uiso   1.00
C234   C     0.63211   0.44819   0.56280   0.00000  Uiso   1.00
C235   C     0.74056   0.40440   0.48452   0.00000  Uiso   1.00
C236   C     0.51182   0.54976   0.78271   0.00000  Uiso   1.00
C237   C     0.49718   0.62299   0.79724   0.00000  Uiso   1.00
C238   C     0.54156   0.65353   0.85888   0.00000  Uiso   1.00
C239   C     0.59756   0.72857   0.95198   0.00000  Uiso   1.00
C240   C     0.42495   0.44139   0.75721   0.00000  Uiso   1.00
C241   C     0.33727   0.42351   0.75032   0.00000  Uiso   1.00
C242   C     0.30851   0.36282   0.79051   0.00000  Uiso   1.00
C243   C     0.22964   0.26960   0.84401   0.00000  Uiso   1.00
C244   C     0.57500   0.42950   0.80196   0.00000  Uiso   1.00
C245   C     0.60251   0.43195   0.71778   0.00000  Uiso   1.00
C246   C     0.67531   0.39802   0.68662   0.00000  Uiso   1.00
C247   C     0.68916   0.40684   0.60832   0.00000  Uiso   1.00
C248   C     0.56876   0.50850   0.82814   0.00000  Uiso   1.00
C249   C     0.61317   0.53893   0.88978   0.00000  Uiso   1.00
C250   C     0.59861   0.61219   0.90440   0.00000  Uiso   1.00
C251   C     0.48190   0.40012   0.80264   0.00000  Uiso   1.00
C252   C     0.45326   0.33945   0.84286   0.00000  Uiso   1.00
C253   C     0.36556   0.32148   0.83603   0.00000  Uiso   1.00
H254   H     0.42583   0.53761   0.68294   0.00000  Uiso   1.00
H255   H     0.51523   0.51403   0.55893   0.00000  Uiso   1.00
H256   H     0.45310   0.65491   0.76207   0.00000  Uiso   1.00
H257   H     0.29322   0.45546   0.71515   0.00000  Uiso   1.00
H258   H     0.63949   0.46972   0.44149   0.00000  Uiso   1.00
H259   H     0.50845   0.76677   0.86983   0.00000  Uiso   1.00
H260   H     0.17131   0.34618   0.77090   0.00000  Uiso   1.00
H261   H     0.61934   0.39737   0.83733   0.00000  Uiso   1.00
H262   H     0.71936   0.36609   0.72179   0.00000  Uiso   1.00
H263   H     0.65723   0.50698   0.92493   0.00000  Uiso   1.00
H264   H     0.49735   0.30753   0.87801   0.00000  Uiso   1.00
H265   H     0.80517   0.34965   0.57367   0.00000  Uiso   1.00
H266   H     0.67413   0.64670   0.00201   0.00000  Uiso   1.00
H267   H     0.33699   0.22611   0.90308   0.00000  Uiso   1.00
O268   O     0.78465   0.39166   0.42879   0.00000  Uiso   1.00
O269   O     0.61272   0.78137   0.99077   0.00000  Uiso   1.00
O270   O     0.17040   0.22958   0.86097   0.00000  Uiso   1.00
N271   N     0.66474   0.44574   0.48845   0.00000  Uiso   1.00
N272   N     0.54224   0.72347   0.88892   0.00000  Uiso   1.00
N273   N     0.22704   0.33027   0.79644   0.00000  Uiso   1.00
N274   N     0.75389   0.38113   0.55958   0.00000  Uiso   1.00
N275   N     0.63139   0.65886   0.96004   0.00000  Uiso   1.00
N276   N     0.31619   0.26566   0.86757   0.00000  Uiso   1.00
C277   C     0.47016   0.99452   0.78169   0.00000  Uiso   1.00
C278   C     0.54557   0.02678   0.82766   0.00000  Uiso   1.00
C279   C     0.55931   0.01791   0.90593   0.00000  Uiso   1.00
C280   C     0.63211   0.05181   0.93720   0.00000  Uiso   1.00
C281   C     0.74056   0.09560   0.01548   0.00000  Uiso   1.00
C282   C     0.51182   0.95024   0.71729   0.00000  Uiso   1.00
C283   C     0.49718   0.87701   0.70276   0.00000  Uiso   1.00
C284   C     0.54156   0.84647   0.64112   0.00000  Uiso   1.00
C285   C     0.59756   0.77143   0.54802   0.00000  Uiso   1.00
C286   C     0.42495   0.05861   0.74279   0.00000  Uiso   1.00
C287   C     0.33727   0.07649   0.74968   0.00000  Uiso   1.00
C288   C     0.30851   0.13718   0.70949   0.00000  Uiso   1.00
C289   C     0.22964   0.23040   0.65599   0.00000  Uiso   1.00
C290   C     0.57500   0.07050   0.69804   0.00000  Uiso   1.00
C291   C     0.60251   0.06805   0.78222   0.00000  Uiso   1.00
C292   C     0.67531   0.10198   0.81338   0.00000  Uiso   1.00
C293   C     0.68916   0.09316   0.89168   0.00000  Uiso   1.00
C294   C     0.56876   0.99150   0.67186   0.00000  Uiso   1.00
C295   C     0.61317   0.96107   0.61022   0.00000  Uiso   1.00
C296   C     0.59861   0.88781   0.59560   0.00000  Uiso   1.00
C297   C     0.48190   0.09988   0.69736   0.00000  Uiso   1.00
C298   C     0.45326   0.16055   0.65714   0.00000  Uiso   1.00
C299   C     0.36556   0.17852   0.66397   0.00000  Uiso   1.00
H300   H     0.42583   0.96239   0.81706   0.00000  Uiso   1.00
H301   H     0.51523   0.98597   0.94107   0.00000  Uiso   1.00
H302   H     0.45310   0.84509   0.73793   0.00000  Uiso   1.00
H303   H     0.29322   0.04454   0.78485   0.00000  Uiso   1.00
H304   H     0.63949   0.03028   0.05851   0.00000  Uiso   1.00
H305   H     0.50845   0.73323   0.63017   0.00000  Uiso   1.00
H306   H     0.17131   0.15382   0.72910   0.00000  Uiso   1.00
H307   H     0.61934   0.10263   0.66267   0.00000  Uiso   1.00
H308   H     0.71936   0.13391   0.77821   0.00000  Uiso   1.00
H309   H     0.65723   0.99302   0.57507   0.00000  Uiso   1.00
H310   H     0.49735   0.19247   0.62199   0.00000  Uiso   1.00
H311   H     0.80517   0.15035   0.92633   0.00000  Uiso   1.00
H312   H     0.67413   0.85330   0.49799   0.00000  Uiso   1.00
H313   H     0.33699   0.27389   0.59692   0.00000  Uiso   1.00
O314   O     0.78465   0.10834   0.07121   0.00000  Uiso   1.00
O315   O     0.61272   0.71863   0.50923   0.00000  Uiso   1.00
O316   O     0.17040   0.27042   0.63903   0.00000  Uiso   1.00
N317   N     0.66474   0.05426   0.01155   0.00000  Uiso   1.00
N318   N     0.54224   0.77653   0.61108   0.00000  Uiso   1.00
N319   N     0.22704   0.16973   0.70356   0.00000  Uiso   1.00
N320   N     0.75389   0.11887   0.94042   0.00000  Uiso   1.00
N321   N     0.63139   0.84114   0.53996   0.00000  Uiso   1.00
N322   N     0.31619   0.23434   0.63243   0.00000  Uiso   1.00
C323   C     0.02984   0.00548   0.78169   0.00000  Uiso   1.00
C324   C     0.95443   0.97322   0.82766   0.00000  Uiso   1.00
C325   C     0.94069   0.98209   0.90593   0.00000  Uiso   1.00
C326   C     0.86789   0.94819   0.93720   0.00000  Uiso   1.00
C327   C     0.75944   0.90440   0.01548   0.00000  Uiso   1.00
C328   C     0.98818   0.04976   0.71729   0.00000  Uiso   1.00
C329   C     0.00282   0.12299   0.70276   0.00000  Uiso   1.00
C330   C     0.95844   0.15353   0.64112   0.00000  Uiso   1.00
C331   C     0.90244   0.22857   0.54802   0.00000  Uiso   1.00
C332   C     0.07505   0.94139   0.74279   0.00000  Uiso   1.00
C333   C     0.16273   0.92351   0.74968   0.00000  Uiso   1.00
C334   C     0.19149   0.86282   0.70949   0.00000  Uiso   1.00
C335   C     0.27036   0.76960   0.65599   0.00000  Uiso   1.00
C336   C     0.92500   0.92950   0.69804   0.00000  Uiso   1.00
C337   C     0.89749   0.93195   0.78222   0.00000  Uiso   1.00
C338   C     0.82469   0.89802   0.81338   0.00000  Uiso   1.00
C339   C     0.81084   0.90684   0.89168   0.00000  Uiso   1.00
C340   C     0.93124   0.00850   0.67186   0.00000  Uiso   1.00
C341   C     0.88683   0.03893   0.61022   0.00000  Uiso   1.00
C342   C     0.90139   0.11219   0.59560   0.00000  Uiso   1.00
C343   C     0.01810   0.90012   0.69736   0.00000  Uiso   1.00
C344   C     0.04674   0.83945   0.65714   0.00000  Uiso   1.00
C345   C     0.13444   0.82148   0.66397   0.00000  Uiso   1.00
H346   H     0.07417   0.03761   0.81706   0.00000  Uiso   1.00
H347   H     0.98477   0.01403   0.94107   0.00000  Uiso   1.00
H348   H     0.04690   0.15491   0.73793   0.00000  Uiso   1.00
H349   H     0.20678   0.95546   0.78485   0.00000  Uiso   1.00
H350   H     0.86051   0.96972   0.05851   0.00000  Uiso   1.00
H351   H     0.99155   0.26677   0.63017   0.00000  Uiso   1.00
H352   H     0.32869   0.84618   0.72910   0.00000  Uiso   1.00
H353   H     0.88066   0.89737   0.66267   0.00000  Uiso   1.00
H354   H     0.78064   0.86609   0.77821   0.00000  Uiso   1.00
H355   H     0.84277   0.00698   0.57507   0.00000  Uiso   1.00
H356   H     0.00265   0.80753   0.62199   0.00000  Uiso   1.00
H357   H     0.69483   0.84965   0.92633   0.00000  Uiso   1.00
H358   H     0.82587   0.14670   0.49799   0.00000  Uiso   1.00
H359   H     0.16301   0.72611   0.59692   0.00000  Uiso   1.00
O360   O     0.71535   0.89166   0.07121   0.00000  Uiso   1.00
O361   O     0.88728   0.28137   0.50923   0.00000  Uiso   1.00
O362   O     0.32960   0.72958   0.63903   0.00000  Uiso   1.00
N363   N     0.83526   0.94574   0.01155   0.00000  Uiso   1.00
N364   N     0.95776   0.22347   0.61108   0.00000  Uiso   1.00
N365   N     0.27296   0.83027   0.70356   0.00000  Uiso   1.00
N366   N     0.74611   0.88113   0.94042   0.00000  Uiso   1.00
N367   N     0.86861   0.15886   0.53996   0.00000  Uiso   1.00
N368   N     0.18381   0.76566   0.63243   0.00000  Uiso   1.00
