data_job_07035
_audit_creation_date              2018-12-19
_audit_creation_method            'Materials Studio'
_symmetry_space_group_name_H-M    'P1'
_symmetry_Int_Tables_number       1
_symmetry_cell_setting            triclinic
loop_
_symmetry_equiv_pos_as_xyz
  x,y,z
_cell_length_a                    24.1444
_cell_length_b                    24.3243
_cell_length_c                    24.6555
_cell_angle_alpha                 63.9979
_cell_angle_beta                  112.9564
_cell_angle_gamma                 114.8189
loop_
_atom_site_label
_atom_site_type_symbol
_atom_site_fract_x
_atom_site_fract_y
_atom_site_fract_z
_atom_site_U_iso_or_equiv
_atom_site_adp_type
_atom_site_occupancy
C1     C     0.78266   0.04059   0.60313   0.00000  Uiso   1.00
C2     C     0.75788   0.03818   0.65259   0.00000  Uiso   1.00
C3     C     0.69549   0.01219   0.65586   0.00000  Uiso   1.00
C4     C     0.68242   0.01466   0.70467   0.00000  Uiso   1.00
C5     C     0.63669   0.00676   0.77477   0.00000  Uiso   1.00
C6     C     0.81641   0.11105   0.57375   0.00000  Uiso   1.00
C7     C     0.80322   0.14632   0.51073   0.00000  Uiso   1.00
C8     C     0.83942   0.21014   0.49319   0.00000  Uiso   1.00
C9     C     0.88458   0.31536   0.44088   0.00000  Uiso   1.00
C10    C     0.83382   0.00723   0.63847   0.00000  Uiso   1.00
C11    C     0.83530   0.95522   0.62986   0.00000  Uiso   1.00
C12    C     0.88617   0.93164   0.66679   0.00000  Uiso   1.00
C13    C     0.95837   0.87567   0.71497   0.00000  Uiso   1.00
C14    C     0.87039   0.09120   0.68401   0.00000  Uiso   1.00
C15    C     0.80554   0.06567   0.69652   0.00000  Uiso   1.00
C16    C     0.79255   0.06818   0.74534   0.00000  Uiso   1.00
C17    C     0.73015   0.04220   0.74868   0.00000  Uiso   1.00
C18    C     0.86406   0.13854   0.61768   0.00000  Uiso   1.00
C19    C     0.90028   0.20232   0.60022   0.00000  Uiso   1.00
C20    C     0.88716   0.23768   0.53720   0.00000  Uiso   1.00
C21    C     0.88147   0.03472   0.68240   0.00000  Uiso   1.00
C22    C     0.93236   0.01122   0.71935   0.00000  Uiso   1.00
C23    C     0.93391   0.95918   0.71080   0.00000  Uiso   1.00
H24    H     0.74557   0.01919   0.56892   0.00000  Uiso   1.00
H25    H     0.65863   0.99092   0.62184   0.00000  Uiso   1.00
H26    H     0.76635   0.12504   0.47675   0.00000  Uiso   1.00
H27    H     0.79841   0.93396   0.59586   0.00000  Uiso   1.00
H28    H     0.58325   0.97172   0.69988   0.00000  Uiso   1.00
H29    H     0.81040   0.25450   0.39393   0.00000  Uiso   1.00
H30    H     0.87802   0.85159   0.64509   0.00000  Uiso   1.00
H31    H     0.90749   0.11261   0.71822   0.00000  Uiso   1.00
H32    H     0.82944   0.08946   0.77933   0.00000  Uiso   1.00
H33    H     0.93716   0.22358   0.63423   0.00000  Uiso   1.00
H34    H     0.96922   0.03251   0.75334   0.00000  Uiso   1.00
H35    H     0.72189   0.05171   0.82770   0.00000  Uiso   1.00
H36    H     0.94904   0.33449   0.52175   0.00000  Uiso   1.00
H37    H     0.01665   0.93157   0.77292   0.00000  Uiso   1.00
O38    O     0.59830   0.99482   0.80129   0.00000  Uiso   1.00
O39    O     0.89631   0.36581   0.39990   0.00000  Uiso   1.00
O40    O     0.98502   0.83720   0.72942   0.00000  Uiso   1.00
N41    N     0.62659   0.99371   0.72158   0.00000  Uiso   1.00
N42    N     0.83896   0.25810   0.43554   0.00000  Uiso   1.00
N43    N     0.90218   0.88142   0.67034   0.00000  Uiso   1.00
N44    N     0.70119   0.03675   0.79036   0.00000  Uiso   1.00
N45    N     0.91355   0.30113   0.50432   0.00000  Uiso   1.00
N46    N     0.97678   0.92446   0.73912   0.00000  Uiso   1.00
C47    C     0.08471   0.16442   0.05888   0.00000  Uiso   1.00
C48    C     0.01987   0.14003   0.01822   0.00000  Uiso   1.00
C49    C     0.97200   0.16845   0.99174   0.00000  Uiso   1.00
C50    C     0.91616   0.13875   0.95608   0.00000  Uiso   1.00
C51    C     0.81662   0.10940   0.89431   0.00000  Uiso   1.00
C52    C     0.09213   0.10910   0.11996   0.00000  Uiso   1.00
C53    C     0.10504   0.11151   0.17901   0.00000  Uiso   1.00
C54    C     0.11003   0.05577   0.22899   0.00000  Uiso   1.00
C55    C     0.12273   0.97841   0.32517   0.00000  Uiso   1.00
C56    C     0.13250   0.17333   0.02734   0.00000  Uiso   1.00
C57    C     0.17936   0.22975   0.00854   0.00000  Uiso   1.00
C58    C     0.21836   0.22808   0.98055   0.00000  Uiso   1.00
C59    C     0.29374   0.25046   0.93293   0.00000  Uiso   1.00
C60    C     0.07066   0.06114   0.04263   0.00000  Uiso   1.00
C61    C     0.01224   0.08394   0.00940   0.00000  Uiso   1.00
C62    C     0.95645   0.05418   0.97376   0.00000  Uiso   1.00
C63    C     0.90851   0.08255   0.94723   0.00000  Uiso   1.00
C64    C     0.08450   0.05300   0.11113   0.00000  Uiso   1.00
C65    C     0.08948   0.99724   0.16103   0.00000  Uiso   1.00
C66    C     0.10238   0.99957   0.22015   0.00000  Uiso   1.00
C67    C     0.12487   0.11724   0.01851   0.00000  Uiso   1.00
C68    C     0.16381   0.11548   0.99055   0.00000  Uiso   1.00
C69    C     0.21071   0.17188   0.97171   0.00000  Uiso   1.00
H70    H     0.09066   0.20809   0.06576   0.00000  Uiso   1.00
H71    H     0.97793   0.21186   0.99859   0.00000  Uiso   1.00
H72    H     0.11095   0.15493   0.18583   0.00000  Uiso   1.00
H73    H     0.18526   0.27315   0.01538   0.00000  Uiso   1.00
H74    H     0.84957   0.19129   0.92024   0.00000  Uiso   1.00
H75    H     0.13007   0.07126   0.31505   0.00000  Uiso   1.00
H76    H     0.28677   0.32055   0.95562   0.00000  Uiso   1.00
H77    H     0.06471   0.01746   0.03576   0.00000  Uiso   1.00
H78    H     0.95056   0.01077   0.96694   0.00000  Uiso   1.00
H79    H     0.08357   0.95384   0.15418   0.00000  Uiso   1.00
H80    H     0.15788   0.07206   0.98373   0.00000  Uiso   1.00
H81    H     0.82735   0.02808   0.89456   0.00000  Uiso   1.00
H82    H     0.10785   0.90804   0.28937   0.00000  Uiso   1.00
H83    H     0.26455   0.15733   0.92993   0.00000  Uiso   1.00
O84    O     0.76383   0.10871   0.86268   0.00000  Uiso   1.00
O85    O     0.13184   0.95124   0.38066   0.00000  Uiso   1.00
O86    O     0.33742   0.27830   0.90909   0.00000  Uiso   1.00
N87    N     0.86001   0.15380   0.92363   0.00000  Uiso   1.00
N88    N     0.12225   0.04158   0.29275   0.00000  Uiso   1.00
N89    N     0.26876   0.27464   0.95673   0.00000  Uiso   1.00
N90    N     0.84806   0.06598   0.90981   0.00000  Uiso   1.00
N91    N     0.11029   0.95375   0.27893   0.00000  Uiso   1.00
N92    N     0.25681   0.18681   0.94291   0.00000  Uiso   1.00
C93    C     0.91433   0.47913   0.18835   0.00000  Uiso   1.00
C94    C     0.88488   0.52927   0.17623   0.00000  Uiso   1.00
C95    C     0.83728   0.51893   0.20096   0.00000  Uiso   1.00
C96    C     0.81675   0.57099   0.18420   0.00000  Uiso   1.00
C97    C     0.76702   0.63968   0.17144   0.00000  Uiso   1.00
C98    C     0.90615   0.47758   0.12445   0.00000  Uiso   1.00
C99    C     0.87645   0.42377   0.10567   0.00000  Uiso   1.00
C100   C     0.87384   0.43231   0.04532   0.00000  Uiso   1.00
C101   C     0.85718   0.42074   0.95220   0.00000  Uiso   1.00
C102   C     0.98499   0.50648   0.21382   0.00000  Uiso   1.00
C103   C     0.02157   0.47697   0.27016   0.00000  Uiso   1.00
C104   C     0.08535   0.50983   0.28505   0.00000  Uiso   1.00
C105   C     0.19109   0.54314   0.33068   0.00000  Uiso   1.00
C106   C     0.96254   0.58995   0.11459   0.00000  Uiso   1.00
C107   C     0.91106   0.58947   0.13616   0.00000  Uiso   1.00
C108   C     0.89061   0.64155   0.11936   0.00000  Uiso   1.00
C109   C     0.84299   0.63129   0.14407   0.00000  Uiso   1.00
C110   C     0.93234   0.53777   0.08439   0.00000  Uiso   1.00
C111   C     0.92978   0.54639   0.02406   0.00000  Uiso   1.00
C112   C     0.90007   0.49262   0.00519   0.00000  Uiso   1.00
C113   C     0.01117   0.56668   0.17376   0.00000  Uiso   1.00
C114   C     0.07491   0.59959   0.18856   0.00000  Uiso   1.00
C115   C     0.11158   0.57014   0.24491   0.00000  Uiso   1.00
H116   H     0.89394   0.43226   0.21954   0.00000  Uiso   1.00
H117   H     0.81702   0.47234   0.23196   0.00000  Uiso   1.00
H118   H     0.85619   0.37719   0.13668   0.00000  Uiso   1.00
H119   H     0.00130   0.43038   0.30115   0.00000  Uiso   1.00
H120   H     0.74327   0.54332   0.22805   0.00000  Uiso   1.00
H121   H     0.82588   0.34269   0.02715   0.00000  Uiso   1.00
H122   H     0.13186   0.45485   0.37397   0.00000  Uiso   1.00
H123   H     0.98292   0.63682   0.08340   0.00000  Uiso   1.00
H124   H     0.91088   0.68813   0.08835   0.00000  Uiso   1.00
H125   H     0.95005   0.59298   0.99307   0.00000  Uiso   1.00
H126   H     0.09515   0.64617   0.15754   0.00000  Uiso   1.00
H127   H     0.81945   0.71846   0.11149   0.00000  Uiso   1.00
H128   H     0.90206   0.51783   0.91060   0.00000  Uiso   1.00
H129   H     0.20804   0.63000   0.25741   0.00000  Uiso   1.00
O130   O     0.73235   0.66094   0.17547   0.00000  Uiso   1.00
O131   O     0.84074   0.39773   0.91191   0.00000  Uiso   1.00
O132   O     0.24218   0.54488   0.36692   0.00000  Uiso   1.00
N133   N     0.77109   0.57750   0.19995   0.00000  Uiso   1.00
N134   N     0.84832   0.38993   0.01212   0.00000  Uiso   1.00
N135   N     0.13439   0.49478   0.33635   0.00000  Uiso   1.00
N136   N     0.81208   0.67174   0.13723   0.00000  Uiso   1.00
N137   N     0.88931   0.48417   0.94940   0.00000  Uiso   1.00
N138   N     0.17538   0.58902   0.27364   0.00000  Uiso   1.00
C139   C     0.23680   0.75300   0.78856   0.00000  Uiso   1.00
C140   C     0.21602   0.78696   0.81315   0.00000  Uiso   1.00
C141   C     0.15990   0.80228   0.78809   0.00000  Uiso   1.00
C142   C     0.14965   0.83333   0.81737   0.00000  Uiso   1.00
C143   C     0.11063   0.88371   0.84759   0.00000  Uiso   1.00
C144   C     0.24968   0.69393   0.84313   0.00000  Uiso   1.00
C145   C     0.22185   0.63104   0.84327   0.00000  Uiso   1.00
C146   C     0.23994   0.58378   0.89779   0.00000  Uiso   1.00
C147   C     0.25321   0.48974   0.97455   0.00000  Uiso   1.00
C148   C     0.30062   0.79724   0.77558   0.00000  Uiso   1.00
C149   C     0.31563   0.82120   0.71893   0.00000  Uiso   1.00
C150   C     0.37662   0.86092   0.71658   0.00000  Uiso   1.00
C151   C     0.46897   0.92729   0.68846   0.00000  Uiso   1.00
C152   C     0.31840   0.78091   0.88514   0.00000  Uiso   1.00
C153   C     0.26035   0.80211   0.86561   0.00000  Uiso   1.00
C154   C     0.25018   0.83315   0.89494   0.00000  Uiso   1.00
C155   C     0.19405   0.84852   0.86992   0.00000  Uiso   1.00
C156   C     0.29400   0.70908   0.89559   0.00000  Uiso   1.00
C157   C     0.31214   0.66191   0.95012   0.00000  Uiso   1.00
C158   C     0.28435   0.59896   0.95035   0.00000  Uiso   1.00
C159   C     0.34494   0.81240   0.82804   0.00000  Uiso   1.00
C160   C     0.40592   0.85208   0.82578   0.00000  Uiso   1.00
C161   C     0.42102   0.87610   0.76914   0.00000  Uiso   1.00
H162   H     0.20229   0.74120   0.74772   0.00000  Uiso   1.00
H163   H     0.12560   0.79053   0.74749   0.00000  Uiso   1.00
H164   H     0.18756   0.61932   0.80267   0.00000  Uiso   1.00
H165   H     0.28132   0.80946   0.67834   0.00000  Uiso   1.00
H166   H     0.06012   0.85189   0.77039   0.00000  Uiso   1.00
H167   H     0.19077   0.49089   0.88672   0.00000  Uiso   1.00
H168   H     0.38848   0.89183   0.62456   0.00000  Uiso   1.00
H169   H     0.35291   0.79271   0.92598   0.00000  Uiso   1.00
H170   H     0.28449   0.84487   0.93553   0.00000  Uiso   1.00
H171   H     0.34644   0.67366   0.99071   0.00000  Uiso   1.00
H172   H     0.44020   0.86380   0.86639   0.00000  Uiso   1.00
H173   H     0.18908   0.89599   0.92301   0.00000  Uiso   1.00
H174   H     0.31972   0.53499   0.03934   0.00000  Uiso   1.00
H175   H     0.51744   0.93594   0.77718   0.00000  Uiso   1.00
O176   O     0.07686   0.90731   0.84978   0.00000  Uiso   1.00
O177   O     0.24827   0.43369   0.00239   0.00000  Uiso   1.00
O178   O     0.50767   0.95972   0.65845   0.00000  Uiso   1.00
N179   N     0.09987   0.85512   0.80499   0.00000  Uiso   1.00
N180   N     0.22201   0.51760   0.91375   0.00000  Uiso   1.00
N181   N     0.40686   0.89244   0.66866   0.00000  Uiso   1.00
N182   N     0.16926   0.87886   0.88711   0.00000  Uiso   1.00
N183   N     0.29140   0.54133   0.99588   0.00000  Uiso   1.00
N184   N     0.47625   0.91618   0.75079   0.00000  Uiso   1.00
C185   C     0.56204   0.61527   0.41037   0.00000  Uiso   1.00
C186   C     0.50922   0.64395   0.36433   0.00000  Uiso   1.00
C187   C     0.44649   0.61871   0.36642   0.00000  Uiso   1.00
C188   C     0.40545   0.65212   0.32002   0.00000  Uiso   1.00
C189   C     0.32024   0.68806   0.25566   0.00000  Uiso   1.00
C190   C     0.61245   0.66780   0.43627   0.00000  Uiso   1.00
C191   C     0.63653   0.66260   0.49886   0.00000  Uiso   1.00
C192   C     0.68241   0.71609   0.51302   0.00000  Uiso   1.00
C193   C     0.75750   0.78904   0.56036   0.00000  Uiso   1.00
C194   C     0.59095   0.60548   0.37148   0.00000  Uiso   1.00
C195   C     0.59698   0.54789   0.37960   0.00000  Uiso   1.00
C196   C     0.62476   0.54890   0.33922   0.00000  Uiso   1.00
C197   C     0.66648   0.52509   0.28596   0.00000  Uiso   1.00
C198   C     0.60070   0.71948   0.32422   0.00000  Uiso   1.00
C199   C     0.53022   0.70056   0.31754   0.00000  Uiso   1.00
C200   C     0.48926   0.73401   0.27111   0.00000  Uiso   1.00
C201   C     0.42649   0.70882   0.27314   0.00000  Uiso   1.00
C202   C     0.63345   0.72440   0.38948   0.00000  Uiso   1.00
C203   C     0.67930   0.77790   0.40355   0.00000  Uiso   1.00
C204   C     0.70344   0.77279   0.46614   0.00000  Uiso   1.00
C205   C     0.61195   0.66208   0.32469   0.00000  Uiso   1.00
C206   C     0.63974   0.66319   0.28429   0.00000  Uiso   1.00
C207   C     0.64580   0.60561   0.29234   0.00000  Uiso   1.00
H208   H     0.54570   0.57121   0.44680   0.00000  Uiso   1.00
H209   H     0.43026   0.57491   0.40265   0.00000  Uiso   1.00
H210   H     0.62028   0.61879   0.53506   0.00000  Uiso   1.00
H211   H     0.58072   0.50409   0.41582   0.00000  Uiso   1.00
H212   H     0.31154   0.60399   0.33307   0.00000  Uiso   1.00
H213   H     0.71222   0.69652   0.61227   0.00000  Uiso   1.00
H214   H     0.62881   0.45465   0.36083   0.00000  Uiso   1.00
H215   H     0.61705   0.76355   0.28779   0.00000  Uiso   1.00
H216   H     0.50553   0.77781   0.23491   0.00000  Uiso   1.00
H217   H     0.69554   0.82170   0.36733   0.00000  Uiso   1.00
H218   H     0.65599   0.70700   0.24808   0.00000  Uiso   1.00
H219   H     0.37263   0.76868   0.19693   0.00000  Uiso   1.00
H220   H     0.77331   0.86120   0.47613   0.00000  Uiso   1.00
H221   H     0.68989   0.61933   0.22469   0.00000  Uiso   1.00
O222   O     0.26744   0.69225   0.23309   0.00000  Uiso   1.00
O223   O     0.79312   0.81364   0.59940   0.00000  Uiso   1.00
O224   O     0.68368   0.49631   0.26951   0.00000  Uiso   1.00
N225   N     0.34122   0.64078   0.30828   0.00000  Uiso   1.00
N226   N     0.71582   0.72729   0.56932   0.00000  Uiso   1.00
N227   N     0.63785   0.50117   0.33425   0.00000  Uiso   1.00
N228   N     0.37409   0.72940   0.23502   0.00000  Uiso   1.00
N229   N     0.74869   0.81591   0.49606   0.00000  Uiso   1.00
N230   N     0.67073   0.58979   0.26099   0.00000  Uiso   1.00
C231   C     0.53451   0.32590   0.75762   0.00000  Uiso   1.00
C232   C     0.48059   0.27100   0.78346   0.00000  Uiso   1.00
C233   C     0.44854   0.27231   0.81872   0.00000  Uiso   1.00
C234   C     0.40065   0.21720   0.83793   0.00000  Uiso   1.00
C235   C     0.31922   0.14025   0.88038   0.00000  Uiso   1.00
C236   C     0.51401   0.33907   0.68737   0.00000  Uiso   1.00
C237   C     0.51008   0.39763   0.64185   0.00000  Uiso   1.00
C238   C     0.49033   0.39982   0.58017   0.00000  Uiso   1.00
C239   C     0.46084   0.42856   0.47345   0.00000  Uiso   1.00
C240   C     0.58969   0.29894   0.78243   0.00000  Uiso   1.00
C241   C     0.64940   0.32376   0.81682   0.00000  Uiso   1.00
C242   C     0.69337   0.29217   0.83515   0.00000  Uiso   1.00
C243   C     0.78138   0.25861   0.87601   0.00000  Uiso   1.00
C244   C     0.50645   0.22568   0.72902   0.00000  Uiso   1.00
C245   C     0.46535   0.21656   0.76792   0.00000  Uiso   1.00
C246   C     0.41749   0.16143   0.78707   0.00000  Uiso   1.00
C247   C     0.38538   0.16267   0.82236   0.00000  Uiso   1.00
C248   C     0.49877   0.28464   0.67183   0.00000  Uiso   1.00
C249   C     0.47903   0.28674   0.61020   0.00000  Uiso   1.00
C250   C     0.47506   0.34528   0.56460   0.00000  Uiso   1.00
C251   C     0.57445   0.24450   0.76689   0.00000  Uiso   1.00
C252   C     0.61834   0.21288   0.78517   0.00000  Uiso   1.00
C253   C     0.67810   0.23764   0.81958   0.00000  Uiso   1.00
H254   H     0.54638   0.36828   0.76972   0.00000  Uiso   1.00
H255   H     0.46035   0.31445   0.83074   0.00000  Uiso   1.00
H256   H     0.52188   0.43974   0.65389   0.00000  Uiso   1.00
H257   H     0.66117   0.36589   0.82883   0.00000  Uiso   1.00
H258   H     0.35823   0.23078   0.89151   0.00000  Uiso   1.00
H259   H     0.48800   0.49497   0.51863   0.00000  Uiso   1.00
H260   H     0.78172   0.33923   0.88752   0.00000  Uiso   1.00
H261   H     0.49458   0.18329   0.71692   0.00000  Uiso   1.00
H262   H     0.40571   0.11931   0.77504   0.00000  Uiso   1.00
H263   H     0.46724   0.24461   0.59820   0.00000  Uiso   1.00
H264   H     0.60653   0.17075   0.77314   0.00000  Uiso   1.00
H265   H     0.31388   0.07240   0.84631   0.00000  Uiso   1.00
H266   H     0.44365   0.33659   0.47342   0.00000  Uiso   1.00
H267   H     0.73737   0.18085   0.84232   0.00000  Uiso   1.00
O268   O     0.27851   0.11285   0.90808   0.00000  Uiso   1.00
O269   O     0.44877   0.45946   0.41888   0.00000  Uiso   1.00
O270   O     0.83413   0.25513   0.90285   0.00000  Uiso   1.00
N271   N     0.36000   0.20228   0.87291   0.00000  Uiso   1.00
N272   N     0.48131   0.44928   0.52429   0.00000  Uiso   1.00
N273   N     0.75593   0.30369   0.86915   0.00000  Uiso   1.00
N274   N     0.33613   0.11706   0.84858   0.00000  Uiso   1.00
N275   N     0.45745   0.36406   0.49996   0.00000  Uiso   1.00
N276   N     0.73206   0.21846   0.84483   0.00000  Uiso   1.00
C277   C     0.10403   0.73607   0.36515   0.00000  Uiso   1.00
C278   C     0.13074   0.75245   0.31130   0.00000  Uiso   1.00
C279   C     0.19285   0.78557   0.30814   0.00000  Uiso   1.00
C280   C     0.20790   0.79571   0.25492   0.00000  Uiso   1.00
C281   C     0.25629   0.82448   0.17867   0.00000  Uiso   1.00
C282   C     0.07466   0.66344   0.38650   0.00000  Uiso   1.00
C283   C     0.08962   0.62173   0.44657   0.00000  Uiso   1.00
C284   C     0.05746   0.55695   0.45664   0.00000  Uiso   1.00
C285   C     0.01876   0.44754   0.49715   0.00000  Uiso   1.00
C286   C     0.04933   0.76431   0.33672   0.00000  Uiso   1.00
C287   C     0.04297   0.80741   0.35495   0.00000  Uiso   1.00
C288   C     0.98947   0.82755   0.32312   0.00000  Uiso   1.00
C289   C     0.91143   0.87476   0.28634   0.00000  Uiso   1.00
C290   C     0.02031   0.69519   0.27624   0.00000  Uiso   1.00
C291   C     0.08526   0.73024   0.26301   0.00000  Uiso   1.00
C292   C     0.10022   0.74034   0.20978   0.00000  Uiso   1.00
C293   C     0.16234   0.77347   0.20654   0.00000  Uiso   1.00
C294   C     0.02919   0.64123   0.33821   0.00000  Uiso   1.00
C295   C     0.99699   0.57650   0.34820   0.00000  Uiso   1.00
C296   C     0.01190   0.53470   0.40827   0.00000  Uiso   1.00
C297   C     0.00385   0.74211   0.28843   0.00000  Uiso   1.00
C298   C     0.95034   0.76218   0.25658   0.00000  Uiso   1.00
C299   C     0.94391   0.80530   0.27475   0.00000  Uiso   1.00
H300   H     0.13944   0.75336   0.40275   0.00000  Uiso   1.00
H301   H     0.22803   0.80274   0.34553   0.00000  Uiso   1.00
H302   H     0.12481   0.63893   0.48393   0.00000  Uiso   1.00
H303   H     0.07818   0.82458   0.39232   0.00000  Uiso   1.00
H304   H     0.30620   0.84767   0.26080   0.00000  Uiso   1.00
H305   H     0.08855   0.50227   0.55263   0.00000  Uiso   1.00
H306   H     0.99020   0.89376   0.35946   0.00000  Uiso   1.00
H307   H     0.98490   0.67790   0.23864   0.00000  Uiso   1.00
H308   H     0.06501   0.72315   0.17241   0.00000  Uiso   1.00
H309   H     0.96180   0.55933   0.31082   0.00000  Uiso   1.00
H310   H     0.91516   0.74499   0.21921   0.00000  Uiso   1.00
H311   H     0.17389   0.78307   0.12030   0.00000  Uiso   1.00
H312   H     0.95624   0.43767   0.41213   0.00000  Uiso   1.00
H313   H     0.85789   0.82915   0.21896   0.00000  Uiso   1.00
O314   O     0.29554   0.84647   0.14996   0.00000  Uiso   1.00
O315   O     0.00998   0.39333   0.53283   0.00000  Uiso   1.00
O316   O     0.88095   0.90695   0.27939   0.00000  Uiso   1.00
N317   N     0.26407   0.82627   0.23682   0.00000  Uiso   1.00
N318   N     0.06058   0.50334   0.50966   0.00000  Uiso   1.00
N319   N     0.96863   0.86933   0.32907   0.00000  Uiso   1.00
N320   N     0.19287   0.79151   0.16122   0.00000  Uiso   1.00
N321   N     0.98938   0.46858   0.43406   0.00000  Uiso   1.00
N322   N     0.89743   0.83457   0.25347   0.00000  Uiso   1.00
C323   C     0.83146   0.67182   0.87028   0.00000  Uiso   1.00
C324   C     0.89258   0.70542   0.90887   0.00000  Uiso   1.00
C325   C     0.95295   0.70994   0.91209   0.00000  Uiso   1.00
C326   C     0.00273   0.74269   0.95006   0.00000  Uiso   1.00
C327   C     0.09920   0.79075   0.00487   0.00000  Uiso   1.00
C328   C     0.79708   0.72204   0.82822   0.00000  Uiso   1.00
C329   C     0.77715   0.74053   0.76362   0.00000  Uiso   1.00
C330   C     0.74653   0.78726   0.73369   0.00000  Uiso   1.00
C331   C     0.69470   0.86108   0.66329   0.00000  Uiso   1.00
C332   C     0.79172   0.62236   0.91602   0.00000  Uiso   1.00
C333   C     0.76726   0.55702   0.92523   0.00000  Uiso   1.00
C334   C     0.73211   0.51983   0.96921   0.00000  Uiso   1.00
C335   C     0.67196   0.43887   0.03512   0.00000  Uiso   1.00
C336   C     0.81250   0.72194   0.93198   0.00000  Uiso   1.00
C337   C     0.88228   0.73265   0.94239   0.00000  Uiso   1.00
C338   C     0.93198   0.76539   0.98036   0.00000  Uiso   1.00
C339   C     0.99241   0.76996   0.98364   0.00000  Uiso   1.00
C340   C     0.78679   0.74926   0.86173   0.00000  Uiso   1.00
C341   C     0.75618   0.79598   0.83189   0.00000  Uiso   1.00
C342   C     0.73621   0.81453   0.76727   0.00000  Uiso   1.00
C343   C     0.78142   0.64958   0.94953   0.00000  Uiso   1.00
C344   C     0.74630   0.61247   0.99350   0.00000  Uiso   1.00
C345   C     0.72180   0.54710   0.00279   0.00000  Uiso   1.00
H346   H     0.83947   0.65063   0.84418   0.00000  Uiso   1.00
H347   H     0.96090   0.68888   0.88614   0.00000  Uiso   1.00
H348   H     0.78512   0.71945   0.73770   0.00000  Uiso   1.00
H349   H     0.77524   0.53598   0.89929   0.00000  Uiso   1.00
H350   H     0.09099   0.74330   0.94743   0.00000  Uiso   1.00
H351   H     0.72033   0.80775   0.63443   0.00000  Uiso   1.00
H352   H     0.69949   0.42086   0.97516   0.00000  Uiso   1.00
H353   H     0.80448   0.74313   0.95807   0.00000  Uiso   1.00
H354   H     0.92400   0.78645   0.00629   0.00000  Uiso   1.00
H355   H     0.74822   0.81703   0.85784   0.00000  Uiso   1.00
H356   H     0.73834   0.63355   0.01943   0.00000  Uiso   1.00
H357   H     0.06104   0.82250   0.04495   0.00000  Uiso   1.00
H358   H     0.69038   0.88695   0.73194   0.00000  Uiso   1.00
H359   H     0.66954   0.50006   0.07268   0.00000  Uiso   1.00
O360   O     0.15526   0.80975   0.02584   0.00000  Uiso   1.00
O361   O     0.66897   0.89429   0.61519   0.00000  Uiso   1.00
O362   O     0.64163   0.38670   0.06223   0.00000  Uiso   1.00
N363   N     0.06754   0.75598   0.96378   0.00000  Uiso   1.00
N364   N     0.72100   0.81625   0.67113   0.00000  Uiso   1.00
N365   N     0.70151   0.45454   0.98968   0.00000  Uiso   1.00
N366   N     0.05142   0.79860   0.01625   0.00000  Uiso   1.00
N367   N     0.70489   0.85886   0.72360   0.00000  Uiso   1.00
N368   N     0.68539   0.49715   0.04215   0.00000  Uiso   1.00
C369   C     0.97411   0.35199   0.68924   0.00000  Uiso   1.00
C370   C     0.00581   0.29929   0.71940   0.00000  Uiso   1.00
C371   C     0.05309   0.29841   0.70138   0.00000  Uiso   1.00
C372   C     0.07591   0.24591   0.73491   0.00000  Uiso   1.00
C373   C     0.12874   0.17167   0.77419   0.00000  Uiso   1.00
C374   C     0.98305   0.37486   0.74148   0.00000  Uiso   1.00
C375   C     0.01120   0.43752   0.74200   0.00000  Uiso   1.00
C376   C     0.01485   0.44864   0.79412   0.00000  Uiso   1.00
C377   C     0.03232   0.49174   0.86765   0.00000  Uiso   1.00
C378   C     0.90364   0.31899   0.66963   0.00000  Uiso   1.00
C379   C     0.86501   0.33468   0.60975   0.00000  Uiso   1.00
C380   C     0.80180   0.29877   0.60137   0.00000  Uiso   1.00
C381   C     0.69597   0.25512   0.56335   0.00000  Uiso   1.00
C382   C     0.93056   0.26031   0.78085   0.00000  Uiso   1.00
C383   C     0.98215   0.24950   0.76916   0.00000  Uiso   1.00
C384   C     0.00491   0.19698   0.80273   0.00000  Uiso   1.00
C385   C     0.05221   0.19602   0.78475   0.00000  Uiso   1.00
C386   C     0.95940   0.32507   0.79123   0.00000  Uiso   1.00
C387   C     0.96301   0.33609   0.84335   0.00000  Uiso   1.00
C388   C     0.99116   0.39875   0.84396   0.00000  Uiso   1.00
C389   C     0.87998   0.26919   0.71938   0.00000  Uiso   1.00
C390   C     0.81682   0.23325   0.71110   0.00000  Uiso   1.00
C391   C     0.77810   0.24888   0.65122   0.00000  Uiso   1.00
H392   H     0.99253   0.39076   0.65051   0.00000  Uiso   1.00
H393   H     0.07139   0.33696   0.66287   0.00000  Uiso   1.00
H394   H     0.02949   0.47605   0.70349   0.00000  Uiso   1.00
H395   H     0.88333   0.37322   0.57126   0.00000  Uiso   1.00
H396   H     0.14840   0.25536   0.69853   0.00000  Uiso   1.00
H397   H     0.06004   0.54865   0.78417   0.00000  Uiso   1.00
H398   H     0.75183   0.33182   0.50533   0.00000  Uiso   1.00
H399   H     0.91214   0.22154   0.81959   0.00000  Uiso   1.00
H400   H     0.98659   0.15845   0.84123   0.00000  Uiso   1.00
H401   H     0.94470   0.29755   0.88185   0.00000  Uiso   1.00
H402   H     0.79853   0.19472   0.74962   0.00000  Uiso   1.00
H403   H     0.07958   0.11049   0.84330   0.00000  Uiso   1.00
H404   H     0.99122   0.40377   0.92894   0.00000  Uiso   1.00
H405   H     0.68300   0.18694   0.65010   0.00000  Uiso   1.00
O406   O     0.16443   0.14449   0.78212   0.00000  Uiso   1.00
O407   O     0.04849   0.52927   0.89446   0.00000  Uiso   1.00
O408   O     0.64413   0.24479   0.52863   0.00000  Uiso   1.00
N409   N     0.12198   0.22992   0.72963   0.00000  Uiso   1.00
N410   N     0.03938   0.50412   0.80970   0.00000  Uiso   1.00
N411   N     0.75122   0.30141   0.54901   0.00000  Uiso   1.00
N412   N     0.08494   0.15196   0.80752   0.00000  Uiso   1.00
N413   N     0.00234   0.42616   0.88760   0.00000  Uiso   1.00
N414   N     0.71419   0.22346   0.62690   0.00000  Uiso   1.00
C415   C     0.65830   0.04074   0.18101   0.00000  Uiso   1.00
C416   C     0.67457   0.99783   0.16305   0.00000  Uiso   1.00
C417   C     0.72691   0.97572   0.19335   0.00000  Uiso   1.00
C418   C     0.73338   0.93698   0.16971   0.00000  Uiso   1.00
C419   C     0.76541   0.87282   0.14973   0.00000  Uiso   1.00
C420   C     0.65221   0.09940   0.12301   0.00000  Uiso   1.00
C421   C     0.68574   0.16269   0.11965   0.00000  Uiso   1.00
C422   C     0.67338   0.20945   0.06231   0.00000  Uiso   1.00
C423   C     0.67066   0.30298   0.98017   0.00000  Uiso   1.00
C424   C     0.59220   0.00480   0.19128   0.00000  Uiso   1.00
C425   C     0.57525   0.98857   0.24531   0.00000  Uiso   1.00
C426   C     0.51235   0.95570   0.24544   0.00000  Uiso   1.00
C427   C     0.41645   0.90235   0.26930   0.00000  Uiso   1.00
C428   C     0.57671   0.01127   0.08516   0.00000  Uiso   1.00
C429   C     0.63026   0.98183   0.11099   0.00000  Uiso   1.00
C430   C     0.63665   0.94311   0.08730   0.00000  Uiso   1.00
C431   C     0.68898   0.92095   0.11756   0.00000  Uiso   1.00
C432   C     0.60790   0.08340   0.07095   0.00000  Uiso   1.00
C433   C     0.59548   0.13008   0.01360   0.00000  Uiso   1.00
C434   C     0.62899   0.19342   0.01015   0.00000  Uiso   1.00
C435   C     0.54788   0.98880   0.13922   0.00000  Uiso   1.00
C436   C     0.48500   0.95596   0.13926   0.00000  Uiso   1.00
C437   C     0.46796   0.93967   0.19328   0.00000  Uiso   1.00
H438   H     0.69279   0.05321   0.22154   0.00000  Uiso   1.00
H439   H     0.76119   0.98812   0.23364   0.00000  Uiso   1.00
H440   H     0.72003   0.17506   0.15995   0.00000  Uiso   1.00
H441   H     0.60956   0.00096   0.28559   0.00000  Uiso   1.00
H442   H     0.81750   0.90892   0.22407   0.00000  Uiso   1.00
H443   H     0.73068   0.30309   0.06870   0.00000  Uiso   1.00
H444   H     0.49773   0.93597   0.33364   0.00000  Uiso   1.00
H445   H     0.54221   0.99881   0.04462   0.00000  Uiso   1.00
H446   H     0.60235   0.93073   0.04701   0.00000  Uiso   1.00
H447   H     0.56119   0.11768   0.97332   0.00000  Uiso   1.00
H448   H     0.45072   0.94358   0.09896   0.00000  Uiso   1.00
H449   H     0.68858   0.86235   0.07259   0.00000  Uiso   1.00
H450   H     0.60176   0.25652   0.91723   0.00000  Uiso   1.00
H451   H     0.36881   0.88940   0.18217   0.00000  Uiso   1.00
O452   O     0.79532   0.84185   0.15308   0.00000  Uiso   1.00
O453   O     0.68141   0.35898   0.94925   0.00000  Uiso   1.00
O454   O     0.37580   0.87734   0.29685   0.00000  Uiso   1.00
N455   N     0.77890   0.90729   0.18810   0.00000  Uiso   1.00
N456   N     0.69773   0.27581   0.04284   0.00000  Uiso   1.00
N457   N     0.47994   0.93261   0.29053   0.00000  Uiso   1.00
N458   N     0.70952   0.88223   0.10659   0.00000  Uiso   1.00
N459   N     0.62836   0.25075   0.96133   0.00000  Uiso   1.00
N460   N     0.41057   0.90755   0.20902   0.00000  Uiso   1.00
C461   C     0.29689   0.09926   0.55835   0.00000  Uiso   1.00
C462   C     0.36314   0.09723   0.59828   0.00000  Uiso   1.00
C463   C     0.41758   0.12748   0.57717   0.00000  Uiso   1.00
C464   C     0.47359   0.11977   0.62102   0.00000  Uiso   1.00
C465   C     0.57623   0.12217   0.67347   0.00000  Uiso   1.00
C466   C     0.25648   0.02959   0.56718   0.00000  Uiso   1.00
C467   C     0.22124   0.00297   0.51993   0.00000  Uiso   1.00
C468   C     0.18746   0.93832   0.53761   0.00000  Uiso   1.00
C469   C     0.12448   0.83572   0.54178   0.00000  Uiso   1.00
C470   C     0.27287   0.12470   0.58870   0.00000  Uiso   1.00
C471   C     0.25139   0.17805   0.55954   0.00000  Uiso   1.00
C472   C     0.23139   0.19347   0.59534   0.00000  Uiso   1.00
C473   C     0.19386   0.23855   0.63293   0.00000  Uiso   1.00
C474   C     0.29955   0.03177   0.67378   0.00000  Uiso   1.00
C475   C     0.36458   0.06057   0.66097   0.00000  Uiso   1.00
C476   C     0.42053   0.05281   0.70487   0.00000  Uiso   1.00
C477   C     0.47504   0.08305   0.68383   0.00000  Uiso   1.00
C478   C     0.25793   0.99293   0.62987   0.00000  Uiso   1.00
C479   C     0.22419   0.92830   0.64763   0.00000  Uiso   1.00
C480   C     0.18890   0.90160   0.60042   0.00000  Uiso   1.00
C481   C     0.27432   0.08804   0.65140   0.00000  Uiso   1.00
C482   C     0.25434   0.10338   0.68725   0.00000  Uiso   1.00
C483   C     0.23284   0.15675   0.65815   0.00000  Uiso   1.00
H484   H     0.29576   0.12779   0.50954   0.00000  Uiso   1.00
H485   H     0.41644   0.15584   0.52864   0.00000  Uiso   1.00
H486   H     0.22012   0.03135   0.47141   0.00000  Uiso   1.00
H487   H     0.25028   0.20641   0.51103   0.00000  Uiso   1.00
H488   H     0.55087   0.17075   0.57746   0.00000  Uiso   1.00
H489   H     0.13691   0.90827   0.45679   0.00000  Uiso   1.00
H490   H     0.20049   0.27740   0.54032   0.00000  Uiso   1.00
H491   H     0.30068   0.00323   0.72259   0.00000  Uiso   1.00
H492   H     0.42163   0.02444   0.75338   0.00000  Uiso   1.00
H493   H     0.22532   0.89995   0.69615   0.00000  Uiso   1.00
H494   H     0.25547   0.07501   0.73577   0.00000  Uiso   1.00
H495   H     0.55508   0.06410   0.75987   0.00000  Uiso   1.00
H496   H     0.14112   0.80162   0.63919   0.00000  Uiso   1.00
H497   H     0.20470   0.17075   0.72273   0.00000  Uiso   1.00
O498   O     0.63245   0.13361   0.68507   0.00000  Uiso   1.00
O499   O     0.08934   0.78925   0.52675   0.00000  Uiso   1.00
O500   O     0.17276   0.27355   0.63634   0.00000  Uiso   1.00
N501   N     0.53526   0.14275   0.61617   0.00000  Uiso   1.00
N502   N     0.14824   0.89734   0.50335   0.00000  Uiso   1.00
N503   N     0.20767   0.24244   0.58143   0.00000  Uiso   1.00
N504   N     0.53753   0.08536   0.71432   0.00000  Uiso   1.00
N505   N     0.15051   0.83995   0.60150   0.00000  Uiso   1.00
N506   N     0.20994   0.18505   0.67959   0.00000  Uiso   1.00
C507   C     0.26000   0.45657   0.15133   0.00000  Uiso   1.00
C508   C     0.33003   0.47836   0.15460   0.00000  Uiso   1.00
C509   C     0.35859   0.45224   0.13668   0.00000  Uiso   1.00
C510   C     0.42324   0.47890   0.14331   0.00000  Uiso   1.00
C511   C     0.52670   0.50496   0.14481   0.00000  Uiso   1.00
C512   C     0.25603   0.43975   0.21727   0.00000  Uiso   1.00
C513   C     0.22236   0.38118   0.25204   0.00000  Uiso   1.00
C514   C     0.22470   0.37535   0.31144   0.00000  Uiso   1.00
C515   C     0.21323   0.34149   0.41022   0.00000  Uiso   1.00
C516   C     0.23781   0.51588   0.11204   0.00000  Uiso   1.00
C517   C     0.18881   0.52131   0.05834   0.00000  Uiso   1.00
C518   C     0.17580   0.57957   0.02914   0.00000  Uiso   1.00
C519   C     0.13605   0.66390   0.96452   0.00000  Uiso   1.00
C520   C     0.32402   0.55037   0.19497   0.00000  Uiso   1.00
C521   C     0.36480   0.52930   0.17830   0.00000  Uiso   1.00
C522   C     0.42942   0.55602   0.18496   0.00000  Uiso   1.00
C523   C     0.45807   0.52994   0.16706   0.00000  Uiso   1.00
C524   C     0.29080   0.49070   0.24098   0.00000  Uiso   1.00
C525   C     0.29319   0.48496   0.30033   0.00000  Uiso   1.00
C526   C     0.25953   0.42639   0.33519   0.00000  Uiso   1.00
C527   C     0.27258   0.56683   0.13574   0.00000  Uiso   1.00
C528   C     0.25964   0.62509   0.10662   0.00000  Uiso   1.00
C529   C     0.21064   0.63061   0.05289   0.00000  Uiso   1.00
H530   H     0.23293   0.41690   0.13288   0.00000  Uiso   1.00
H531   H     0.33167   0.41280   0.11834   0.00000  Uiso   1.00
H532   H     0.19545   0.34176   0.23369   0.00000  Uiso   1.00
H533   H     0.16191   0.48187   0.04001   0.00000  Uiso   1.00
H534   H     0.45648   0.43071   0.11270   0.00000  Uiso   1.00
H535   H     0.16924   0.28093   0.35590   0.00000  Uiso   1.00
H536   H     0.09851   0.57637   0.94749   0.00000  Uiso   1.00
H537   H     0.35109   0.59004   0.21343   0.00000  Uiso   1.00
H538   H     0.45632   0.59544   0.20331   0.00000  Uiso   1.00
H539   H     0.32010   0.52440   0.31866   0.00000  Uiso   1.00
H540   H     0.28656   0.66450   0.12498   0.00000  Uiso   1.00
H541   H     0.55765   0.57895   0.18167   0.00000  Uiso   1.00
H542   H     0.27040   0.42916   0.42487   0.00000  Uiso   1.00
H543   H     0.19969   0.72460   0.01646   0.00000  Uiso   1.00
O544   O     0.57416   0.50525   0.13909   0.00000  Uiso   1.00
O545   O     0.19730   0.30874   0.45816   0.00000  Uiso   1.00
O546   O     0.10452   0.69635   0.92233   0.00000  Uiso   1.00
N547   N     0.46585   0.46487   0.13031   0.00000  Uiso   1.00
N548   N     0.19730   0.32482   0.35769   0.00000  Uiso   1.00
N549   N     0.13117   0.60103   0.97587   0.00000  Uiso   1.00
N550   N     0.52029   0.54463   0.16742   0.00000  Uiso   1.00
N551   N     0.25174   0.40458   0.39480   0.00000  Uiso   1.00
N552   N     0.18561   0.68079   0.01298   0.00000  Uiso   1.00
