data_job_04139
_audit_creation_date              2018-12-19
_audit_creation_method            'Materials Studio'
_symmetry_space_group_name_H-M    'P1'
_symmetry_Int_Tables_number       1
_symmetry_cell_setting            triclinic
loop_
_symmetry_equiv_pos_as_xyz
  x,y,z
_cell_length_a                    17.6017
_cell_length_b                    17.6017
_cell_length_c                    16.6997
_cell_angle_alpha                 90.0000
_cell_angle_beta                  90.0000
_cell_angle_gamma                 90.0000
loop_
_atom_site_label
_atom_site_type_symbol
_atom_site_fract_x
_atom_site_fract_y
_atom_site_fract_z
_atom_site_U_iso_or_equiv
_atom_site_adp_type
_atom_site_occupancy
C1     C     0.62888   0.47727   0.25645   0.00000  Uiso   1.00
C2     C     0.68568   0.51259   0.19842   0.00000  Uiso   1.00
C3     C     0.67622   0.58075   0.15785   0.00000  Uiso   1.00
C4     C     0.73476   0.60327   0.10744   0.00000  Uiso   1.00
C5     C     0.81296   0.66482   0.01873   0.00000  Uiso   1.00
C6     C     0.61200   0.39800   0.22418   0.00000  Uiso   1.00
C7     C     0.54058   0.36981   0.20528   0.00000  Uiso   1.00
C8     C     0.53709   0.29587   0.17656   0.00000  Uiso   1.00
C9     C     0.50088   0.17949   0.12790   0.00000  Uiso   1.00
C10    C     0.67175   0.46556   0.33484   0.00000  Uiso   1.00
C11    C     0.65055   0.49415   0.40900   0.00000  Uiso   1.00
C12    C     0.69736   0.47707   0.47345   0.00000  Uiso   1.00
C13    C     0.75392   0.46557   0.59661   0.00000  Uiso   1.00
C14    C     0.74968   0.39607   0.23906   0.00000  Uiso   1.00
C15    C     0.75129   0.46849   0.18897   0.00000  Uiso   1.00
C16    C     0.80986   0.49091   0.13861   0.00000  Uiso   1.00
C17    C     0.80049   0.55909   0.09798   0.00000  Uiso   1.00
C18    C     0.67760   0.35390   0.21473   0.00000  Uiso   1.00
C19    C     0.67422   0.27998   0.18604   0.00000  Uiso   1.00
C20    C     0.60282   0.25168   0.16710   0.00000  Uiso   1.00
C21    C     0.73736   0.42145   0.32540   0.00000  Uiso   1.00
C22    C     0.78420   0.40432   0.38975   0.00000  Uiso   1.00
C23    C     0.76309   0.43288   0.46399   0.00000  Uiso   1.00
H24    H     0.57780   0.51160   0.26381   0.00000  Uiso   1.00
H25    H     0.62543   0.61486   0.16517   0.00000  Uiso   1.00
H26    H     0.48981   0.40395   0.21260   0.00000  Uiso   1.00
H27    H     0.59978   0.52828   0.41628   0.00000  Uiso   1.00
H28    H     0.70716   0.70988   0.05163   0.00000  Uiso   1.00
H29    H     0.42120   0.26517   0.15167   0.00000  Uiso   1.00
H30    H     0.65307   0.52732   0.58117   0.00000  Uiso   1.00
H31    H     0.80076   0.36173   0.23171   0.00000  Uiso   1.00
H32    H     0.86063   0.45677   0.13131   0.00000  Uiso   1.00
H33    H     0.72501   0.24586   0.17874   0.00000  Uiso   1.00
H34    H     0.83497   0.37019   0.38242   0.00000  Uiso   1.00
H35    H     0.89805   0.58157   0.02415   0.00000  Uiso   1.00
H36    H     0.61209   0.13685   0.12418   0.00000  Uiso   1.00
H37    H     0.84397   0.39901   0.55368   0.00000  Uiso   1.00
O38    O     0.83796   0.71094   0.97241   0.00000  Uiso   1.00
O39    O     0.46278   0.12748   0.10366   0.00000  Uiso   1.00
O40    O     0.76700   0.47143   0.66715   0.00000  Uiso   1.00
N41    N     0.74388   0.66665   0.05895   0.00000  Uiso   1.00
N42    N     0.47652   0.25087   0.15247   0.00000  Uiso   1.00
N43    N     0.69329   0.49594   0.55402   0.00000  Uiso   1.00
N44    N     0.84660   0.59761   0.04417   0.00000  Uiso   1.00
N45    N     0.57924   0.18182   0.13768   0.00000  Uiso   1.00
N46    N     0.79601   0.42690   0.53923   0.00000  Uiso   1.00
C47    C     0.37112   0.52273   0.25645   0.00000  Uiso   1.00
C48    C     0.31432   0.48741   0.19842   0.00000  Uiso   1.00
C49    C     0.32378   0.41925   0.15785   0.00000  Uiso   1.00
C50    C     0.26524   0.39673   0.10744   0.00000  Uiso   1.00
C51    C     0.18704   0.33518   0.01873   0.00000  Uiso   1.00
C52    C     0.38800   0.60200   0.22418   0.00000  Uiso   1.00
C53    C     0.45942   0.63019   0.20528   0.00000  Uiso   1.00
C54    C     0.46291   0.70413   0.17656   0.00000  Uiso   1.00
C55    C     0.49912   0.82051   0.12790   0.00000  Uiso   1.00
C56    C     0.32825   0.53444   0.33484   0.00000  Uiso   1.00
C57    C     0.34945   0.50585   0.40900   0.00000  Uiso   1.00
C58    C     0.30264   0.52293   0.47345   0.00000  Uiso   1.00
C59    C     0.24608   0.53443   0.59661   0.00000  Uiso   1.00
C60    C     0.25032   0.60393   0.23906   0.00000  Uiso   1.00
C61    C     0.24871   0.53151   0.18897   0.00000  Uiso   1.00
C62    C     0.19014   0.50909   0.13861   0.00000  Uiso   1.00
C63    C     0.19951   0.44091   0.09798   0.00000  Uiso   1.00
C64    C     0.32240   0.64610   0.21473   0.00000  Uiso   1.00
C65    C     0.32578   0.72002   0.18604   0.00000  Uiso   1.00
C66    C     0.39718   0.74832   0.16710   0.00000  Uiso   1.00
C67    C     0.26264   0.57855   0.32540   0.00000  Uiso   1.00
C68    C     0.21580   0.59568   0.38975   0.00000  Uiso   1.00
C69    C     0.23691   0.56712   0.46399   0.00000  Uiso   1.00
H70    H     0.42220   0.48840   0.26381   0.00000  Uiso   1.00
H71    H     0.37457   0.38514   0.16517   0.00000  Uiso   1.00
H72    H     0.51019   0.59605   0.21260   0.00000  Uiso   1.00
H73    H     0.40022   0.47172   0.41628   0.00000  Uiso   1.00
H74    H     0.29284   0.29012   0.05163   0.00000  Uiso   1.00
H75    H     0.57880   0.73483   0.15167   0.00000  Uiso   1.00
H76    H     0.34693   0.47268   0.58117   0.00000  Uiso   1.00
H77    H     0.19924   0.63827   0.23171   0.00000  Uiso   1.00
H78    H     0.13937   0.54323   0.13131   0.00000  Uiso   1.00
H79    H     0.27499   0.75414   0.17874   0.00000  Uiso   1.00
H80    H     0.16503   0.62981   0.38242   0.00000  Uiso   1.00
H81    H     0.10195   0.41843   0.02415   0.00000  Uiso   1.00
H82    H     0.38791   0.86315   0.12418   0.00000  Uiso   1.00
H83    H     0.15603   0.60099   0.55368   0.00000  Uiso   1.00
O84    O     0.16204   0.28906   0.97241   0.00000  Uiso   1.00
O85    O     0.53722   0.87252   0.10366   0.00000  Uiso   1.00
O86    O     0.23300   0.52857   0.66715   0.00000  Uiso   1.00
N87    N     0.25612   0.33335   0.05895   0.00000  Uiso   1.00
N88    N     0.52348   0.74913   0.15247   0.00000  Uiso   1.00
N89    N     0.30671   0.50406   0.55402   0.00000  Uiso   1.00
N90    N     0.15340   0.40239   0.04417   0.00000  Uiso   1.00
N91    N     0.42076   0.81818   0.13768   0.00000  Uiso   1.00
N92    N     0.20399   0.57310   0.53923   0.00000  Uiso   1.00
C93    C     0.02273   0.12888   0.25645   0.00000  Uiso   1.00
C94    C     0.98741   0.18568   0.19842   0.00000  Uiso   1.00
C95    C     0.91925   0.17622   0.15785   0.00000  Uiso   1.00
C96    C     0.89673   0.23476   0.10744   0.00000  Uiso   1.00
C97    C     0.83518   0.31296   0.01873   0.00000  Uiso   1.00
C98    C     0.10200   0.11200   0.22418   0.00000  Uiso   1.00
C99    C     0.13019   0.04058   0.20528   0.00000  Uiso   1.00
C100   C     0.20413   0.03709   0.17656   0.00000  Uiso   1.00
C101   C     0.32051   0.00088   0.12790   0.00000  Uiso   1.00
C102   C     0.03444   0.17175   0.33484   0.00000  Uiso   1.00
C103   C     0.00585   0.15055   0.40900   0.00000  Uiso   1.00
C104   C     0.02293   0.19736   0.47345   0.00000  Uiso   1.00
C105   C     0.03443   0.25392   0.59661   0.00000  Uiso   1.00
C106   C     0.10393   0.24968   0.23906   0.00000  Uiso   1.00
C107   C     0.03151   0.25129   0.18897   0.00000  Uiso   1.00
C108   C     0.00909   0.30986   0.13861   0.00000  Uiso   1.00
C109   C     0.94091   0.30049   0.09798   0.00000  Uiso   1.00
C110   C     0.14610   0.17760   0.21473   0.00000  Uiso   1.00
C111   C     0.22002   0.17422   0.18604   0.00000  Uiso   1.00
C112   C     0.24832   0.10282   0.16710   0.00000  Uiso   1.00
C113   C     0.07855   0.23736   0.32540   0.00000  Uiso   1.00
C114   C     0.09568   0.28420   0.38975   0.00000  Uiso   1.00
C115   C     0.06712   0.26309   0.46399   0.00000  Uiso   1.00
H116   H     0.98840   0.07780   0.26381   0.00000  Uiso   1.00
H117   H     0.88514   0.12543   0.16517   0.00000  Uiso   1.00
H118   H     0.09605   0.98981   0.21260   0.00000  Uiso   1.00
H119   H     0.97172   0.09978   0.41628   0.00000  Uiso   1.00
H120   H     0.79012   0.20716   0.05163   0.00000  Uiso   1.00
H121   H     0.23483   0.92120   0.15167   0.00000  Uiso   1.00
H122   H     0.97268   0.15307   0.58117   0.00000  Uiso   1.00
H123   H     0.13827   0.30076   0.23171   0.00000  Uiso   1.00
H124   H     0.04323   0.36063   0.13131   0.00000  Uiso   1.00
H125   H     0.25414   0.22501   0.17874   0.00000  Uiso   1.00
H126   H     0.12981   0.33497   0.38242   0.00000  Uiso   1.00
H127   H     0.91843   0.39805   0.02415   0.00000  Uiso   1.00
H128   H     0.36315   0.11209   0.12418   0.00000  Uiso   1.00
H129   H     0.10099   0.34397   0.55368   0.00000  Uiso   1.00
O130   O     0.78906   0.33796   0.97241   0.00000  Uiso   1.00
O131   O     0.37252   0.96278   0.10366   0.00000  Uiso   1.00
O132   O     0.02857   0.26700   0.66715   0.00000  Uiso   1.00
N133   N     0.83335   0.24388   0.05895   0.00000  Uiso   1.00
N134   N     0.24913   0.97652   0.15247   0.00000  Uiso   1.00
N135   N     0.00406   0.19329   0.55402   0.00000  Uiso   1.00
N136   N     0.90239   0.34660   0.04417   0.00000  Uiso   1.00
N137   N     0.31818   0.07924   0.13768   0.00000  Uiso   1.00
N138   N     0.07310   0.29601   0.53923   0.00000  Uiso   1.00
C139   C     0.97727   0.87112   0.25645   0.00000  Uiso   1.00
C140   C     0.01259   0.81432   0.19842   0.00000  Uiso   1.00
C141   C     0.08075   0.82378   0.15785   0.00000  Uiso   1.00
C142   C     0.10327   0.76524   0.10744   0.00000  Uiso   1.00
C143   C     0.16482   0.68704   0.01873   0.00000  Uiso   1.00
C144   C     0.89800   0.88800   0.22418   0.00000  Uiso   1.00
C145   C     0.86981   0.95942   0.20528   0.00000  Uiso   1.00
C146   C     0.79587   0.96291   0.17656   0.00000  Uiso   1.00
C147   C     0.67949   0.99912   0.12790   0.00000  Uiso   1.00
C148   C     0.96556   0.82825   0.33484   0.00000  Uiso   1.00
C149   C     0.99415   0.84945   0.40900   0.00000  Uiso   1.00
C150   C     0.97707   0.80264   0.47345   0.00000  Uiso   1.00
C151   C     0.96557   0.74608   0.59661   0.00000  Uiso   1.00
C152   C     0.89607   0.75032   0.23906   0.00000  Uiso   1.00
C153   C     0.96849   0.74871   0.18897   0.00000  Uiso   1.00
C154   C     0.99091   0.69014   0.13861   0.00000  Uiso   1.00
C155   C     0.05909   0.69951   0.09798   0.00000  Uiso   1.00
C156   C     0.85390   0.82240   0.21473   0.00000  Uiso   1.00
C157   C     0.77998   0.82578   0.18604   0.00000  Uiso   1.00
C158   C     0.75168   0.89718   0.16710   0.00000  Uiso   1.00
C159   C     0.92145   0.76264   0.32540   0.00000  Uiso   1.00
C160   C     0.90432   0.71580   0.38975   0.00000  Uiso   1.00
C161   C     0.93288   0.73691   0.46399   0.00000  Uiso   1.00
H162   H     0.01160   0.92220   0.26381   0.00000  Uiso   1.00
H163   H     0.11486   0.87457   0.16517   0.00000  Uiso   1.00
H164   H     0.90395   0.01019   0.21260   0.00000  Uiso   1.00
H165   H     0.02828   0.90022   0.41628   0.00000  Uiso   1.00
H166   H     0.20988   0.79284   0.05163   0.00000  Uiso   1.00
H167   H     0.76517   0.07880   0.15167   0.00000  Uiso   1.00
H168   H     0.02732   0.84693   0.58117   0.00000  Uiso   1.00
H169   H     0.86173   0.69924   0.23171   0.00000  Uiso   1.00
H170   H     0.95677   0.63937   0.13131   0.00000  Uiso   1.00
H171   H     0.74586   0.77499   0.17874   0.00000  Uiso   1.00
H172   H     0.87019   0.66503   0.38242   0.00000  Uiso   1.00
H173   H     0.08157   0.60195   0.02415   0.00000  Uiso   1.00
H174   H     0.63685   0.88791   0.12418   0.00000  Uiso   1.00
H175   H     0.89901   0.65603   0.55368   0.00000  Uiso   1.00
O176   O     0.21094   0.66204   0.97241   0.00000  Uiso   1.00
O177   O     0.62748   0.03722   0.10366   0.00000  Uiso   1.00
O178   O     0.97143   0.73300   0.66715   0.00000  Uiso   1.00
N179   N     0.16665   0.75612   0.05895   0.00000  Uiso   1.00
N180   N     0.75087   0.02348   0.15247   0.00000  Uiso   1.00
N181   N     0.99594   0.80671   0.55402   0.00000  Uiso   1.00
N182   N     0.09761   0.65340   0.04417   0.00000  Uiso   1.00
N183   N     0.68182   0.92076   0.13768   0.00000  Uiso   1.00
N184   N     0.92690   0.70399   0.53923   0.00000  Uiso   1.00
C185   C     0.87112   0.02273   0.74355   0.00000  Uiso   1.00
C186   C     0.81432   0.98741   0.80158   0.00000  Uiso   1.00
C187   C     0.82378   0.91925   0.84215   0.00000  Uiso   1.00
C188   C     0.76524   0.89673   0.89256   0.00000  Uiso   1.00
C189   C     0.68704   0.83518   0.98127   0.00000  Uiso   1.00
C190   C     0.88800   0.10200   0.77582   0.00000  Uiso   1.00
C191   C     0.95942   0.13019   0.79472   0.00000  Uiso   1.00
C192   C     0.96291   0.20413   0.82344   0.00000  Uiso   1.00
C193   C     0.99912   0.32051   0.87210   0.00000  Uiso   1.00
C194   C     0.82825   0.03444   0.66516   0.00000  Uiso   1.00
C195   C     0.84945   0.00585   0.59100   0.00000  Uiso   1.00
C196   C     0.80264   0.02293   0.52655   0.00000  Uiso   1.00
C197   C     0.74608   0.03443   0.40339   0.00000  Uiso   1.00
C198   C     0.75032   0.10393   0.76094   0.00000  Uiso   1.00
C199   C     0.74871   0.03151   0.81103   0.00000  Uiso   1.00
C200   C     0.69014   0.00909   0.86139   0.00000  Uiso   1.00
C201   C     0.69951   0.94091   0.90202   0.00000  Uiso   1.00
C202   C     0.82240   0.14610   0.78527   0.00000  Uiso   1.00
C203   C     0.82578   0.22002   0.81396   0.00000  Uiso   1.00
C204   C     0.89718   0.24832   0.83290   0.00000  Uiso   1.00
C205   C     0.76264   0.07855   0.67460   0.00000  Uiso   1.00
C206   C     0.71580   0.09568   0.61025   0.00000  Uiso   1.00
C207   C     0.73691   0.06712   0.53601   0.00000  Uiso   1.00
H208   H     0.92220   0.98840   0.73619   0.00000  Uiso   1.00
H209   H     0.87457   0.88514   0.83483   0.00000  Uiso   1.00
H210   H     0.01019   0.09605   0.78740   0.00000  Uiso   1.00
H211   H     0.90022   0.97172   0.58372   0.00000  Uiso   1.00
H212   H     0.79284   0.79012   0.94837   0.00000  Uiso   1.00
H213   H     0.07880   0.23483   0.84833   0.00000  Uiso   1.00
H214   H     0.84693   0.97268   0.41883   0.00000  Uiso   1.00
H215   H     0.69924   0.13827   0.76829   0.00000  Uiso   1.00
H216   H     0.63937   0.04323   0.86869   0.00000  Uiso   1.00
H217   H     0.77499   0.25414   0.82126   0.00000  Uiso   1.00
H218   H     0.66503   0.12981   0.61758   0.00000  Uiso   1.00
H219   H     0.60195   0.91843   0.97585   0.00000  Uiso   1.00
H220   H     0.88791   0.36315   0.87582   0.00000  Uiso   1.00
H221   H     0.65603   0.10099   0.44632   0.00000  Uiso   1.00
O222   O     0.66204   0.78906   0.02759   0.00000  Uiso   1.00
O223   O     0.03722   0.37252   0.89634   0.00000  Uiso   1.00
O224   O     0.73300   0.02857   0.33285   0.00000  Uiso   1.00
N225   N     0.75612   0.83335   0.94105   0.00000  Uiso   1.00
N226   N     0.02348   0.24913   0.84753   0.00000  Uiso   1.00
N227   N     0.80671   0.00406   0.44598   0.00000  Uiso   1.00
N228   N     0.65340   0.90239   0.95583   0.00000  Uiso   1.00
N229   N     0.92076   0.31818   0.86232   0.00000  Uiso   1.00
N230   N     0.70399   0.07310   0.46077   0.00000  Uiso   1.00
C231   C     0.12888   0.97727   0.74355   0.00000  Uiso   1.00
C232   C     0.18568   0.01259   0.80158   0.00000  Uiso   1.00
C233   C     0.17622   0.08075   0.84215   0.00000  Uiso   1.00
C234   C     0.23476   0.10327   0.89256   0.00000  Uiso   1.00
C235   C     0.31296   0.16482   0.98127   0.00000  Uiso   1.00
C236   C     0.11200   0.89800   0.77582   0.00000  Uiso   1.00
C237   C     0.04058   0.86981   0.79472   0.00000  Uiso   1.00
C238   C     0.03709   0.79587   0.82344   0.00000  Uiso   1.00
C239   C     0.00088   0.67949   0.87210   0.00000  Uiso   1.00
C240   C     0.17175   0.96556   0.66516   0.00000  Uiso   1.00
C241   C     0.15055   0.99415   0.59100   0.00000  Uiso   1.00
C242   C     0.19736   0.97707   0.52655   0.00000  Uiso   1.00
C243   C     0.25392   0.96557   0.40339   0.00000  Uiso   1.00
C244   C     0.24968   0.89607   0.76094   0.00000  Uiso   1.00
C245   C     0.25129   0.96849   0.81103   0.00000  Uiso   1.00
C246   C     0.30986   0.99091   0.86139   0.00000  Uiso   1.00
C247   C     0.30049   0.05909   0.90202   0.00000  Uiso   1.00
C248   C     0.17760   0.85390   0.78527   0.00000  Uiso   1.00
C249   C     0.17422   0.77998   0.81396   0.00000  Uiso   1.00
C250   C     0.10282   0.75168   0.83290   0.00000  Uiso   1.00
C251   C     0.23736   0.92145   0.67460   0.00000  Uiso   1.00
C252   C     0.28420   0.90432   0.61025   0.00000  Uiso   1.00
C253   C     0.26309   0.93288   0.53601   0.00000  Uiso   1.00
H254   H     0.07780   0.01160   0.73619   0.00000  Uiso   1.00
H255   H     0.12543   0.11486   0.83483   0.00000  Uiso   1.00
H256   H     0.98981   0.90395   0.78740   0.00000  Uiso   1.00
H257   H     0.09978   0.02828   0.58372   0.00000  Uiso   1.00
H258   H     0.20716   0.20988   0.94837   0.00000  Uiso   1.00
H259   H     0.92120   0.76517   0.84833   0.00000  Uiso   1.00
H260   H     0.15307   0.02732   0.41883   0.00000  Uiso   1.00
H261   H     0.30076   0.86173   0.76829   0.00000  Uiso   1.00
H262   H     0.36063   0.95677   0.86869   0.00000  Uiso   1.00
H263   H     0.22501   0.74586   0.82126   0.00000  Uiso   1.00
H264   H     0.33497   0.87019   0.61758   0.00000  Uiso   1.00
H265   H     0.39805   0.08157   0.97585   0.00000  Uiso   1.00
H266   H     0.11209   0.63685   0.87582   0.00000  Uiso   1.00
H267   H     0.34397   0.89901   0.44632   0.00000  Uiso   1.00
O268   O     0.33796   0.21094   0.02759   0.00000  Uiso   1.00
O269   O     0.96278   0.62748   0.89634   0.00000  Uiso   1.00
O270   O     0.26700   0.97143   0.33285   0.00000  Uiso   1.00
N271   N     0.24388   0.16665   0.94105   0.00000  Uiso   1.00
N272   N     0.97652   0.75087   0.84753   0.00000  Uiso   1.00
N273   N     0.19329   0.99594   0.44598   0.00000  Uiso   1.00
N274   N     0.34660   0.09761   0.95583   0.00000  Uiso   1.00
N275   N     0.07924   0.68182   0.86232   0.00000  Uiso   1.00
N276   N     0.29601   0.92690   0.46077   0.00000  Uiso   1.00
C277   C     0.47727   0.37112   0.74355   0.00000  Uiso   1.00
C278   C     0.51259   0.31432   0.80158   0.00000  Uiso   1.00
C279   C     0.58075   0.32378   0.84215   0.00000  Uiso   1.00
C280   C     0.60327   0.26524   0.89256   0.00000  Uiso   1.00
C281   C     0.66482   0.18704   0.98127   0.00000  Uiso   1.00
C282   C     0.39800   0.38800   0.77582   0.00000  Uiso   1.00
C283   C     0.36981   0.45942   0.79472   0.00000  Uiso   1.00
C284   C     0.29587   0.46291   0.82344   0.00000  Uiso   1.00
C285   C     0.17949   0.49912   0.87210   0.00000  Uiso   1.00
C286   C     0.46556   0.32825   0.66516   0.00000  Uiso   1.00
C287   C     0.49415   0.34945   0.59100   0.00000  Uiso   1.00
C288   C     0.47707   0.30264   0.52655   0.00000  Uiso   1.00
C289   C     0.46557   0.24608   0.40339   0.00000  Uiso   1.00
C290   C     0.39607   0.25032   0.76094   0.00000  Uiso   1.00
C291   C     0.46849   0.24871   0.81103   0.00000  Uiso   1.00
C292   C     0.49091   0.19014   0.86139   0.00000  Uiso   1.00
C293   C     0.55909   0.19951   0.90202   0.00000  Uiso   1.00
C294   C     0.35390   0.32240   0.78527   0.00000  Uiso   1.00
C295   C     0.27998   0.32578   0.81396   0.00000  Uiso   1.00
C296   C     0.25168   0.39718   0.83290   0.00000  Uiso   1.00
C297   C     0.42145   0.26264   0.67460   0.00000  Uiso   1.00
C298   C     0.40432   0.21580   0.61025   0.00000  Uiso   1.00
C299   C     0.43288   0.23691   0.53601   0.00000  Uiso   1.00
H300   H     0.51160   0.42220   0.73619   0.00000  Uiso   1.00
H301   H     0.61486   0.37457   0.83483   0.00000  Uiso   1.00
H302   H     0.40395   0.51019   0.78740   0.00000  Uiso   1.00
H303   H     0.52828   0.40022   0.58372   0.00000  Uiso   1.00
H304   H     0.70988   0.29284   0.94837   0.00000  Uiso   1.00
H305   H     0.26517   0.57880   0.84833   0.00000  Uiso   1.00
H306   H     0.52732   0.34693   0.41883   0.00000  Uiso   1.00
H307   H     0.36173   0.19924   0.76829   0.00000  Uiso   1.00
H308   H     0.45677   0.13937   0.86869   0.00000  Uiso   1.00
H309   H     0.24586   0.27499   0.82126   0.00000  Uiso   1.00
H310   H     0.37019   0.16503   0.61758   0.00000  Uiso   1.00
H311   H     0.58157   0.10195   0.97585   0.00000  Uiso   1.00
H312   H     0.13685   0.38791   0.87582   0.00000  Uiso   1.00
H313   H     0.39901   0.15603   0.44632   0.00000  Uiso   1.00
O314   O     0.71094   0.16204   0.02759   0.00000  Uiso   1.00
O315   O     0.12748   0.53722   0.89634   0.00000  Uiso   1.00
O316   O     0.47143   0.23300   0.33285   0.00000  Uiso   1.00
N317   N     0.66665   0.25612   0.94105   0.00000  Uiso   1.00
N318   N     0.25087   0.52348   0.84753   0.00000  Uiso   1.00
N319   N     0.49594   0.30671   0.44598   0.00000  Uiso   1.00
N320   N     0.59761   0.15340   0.95583   0.00000  Uiso   1.00
N321   N     0.18182   0.42076   0.86232   0.00000  Uiso   1.00
N322   N     0.42690   0.20399   0.46077   0.00000  Uiso   1.00
C323   C     0.52273   0.62888   0.74355   0.00000  Uiso   1.00
C324   C     0.48741   0.68568   0.80158   0.00000  Uiso   1.00
C325   C     0.41925   0.67622   0.84215   0.00000  Uiso   1.00
C326   C     0.39673   0.73476   0.89256   0.00000  Uiso   1.00
C327   C     0.33518   0.81296   0.98127   0.00000  Uiso   1.00
C328   C     0.60200   0.61200   0.77582   0.00000  Uiso   1.00
C329   C     0.63019   0.54058   0.79472   0.00000  Uiso   1.00
C330   C     0.70413   0.53709   0.82344   0.00000  Uiso   1.00
C331   C     0.82051   0.50088   0.87210   0.00000  Uiso   1.00
C332   C     0.53444   0.67175   0.66516   0.00000  Uiso   1.00
C333   C     0.50585   0.65055   0.59100   0.00000  Uiso   1.00
C334   C     0.52293   0.69736   0.52655   0.00000  Uiso   1.00
C335   C     0.53443   0.75392   0.40339   0.00000  Uiso   1.00
C336   C     0.60393   0.74968   0.76094   0.00000  Uiso   1.00
C337   C     0.53151   0.75129   0.81103   0.00000  Uiso   1.00
C338   C     0.50909   0.80986   0.86139   0.00000  Uiso   1.00
C339   C     0.44091   0.80049   0.90202   0.00000  Uiso   1.00
C340   C     0.64610   0.67760   0.78527   0.00000  Uiso   1.00
C341   C     0.72002   0.67422   0.81396   0.00000  Uiso   1.00
C342   C     0.74832   0.60282   0.83290   0.00000  Uiso   1.00
C343   C     0.57855   0.73736   0.67460   0.00000  Uiso   1.00
C344   C     0.59568   0.78420   0.61025   0.00000  Uiso   1.00
C345   C     0.56712   0.76309   0.53601   0.00000  Uiso   1.00
H346   H     0.48840   0.57780   0.73619   0.00000  Uiso   1.00
H347   H     0.38514   0.62543   0.83483   0.00000  Uiso   1.00
H348   H     0.59605   0.48981   0.78740   0.00000  Uiso   1.00
H349   H     0.47172   0.59978   0.58372   0.00000  Uiso   1.00
H350   H     0.29012   0.70716   0.94837   0.00000  Uiso   1.00
H351   H     0.73483   0.42120   0.84833   0.00000  Uiso   1.00
H352   H     0.47268   0.65307   0.41883   0.00000  Uiso   1.00
H353   H     0.63827   0.80076   0.76829   0.00000  Uiso   1.00
H354   H     0.54323   0.86063   0.86869   0.00000  Uiso   1.00
H355   H     0.75414   0.72501   0.82126   0.00000  Uiso   1.00
H356   H     0.62981   0.83497   0.61758   0.00000  Uiso   1.00
H357   H     0.41843   0.89805   0.97585   0.00000  Uiso   1.00
H358   H     0.86315   0.61209   0.87582   0.00000  Uiso   1.00
H359   H     0.60099   0.84397   0.44632   0.00000  Uiso   1.00
O360   O     0.28906   0.83796   0.02759   0.00000  Uiso   1.00
O361   O     0.87252   0.46278   0.89634   0.00000  Uiso   1.00
O362   O     0.52857   0.76700   0.33285   0.00000  Uiso   1.00
N363   N     0.33335   0.74388   0.94105   0.00000  Uiso   1.00
N364   N     0.74913   0.47652   0.84753   0.00000  Uiso   1.00
N365   N     0.50406   0.69329   0.44598   0.00000  Uiso   1.00
N366   N     0.40239   0.84660   0.95583   0.00000  Uiso   1.00
N367   N     0.81818   0.57924   0.86232   0.00000  Uiso   1.00
N368   N     0.57310   0.79601   0.46077   0.00000  Uiso   1.00
