data_job_06560
_audit_creation_date              2018-12-19
_audit_creation_method            'Materials Studio'
_symmetry_space_group_name_H-M    'P1'
_symmetry_Int_Tables_number       1
_symmetry_cell_setting            triclinic
loop_
_symmetry_equiv_pos_as_xyz
  x,y,z
_cell_length_a                    17.9327
_cell_length_b                    22.4279
_cell_length_c                    23.6107
_cell_angle_alpha                 117.2340
_cell_angle_beta                  102.6802
_cell_angle_gamma                 99.7156
loop_
_atom_site_label
_atom_site_type_symbol
_atom_site_fract_x
_atom_site_fract_y
_atom_site_fract_z
_atom_site_U_iso_or_equiv
_atom_site_adp_type
_atom_site_occupancy
C1     C     0.97458   0.17478   0.72276   0.00000  Uiso   1.00
C2     C     0.96843   0.24932   0.75113   0.00000  Uiso   1.00
C3     C     0.98621   0.29334   0.72630   0.00000  Uiso   1.00
C4     C     0.97674   0.35959   0.75932   0.00000  Uiso   1.00
C5     C     0.97124   0.47210   0.79490   0.00000  Uiso   1.00
C6     C     0.03050   0.17469   0.78157   0.00000  Uiso   1.00
C7     C     0.10047   0.15596   0.78232   0.00000  Uiso   1.00
C8     C     0.14325   0.15938   0.84096   0.00000  Uiso   1.00
C9     C     0.23409   0.15597   0.92377   0.00000  Uiso   1.00
C10    C     0.89162   0.12731   0.70603   0.00000  Uiso   1.00
C11    C     0.84481   0.06873   0.64328   0.00000  Uiso   1.00
C12    C     0.77067   0.03225   0.63833   0.00000  Uiso   1.00
C13    C     0.64586   0.95528   0.60386   0.00000  Uiso   1.00
C14    C     0.92614   0.21415   0.82555   0.00000  Uiso   1.00
C15    C     0.94212   0.27070   0.80697   0.00000  Uiso   1.00
C16    C     0.93262   0.33691   0.84003   0.00000  Uiso   1.00
C17    C     0.95038   0.38102   0.81525   0.00000  Uiso   1.00
C18    C     0.00420   0.19608   0.83740   0.00000  Uiso   1.00
C19    C     0.04688   0.19952   0.89605   0.00000  Uiso   1.00
C20    C     0.11690   0.18081   0.89689   0.00000  Uiso   1.00
C21    C     0.86530   0.14870   0.76187   0.00000  Uiso   1.00
C22    C     0.79122   0.11230   0.75701   0.00000  Uiso   1.00
C23    C     0.74431   0.05368   0.69426   0.00000  Uiso   1.00
H24    H     0.99506   0.15812   0.67929   0.00000  Uiso   1.00
H25    H     0.00658   0.27677   0.68309   0.00000  Uiso   1.00
H26    H     0.12081   0.13940   0.73910   0.00000  Uiso   1.00
H27    H     0.86519   0.05219   0.60009   0.00000  Uiso   1.00
H28    H     0.00776   0.41776   0.71195   0.00000  Uiso   1.00
H29    H     0.24862   0.12808   0.83003   0.00000  Uiso   1.00
H30    H     0.70960   0.94418   0.53689   0.00000  Uiso   1.00
H31    H     0.90566   0.23080   0.86903   0.00000  Uiso   1.00
H32    H     0.91226   0.35344   0.88324   0.00000  Uiso   1.00
H33    H     0.02650   0.21607   0.93924   0.00000  Uiso   1.00
H34    H     0.77088   0.12887   0.80023   0.00000  Uiso   1.00
H35    H     0.93122   0.47999   0.87439   0.00000  Uiso   1.00
H36    H     0.17208   0.19031   0.99247   0.00000  Uiso   1.00
H37    H     0.63306   0.00642   0.69933   0.00000  Uiso   1.00
O38    O     0.97548   0.52824   0.79911   0.00000  Uiso   1.00
O39    O     0.29146   0.14819   0.95402   0.00000  Uiso   1.00
O40    O     0.58428   0.90693   0.56943   0.00000  Uiso   1.00
N41    N     0.98883   0.41557   0.74822   0.00000  Uiso   1.00
N42    N     0.21402   0.14475   0.85862   0.00000  Uiso   1.00
N43    N     0.71009   0.97281   0.58457   0.00000  Uiso   1.00
N44    N     0.94764   0.44905   0.83563   0.00000  Uiso   1.00
N45    N     0.17284   0.17824   0.94603   0.00000  Uiso   1.00
N46    N     0.66890   0.00630   0.67198   0.00000  Uiso   1.00
C47    C     0.22554   0.19584   0.34930   0.00000  Uiso   1.00
C48    C     0.18642   0.16235   0.38336   0.00000  Uiso   1.00
C49    C     0.22378   0.16957   0.44522   0.00000  Uiso   1.00
C50    C     0.17768   0.13474   0.46766   0.00000  Uiso   1.00
C51    C     0.12920   0.08889   0.52633   0.00000  Uiso   1.00
C52    C     0.21508   0.13520   0.27955   0.00000  Uiso   1.00
C53    C     0.27654   0.11960   0.25413   0.00000  Uiso   1.00
C54    C     0.25456   0.06191   0.18917   0.00000  Uiso   1.00
C55    C     0.25057   0.97394   0.08665   0.00000  Uiso   1.00
C56    C     0.17347   0.23876   0.33691   0.00000  Uiso   1.00
C57    C     0.19996   0.31023   0.35971   0.00000  Uiso   1.00
C58    C     0.14296   0.33974   0.34303   0.00000  Uiso   1.00
C59    C     0.07438   0.41256   0.32958   0.00000  Uiso   1.00
C60    C     0.07721   0.12113   0.27914   0.00000  Uiso   1.00
C61    C     0.10585   0.12177   0.34525   0.00000  Uiso   1.00
C62    C     0.05968   0.08692   0.36760   0.00000  Uiso   1.00
C63    C     0.09697   0.09410   0.42949   0.00000  Uiso   1.00
C64    C     0.13451   0.09462   0.24144   0.00000  Uiso   1.00
C65    C     0.11243   0.03695   0.17650   0.00000  Uiso   1.00
C66    C     0.17385   0.02126   0.15099   0.00000  Uiso   1.00
C67    C     0.09291   0.19819   0.29881   0.00000  Uiso   1.00
C68    C     0.03585   0.22758   0.28209   0.00000  Uiso   1.00
C69    C     0.06225   0.29909   0.30486   0.00000  Uiso   1.00
H70    H     0.28826   0.22742   0.37897   0.00000  Uiso   1.00
H71    H     0.28614   0.20097   0.47470   0.00000  Uiso   1.00
H72    H     0.33888   0.15101   0.28363   0.00000  Uiso   1.00
H73    H     0.26231   0.34161   0.38920   0.00000  Uiso   1.00
H74    H     0.24826   0.15374   0.56402   0.00000  Uiso   1.00
H75    H     0.35948   0.04840   0.16112   0.00000  Uiso   1.00
H76    H     0.19802   0.45033   0.38374   0.00000  Uiso   1.00
H77    H     0.01448   0.08954   0.24947   0.00000  Uiso   1.00
H78    H     0.99733   0.05553   0.33810   0.00000  Uiso   1.00
H79    H     0.05008   0.00557   0.14703   0.00000  Uiso   1.00
H80    H     0.97351   0.19617   0.25260   0.00000  Uiso   1.00
H81    H     0.01386   0.03568   0.45315   0.00000  Uiso   1.00
H82    H     0.12508   0.93035   0.05025   0.00000  Uiso   1.00
H83    H     0.96361   0.33228   0.27287   0.00000  Uiso   1.00
O84    O     0.12472   0.07480   0.56921   0.00000  Uiso   1.00
O85    O     0.27064   0.93662   0.04063   0.00000  Uiso   1.00
O86    O     0.05880   0.46394   0.33269   0.00000  Uiso   1.00
N87    N     0.19544   0.13063   0.52577   0.00000  Uiso   1.00
N88    N     0.29942   0.03214   0.14909   0.00000  Uiso   1.00
N89    N     0.14848   0.40791   0.35720   0.00000  Uiso   1.00
N90    N     0.06931   0.06711   0.46611   0.00000  Uiso   1.00
N91    N     0.17329   0.96862   0.08943   0.00000  Uiso   1.00
N92    N     0.02235   0.34439   0.29754   0.00000  Uiso   1.00
C93    C     0.86145   0.64165   0.82626   0.00000  Uiso   1.00
C94    C     0.79155   0.61296   0.76113   0.00000  Uiso   1.00
C95    C     0.78064   0.55544   0.69863   0.00000  Uiso   1.00
C96    C     0.71283   0.53755   0.64526   0.00000  Uiso   1.00
C97    C     0.61267   0.48719   0.54278   0.00000  Uiso   1.00
C98    C     0.89976   0.71907   0.85073   0.00000  Uiso   1.00
C99    C     0.97983   0.75076   0.86357   0.00000  Uiso   1.00
C100   C     0.00311   0.82220   0.88562   0.00000  Uiso   1.00
C101   C     0.07095   0.93659   0.92229   0.00000  Uiso   1.00
C102   C     0.82381   0.64125   0.87811   0.00000  Uiso   1.00
C103   C     0.84004   0.60754   0.91398   0.00000  Uiso   1.00
C104   C     0.79939   0.61348   0.95911   0.00000  Uiso   1.00
C105   C     0.74932   0.60706   0.03829   0.00000  Uiso   1.00
C106   C     0.76043   0.71217   0.84261   0.00000  Uiso   1.00
C107   C     0.73668   0.65126   0.77002   0.00000  Uiso   1.00
C108   C     0.66887   0.63346   0.71673   0.00000  Uiso   1.00
C109   C     0.65786   0.57592   0.65416   0.00000  Uiso   1.00
C110   C     0.84489   0.75737   0.85961   0.00000  Uiso   1.00
C111   C     0.86806   0.82878   0.88166   0.00000  Uiso   1.00
C112   C     0.94814   0.86057   0.89452   0.00000  Uiso   1.00
C113   C     0.76894   0.67956   0.88699   0.00000  Uiso   1.00
C114   C     0.72827   0.68556   0.93207   0.00000  Uiso   1.00
C115   C     0.74443   0.65186   0.96801   0.00000  Uiso   1.00
H116   H     0.90417   0.61183   0.81934   0.00000  Uiso   1.00
H117   H     0.82312   0.52581   0.69178   0.00000  Uiso   1.00
H118   H     0.02228   0.72111   0.85669   0.00000  Uiso   1.00
H119   H     0.88251   0.57791   0.90710   0.00000  Uiso   1.00
H120   H     0.70908   0.44735   0.55426   0.00000  Uiso   1.00
H121   H     0.12902   0.85914   0.90202   0.00000  Uiso   1.00
H122   H     0.83429   0.55718   0.00831   0.00000  Uiso   1.00
H123   H     0.71771   0.74199   0.84953   0.00000  Uiso   1.00
H124   H     0.62642   0.66311   0.72362   0.00000  Uiso   1.00
H125   H     0.82558   0.85840   0.88853   0.00000  Uiso   1.00
H126   H     0.68581   0.71520   0.93894   0.00000  Uiso   1.00
H127   H     0.54943   0.55878   0.58010   0.00000  Uiso   1.00
H128   H     0.96937   0.97058   0.92786   0.00000  Uiso   1.00
H129   H     0.67464   0.66861   0.03415   0.00000  Uiso   1.00
O130   O     0.57258   0.44884   0.48380   0.00000  Uiso   1.00
O131   O     0.12353   0.98910   0.94006   0.00000  Uiso   1.00
O132   O     0.73685   0.59293   0.07950   0.00000  Uiso   1.00
N133   N     0.68403   0.48439   0.57762   0.00000  Uiso   1.00
N134   N     0.07664   0.86939   0.90275   0.00000  Uiso   1.00
N135   N     0.80111   0.58710   0.00213   0.00000  Uiso   1.00
N136   N     0.59812   0.54435   0.59153   0.00000  Uiso   1.00
N137   N     0.99073   0.92936   0.91665   0.00000  Uiso   1.00
N138   N     0.71520   0.64706   0.01604   0.00000  Uiso   1.00
C139   C     0.56221   0.86119   0.23187   0.00000  Uiso   1.00
C140   C     0.53801   0.90376   0.29279   0.00000  Uiso   1.00
C141   C     0.55390   0.90077   0.35151   0.00000  Uiso   1.00
C142   C     0.52675   0.94389   0.40139   0.00000  Uiso   1.00
C143   C     0.49554   0.00326   0.49729   0.00000  Uiso   1.00
C144   C     0.61155   0.91492   0.22097   0.00000  Uiso   1.00
C145   C     0.68926   0.92131   0.21930   0.00000  Uiso   1.00
C146   C     0.72400   0.97382   0.20872   0.00000  Uiso   1.00
C147   C     0.80692   0.05048   0.19308   0.00000  Uiso   1.00
C148   C     0.48467   0.82100   0.17101   0.00000  Uiso   1.00
C149   C     0.45571   0.74843   0.12732   0.00000  Uiso   1.00
C150   C     0.38364   0.72187   0.07466   0.00000  Uiso   1.00
C151   C     0.26956   0.65271   0.98145   0.00000  Uiso   1.00
C152   C     0.48573   0.94308   0.21604   0.00000  Uiso   1.00
C153   C     0.49647   0.94824   0.28418   0.00000  Uiso   1.00
C154   C     0.46929   0.99137   0.33399   0.00000  Uiso   1.00
C155   C     0.48514   0.98845   0.39277   0.00000  Uiso   1.00
C156   C     0.57001   0.95940   0.21237   0.00000  Uiso   1.00
C157   C     0.60464   0.01191   0.20178   0.00000  Uiso   1.00
C158   C     0.68239   0.01838   0.20010   0.00000  Uiso   1.00
C159   C     0.44313   0.86548   0.16241   0.00000  Uiso   1.00
C160   C     0.37109   0.83903   0.10980   0.00000  Uiso   1.00
C161   C     0.34202   0.76643   0.06604   0.00000  Uiso   1.00
H162   H     0.59455   0.82656   0.23857   0.00000  Uiso   1.00
H163   H     0.58606   0.86635   0.35815   0.00000  Uiso   1.00
H164   H     0.72139   0.88688   0.22595   0.00000  Uiso   1.00
H165   H     0.48787   0.71402   0.13399   0.00000  Uiso   1.00
H166   H     0.55835   0.93009   0.48694   0.00000  Uiso   1.00
H167   H     0.84368   0.97337   0.20818   0.00000  Uiso   1.00
H168   H     0.35127   0.60887   0.01426   0.00000  Uiso   1.00
H169   H     0.45339   0.97771   0.20934   0.00000  Uiso   1.00
H170   H     0.43714   0.02579   0.32732   0.00000  Uiso   1.00
H171   H     0.57248   0.04632   0.19512   0.00000  Uiso   1.00
H172   H     0.33896   0.87347   0.10316   0.00000  Uiso   1.00
H173   H     0.43749   0.05951   0.46192   0.00000  Uiso   1.00
H174   H     0.72282   0.10278   0.18315   0.00000  Uiso   1.00
H175   H     0.23041   0.73828   0.98924   0.00000  Uiso   1.00
O176   O     0.48980   0.02372   0.55257   0.00000  Uiso   1.00
O177   O     0.86415   0.08048   0.18684   0.00000  Uiso   1.00
O178   O     0.21811   0.60227   0.93242   0.00000  Uiso   1.00
N179   N     0.53212   0.95394   0.46485   0.00000  Uiso   1.00
N180   N     0.79890   0.99441   0.20424   0.00000  Uiso   1.00
N181   N     0.33854   0.65364   0.02293   0.00000  Uiso   1.00
N182   N     0.46708   0.02358   0.45139   0.00000  Uiso   1.00
N183   N     0.73386   0.06404   0.19077   0.00000  Uiso   1.00
N184   N     0.27351   0.72327   0.00946   0.00000  Uiso   1.00
C185   C     0.70633   0.39297   0.17198   0.00000  Uiso   1.00
C186   C     0.64543   0.42462   0.14965   0.00000  Uiso   1.00
C187   C     0.66069   0.47387   0.13015   0.00000  Uiso   1.00
C188   C     0.59696   0.49626   0.11148   0.00000  Uiso   1.00
C189   C     0.51398   0.54932   0.07666   0.00000  Uiso   1.00
C190   C     0.67011   0.31323   0.12520   0.00000  Uiso   1.00
C191   C     0.70612   0.26883   0.08516   0.00000  Uiso   1.00
C192   C     0.66316   0.19745   0.04591   0.00000  Uiso   1.00
C193   C     0.61853   0.07757   0.97317   0.00000  Uiso   1.00
C194   C     0.70729   0.40829   0.24211   0.00000  Uiso   1.00
C195   C     0.77456   0.44380   0.30036   0.00000  Uiso   1.00
C196   C     0.76291   0.45244   0.35954   0.00000  Uiso   1.00
C197   C     0.77600   0.48015   0.46832   0.00000  Uiso   1.00
C198   C     0.56601   0.34514   0.17350   0.00000  Uiso   1.00
C199   C     0.56922   0.39863   0.15048   0.00000  Uiso   1.00
C200   C     0.50544   0.42095   0.13184   0.00000  Uiso   1.00
C201   C     0.52061   0.47023   0.11231   0.00000  Uiso   1.00
C202   C     0.59389   0.28725   0.12603   0.00000  Uiso   1.00
C203   C     0.55088   0.21591   0.08684   0.00000  Uiso   1.00
C204   C     0.58681   0.17142   0.04674   0.00000  Uiso   1.00
C205   C     0.63107   0.38231   0.24294   0.00000  Uiso   1.00
C206   C     0.61931   0.39089   0.30204   0.00000  Uiso   1.00
C207   C     0.68656   0.42641   0.36037   0.00000  Uiso   1.00
H208   H     0.76566   0.41319   0.17133   0.00000  Uiso   1.00
H209   H     0.71968   0.49396   0.12951   0.00000  Uiso   1.00
H210   H     0.76510   0.28895   0.08453   0.00000  Uiso   1.00
H211   H     0.83353   0.46390   0.29970   0.00000  Uiso   1.00
H212   H     0.63508   0.57202   0.08349   0.00000  Uiso   1.00
H213   H     0.73087   0.13975   0.98866   0.00000  Uiso   1.00
H214   H     0.87517   0.50866   0.44239   0.00000  Uiso   1.00
H215   H     0.50667   0.32491   0.17414   0.00000  Uiso   1.00
H216   H     0.44647   0.40084   0.13248   0.00000  Uiso   1.00
H217   H     0.49190   0.19583   0.08749   0.00000  Uiso   1.00
H218   H     0.56033   0.37078   0.30266   0.00000  Uiso   1.00
H219   H     0.41333   0.49644   0.08589   0.00000  Uiso   1.00
H220   H     0.50913   0.06417   0.99107   0.00000  Uiso   1.00
H221   H     0.65342   0.43308   0.44479   0.00000  Uiso   1.00
O222   O     0.48927   0.58575   0.05721   0.00000  Uiso   1.00
O223   O     0.61496   0.01863   0.93281   0.00000  Uiso   1.00
O224   O     0.80427   0.50263   0.52809   0.00000  Uiso   1.00
N225   N     0.59115   0.54383   0.08979   0.00000  Uiso   1.00
N226   N     0.68071   0.13968   0.00112   0.00000  Uiso   1.00
N227   N     0.81562   0.48456   0.42531   0.00000  Uiso   1.00
N228   N     0.47183   0.50316   0.09108   0.00000  Uiso   1.00
N229   N     0.56139   0.09901   0.00241   0.00000  Uiso   1.00
N230   N     0.69630   0.44389   0.42661   0.00000  Uiso   1.00
C231   C     0.33858   0.81895   0.57133   0.00000  Uiso   1.00
C232   C     0.25989   0.76914   0.55946   0.00000  Uiso   1.00
C233   C     0.21216   0.70856   0.49854   0.00000  Uiso   1.00
C234   C     0.14247   0.67012   0.49810   0.00000  Uiso   1.00
C235   C     0.02353   0.58950   0.47079   0.00000  Uiso   1.00
C236   C     0.40164   0.82292   0.62911   0.00000  Uiso   1.00
C237   C     0.47310   0.80758   0.62675   0.00000  Uiso   1.00
C238   C     0.52274   0.81443   0.68495   0.00000  Uiso   1.00
C239   C     0.62389   0.81736   0.76579   0.00000  Uiso   1.00
C240   C     0.32755   0.89182   0.59913   0.00000  Uiso   1.00
C241   C     0.33673   0.93442   0.57158   0.00000  Uiso   1.00
C242   C     0.32401   0.99928   0.60454   0.00000  Uiso   1.00
C243   C     0.31013   0.10918   0.63883   0.00000  Uiso   1.00
C244   C     0.29969   0.85840   0.67889   0.00000  Uiso   1.00
C245   C     0.23877   0.79057   0.61789   0.00000  Uiso   1.00
C246   C     0.16913   0.75221   0.61754   0.00000  Uiso   1.00
C247   C     0.12131   0.69159   0.55662   0.00000  Uiso   1.00
C248   C     0.38052   0.84435   0.68753   0.00000  Uiso   1.00
C249   C     0.43007   0.85123   0.74575   0.00000  Uiso   1.00
C250   C     0.50158   0.83590   0.74347   0.00000  Uiso   1.00
C251   C     0.30643   0.91325   0.65756   0.00000  Uiso   1.00
C252   C     0.29370   0.97807   0.69057   0.00000  Uiso   1.00
C253   C     0.30285   0.02075   0.66307   0.00000  Uiso   1.00
H254   H     0.35503   0.80226   0.52585   0.00000  Uiso   1.00
H255   H     0.22853   0.69199   0.45334   0.00000  Uiso   1.00
H256   H     0.48943   0.79100   0.58154   0.00000  Uiso   1.00
H257   H     0.35308   0.91781   0.52637   0.00000  Uiso   1.00
H258   H     0.07899   0.57917   0.39871   0.00000  Uiso   1.00
H259   H     0.62912   0.78796   0.66903   0.00000  Uiso   1.00
H260   H     0.34160   0.05537   0.55270   0.00000  Uiso   1.00
H261   H     0.28325   0.87509   0.72438   0.00000  Uiso   1.00
H262   H     0.15280   0.76881   0.66276   0.00000  Uiso   1.00
H263   H     0.41371   0.86782   0.79095   0.00000  Uiso   1.00
H264   H     0.27736   0.99463   0.73578   0.00000  Uiso   1.00
H265   H     0.01753   0.64152   0.56869   0.00000  Uiso   1.00
H266   H     0.56766   0.85031   0.83900   0.00000  Uiso   1.00
H267   H     0.28014   0.11772   0.72267   0.00000  Uiso   1.00
O268   O     0.96376   0.53910   0.43959   0.00000  Uiso   1.00
O269   O     0.68552   0.81305   0.79423   0.00000  Uiso   1.00
O270   O     0.30830   0.16388   0.64161   0.00000  Uiso   1.00
N271   N     0.08242   0.60843   0.44717   0.00000  Uiso   1.00
N272   N     0.59675   0.80363   0.69989   0.00000  Uiso   1.00
N273   N     0.32797   0.05365   0.59114   0.00000  Uiso   1.00
N274   N     0.04934   0.64198   0.53863   0.00000  Uiso   1.00
N275   N     0.56368   0.83718   0.79135   0.00000  Uiso   1.00
N276   N     0.29489   0.08720   0.68260   0.00000  Uiso   1.00
C277   C     0.99386   0.78688   0.18383   0.00000  Uiso   1.00
C278   C     0.02062   0.73045   0.13342   0.00000  Uiso   1.00
C279   C     0.00520   0.66115   0.11843   0.00000  Uiso   1.00
C280   C     0.03481   0.61774   0.07085   0.00000  Uiso   1.00
C281   C     0.06971   0.52630   0.99733   0.00000  Uiso   1.00
C282   C     0.94560   0.81385   0.14429   0.00000  Uiso   1.00
C283   C     0.86712   0.81467   0.13844   0.00000  Uiso   1.00
C284   C     0.83360   0.84148   0.10001   0.00000  Uiso   1.00
C285   C     0.75206   0.87956   0.04340   0.00000  Uiso   1.00
C286   C     0.07020   0.84795   0.23414   0.00000  Uiso   1.00
C287   C     0.09646   0.87747   0.30385   0.00000  Uiso   1.00
C288   C     0.16783   0.93300   0.34108   0.00000  Uiso   1.00
C289   C     0.27974   0.02404   0.42398   0.00000  Uiso   1.00
C290   C     0.07388   0.83302   0.12599   0.00000  Uiso   1.00
C291   C     0.06408   0.75551   0.10201   0.00000  Uiso   1.00
C292   C     0.09373   0.71220   0.05444   0.00000  Uiso   1.00
C293   C     0.07836   0.64284   0.03938   0.00000  Uiso   1.00
C294   C     0.98907   0.83891   0.11287   0.00000  Uiso   1.00
C295   C     0.95565   0.86572   0.07445   0.00000  Uiso   1.00
C296   C     0.87714   0.86658   0.06854   0.00000  Uiso   1.00
C297   C     0.11366   0.87301   0.20273   0.00000  Uiso   1.00
C298   C     0.18500   0.92851   0.23986   0.00000  Uiso   1.00
C299   C     0.21137   0.95811   0.30960   0.00000  Uiso   1.00
H300   H     0.96002   0.76737   0.20829   0.00000  Uiso   1.00
H301   H     0.97155   0.64177   0.14275   0.00000  Uiso   1.00
H302   H     0.83350   0.79528   0.16276   0.00000  Uiso   1.00
H303   H     0.06281   0.85806   0.32815   0.00000  Uiso   1.00
H304   H     0.00348   0.51357   0.05621   0.00000  Uiso   1.00
H305   H     0.71241   0.83728   0.09843   0.00000  Uiso   1.00
H306   H     0.19595   0.96967   0.44717   0.00000  Uiso   1.00
H307   H     0.10772   0.85253   0.10153   0.00000  Uiso   1.00
H308   H     0.12736   0.73160   0.03013   0.00000  Uiso   1.00
H309   H     0.98931   0.88511   0.05014   0.00000  Uiso   1.00
H310   H     0.21862   0.94789   0.21553   0.00000  Uiso   1.00
H311   H     0.12994   0.58648   0.96480   0.00000  Uiso   1.00
H312   H     0.83886   0.91019   0.00702   0.00000  Uiso   1.00
H313   H     0.32241   0.04258   0.35577   0.00000  Uiso   1.00
O314   O     0.07694   0.46894   0.96545   0.00000  Uiso   1.00
O315   O     0.69507   0.89364   0.02085   0.00000  Uiso   1.00
O316   O     0.32946   0.06732   0.47839   0.00000  Uiso   1.00
N317   N     0.03056   0.54733   0.04451   0.00000  Uiso   1.00
N318   N     0.75842   0.84996   0.08397   0.00000  Uiso   1.00
N319   N     0.21048   0.97375   0.41002   0.00000  Uiso   1.00
N320   N     0.09861   0.58656   0.99532   0.00000  Uiso   1.00
N321   N     0.82646   0.88920   0.03478   0.00000  Uiso   1.00
N322   N     0.27853   0.01298   0.36083   0.00000  Uiso   1.00
C323   C     0.84752   0.85944   0.67207   0.00000  Uiso   1.00
C324   C     0.88482   0.88992   0.63510   0.00000  Uiso   1.00
C325   C     0.84517   0.88148   0.57314   0.00000  Uiso   1.00
C326   C     0.88988   0.91355   0.54780   0.00000  Uiso   1.00
C327   C     0.93540   0.95497   0.48502   0.00000  Uiso   1.00
C328   C     0.86181   0.92200   0.74183   0.00000  Uiso   1.00
C329   C     0.80280   0.94052   0.76961   0.00000  Uiso   1.00
C330   C     0.82815   0.99959   0.83412   0.00000  Uiso   1.00
C331   C     0.83795   0.09079   0.93706   0.00000  Uiso   1.00
C332   C     0.89868   0.81570   0.68397   0.00000  Uiso   1.00
C333   C     0.87067   0.74484   0.66311   0.00000  Uiso   1.00
C334   C     0.92705   0.71441   0.67893   0.00000  Uiso   1.00
C335   C     0.99409   0.64056   0.69203   0.00000  Uiso   1.00
C336   C     0.99745   0.93140   0.73726   0.00000  Uiso   1.00
C337   C     0.96626   0.92901   0.67051   0.00000  Uiso   1.00
C338   C     0.01104   0.96110   0.64526   0.00000  Uiso   1.00
C339   C     0.97146   0.95270   0.58327   0.00000  Uiso   1.00
C340   C     0.94324   0.96109   0.77723   0.00000  Uiso   1.00
C341   C     0.96868   0.02014   0.84172   0.00000  Uiso   1.00
C342   C     0.90973   0.03875   0.86959   0.00000  Uiso   1.00
C343   C     0.98011   0.85479   0.71937   0.00000  Uiso   1.00
C344   C     0.03655   0.82446   0.73523   0.00000  Uiso   1.00
C345   C     0.00863   0.75357   0.71440   0.00000  Uiso   1.00
H346   H     0.78412   0.82901   0.64451   0.00000  Uiso   1.00
H347   H     0.78214   0.85123   0.54576   0.00000  Uiso   1.00
H348   H     0.73979   0.91026   0.74220   0.00000  Uiso   1.00
H349   H     0.80765   0.71461   0.63572   0.00000  Uiso   1.00
H350   H     0.81585   0.89313   0.45190   0.00000  Uiso   1.00
H351   H     0.72655   0.01759   0.86611   0.00000  Uiso   1.00
H352   H     0.86964   0.60502   0.64157   0.00000  Uiso   1.00
H353   H     0.06085   0.96183   0.76482   0.00000  Uiso   1.00
H354   H     0.07406   0.99134   0.67267   0.00000  Uiso   1.00
H355   H     0.03171   0.05038   0.86911   0.00000  Uiso   1.00
H356   H     0.09956   0.85473   0.76263   0.00000  Uiso   1.00
H357   H     0.05278   0.00685   0.55490   0.00000  Uiso   1.00
H358   H     0.96348   0.13131   0.96912   0.00000  Uiso   1.00
H359   H     0.10657   0.71874   0.74458   0.00000  Uiso   1.00
O360   O     0.93801   0.96703   0.44062   0.00000  Uiso   1.00
O361   O     0.82085   0.13030   0.98405   0.00000  Uiso   1.00
O362   O     0.00857   0.58903   0.68946   0.00000  Uiso   1.00
N363   N     0.86981   0.91583   0.48878   0.00000  Uiso   1.00
N364   N     0.78631   0.03220   0.87604   0.00000  Uiso   1.00
N365   N     0.92008   0.64649   0.66613   0.00000  Uiso   1.00
N366   N     0.99730   0.97703   0.54421   0.00000  Uiso   1.00
N367   N     0.91381   0.09339   0.93146   0.00000  Uiso   1.00
N368   N     0.04757   0.70768   0.72156   0.00000  Uiso   1.00
C369   C     0.17062   0.36611   0.15426   0.00000  Uiso   1.00
C370   C     0.24341   0.39841   0.21827   0.00000  Uiso   1.00
C371   C     0.25287   0.45451   0.28120   0.00000  Uiso   1.00
C372   C     0.32384   0.47626   0.33339   0.00000  Uiso   1.00
C373   C     0.42782   0.53144   0.43437   0.00000  Uiso   1.00
C374   C     0.14024   0.28791   0.13020   0.00000  Uiso   1.00
C375   C     0.06297   0.25110   0.11907   0.00000  Uiso   1.00
C376   C     0.04710   0.17983   0.09710   0.00000  Uiso   1.00
C377   C     0.99090   0.06345   0.06131   0.00000  Uiso   1.00
C378   C     0.20303   0.37012   0.10113   0.00000  Uiso   1.00
C379   C     0.17854   0.40242   0.06555   0.00000  Uiso   1.00
C380   C     0.21552   0.40036   0.01910   0.00000  Uiso   1.00
C381   C     0.25682   0.41162   0.93818   0.00000  Uiso   1.00
C382   C     0.27982   0.30498   0.13502   0.00000  Uiso   1.00
C383   C     0.30272   0.36520   0.20782   0.00000  Uiso   1.00
C384   C     0.37369   0.38688   0.25992   0.00000  Uiso   1.00
C385   C     0.38327   0.44300   0.32292   0.00000  Uiso   1.00
C386   C     0.19955   0.25470   0.11975   0.00000  Uiso   1.00
C387   C     0.18379   0.18347   0.09778   0.00000  Uiso   1.00
C388   C     0.10652   0.14657   0.08663   0.00000  Uiso   1.00
C389   C     0.26235   0.33692   0.09068   0.00000  Uiso   1.00
C390   C     0.29937   0.33479   0.04427   0.00000  Uiso   1.00
C391   C     0.27494   0.36709   0.00863   0.00000  Uiso   1.00
H392   H     0.12444   0.39195   0.16239   0.00000  Uiso   1.00
H393   H     0.20695   0.48019   0.28927   0.00000  Uiso   1.00
H394   H     0.01708   0.27681   0.12715   0.00000  Uiso   1.00
H395   H     0.13264   0.42811   0.07365   0.00000  Uiso   1.00
H396   H     0.32459   0.56335   0.42533   0.00000  Uiso   1.00
H397   H     0.92423   0.13451   0.08348   0.00000  Uiso   1.00
H398   H     0.16790   0.45356   0.97066   0.00000  Uiso   1.00
H399   H     0.32600   0.27913   0.12688   0.00000  Uiso   1.00
H400   H     0.41958   0.36117   0.25182   0.00000  Uiso   1.00
H401   H     0.22970   0.15779   0.08970   0.00000  Uiso   1.00
H402   H     0.34526   0.30909   0.03620   0.00000  Uiso   1.00
H403   H     0.49716   0.46675   0.39494   0.00000  Uiso   1.00
H404   H     0.09679   0.03791   0.05308   0.00000  Uiso   1.00
H405   H     0.34047   0.35696   0.94026   0.00000  Uiso   1.00
O406   O     0.46879   0.57104   0.49297   0.00000  Uiso   1.00
O407   O     0.94352   0.00842   0.04446   0.00000  Uiso   1.00
O408   O     0.26322   0.42701   0.89644   0.00000  Uiso   1.00
N409   N     0.35237   0.52937   0.40103   0.00000  Uiso   1.00
N410   N     0.97805   0.12843   0.08143   0.00000  Uiso   1.00
N411   N     0.20585   0.42670   0.97594   0.00000  Uiso   1.00
N412   N     0.44523   0.47739   0.38468   0.00000  Uiso   1.00
N413   N     0.07091   0.07645   0.06507   0.00000  Uiso   1.00
N414   N     0.29871   0.37472   0.95958   0.00000  Uiso   1.00
C415   C     0.53415   0.27316   0.85490   0.00000  Uiso   1.00
C416   C     0.52679   0.25261   0.78230   0.00000  Uiso   1.00
C417   C     0.48120   0.27412   0.74401   0.00000  Uiso   1.00
C418   C     0.48238   0.24954   0.67862   0.00000  Uiso   1.00
C419   C     0.46406   0.22437   0.56985   0.00000  Uiso   1.00
C420   C     0.50889   0.20409   0.85376   0.00000  Uiso   1.00
C421   C     0.44825   0.18480   0.87558   0.00000  Uiso   1.00
C422   C     0.43438   0.11938   0.87036   0.00000  Uiso   1.00
C423   C     0.38830   0.01891   0.87259   0.00000  Uiso   1.00
C424   C     0.62376   0.30664   0.89569   0.00000  Uiso   1.00
C425   C     0.65970   0.37358   0.95278   0.00000  Uiso   1.00
C426   C     0.74253   0.39450   0.98287   0.00000  Uiso   1.00
C427   C     0.87480   0.45326   0.05020   0.00000  Uiso   1.00
C428   C     0.61734   0.19126   0.80684   0.00000  Uiso   1.00
C429   C     0.57198   0.20813   0.75619   0.00000  Uiso   1.00
C430   C     0.57324   0.18351   0.69084   0.00000  Uiso   1.00
C431   C     0.52766   0.20498   0.65247   0.00000  Uiso   1.00
C432   C     0.55408   0.15960   0.82766   0.00000  Uiso   1.00
C433   C     0.54030   0.09420   0.82241   0.00000  Uiso   1.00
C434   C     0.47965   0.07482   0.84421   0.00000  Uiso   1.00
C435   C     0.66895   0.26216   0.86959   0.00000  Uiso   1.00
C436   C     0.75174   0.28298   0.89960   0.00000  Uiso   1.00
C437   C     0.78780   0.34994   0.95672   0.00000  Uiso   1.00
H438   H     0.49896   0.30778   0.87522   0.00000  Uiso   1.00
H439   H     0.44623   0.30854   0.76423   0.00000  Uiso   1.00
H440   H     0.41330   0.21924   0.89579   0.00000  Uiso   1.00
H441   H     0.62471   0.40799   0.97296   0.00000  Uiso   1.00
H442   H     0.40767   0.28973   0.62966   0.00000  Uiso   1.00
H443   H     0.33825   0.10146   0.90707   0.00000  Uiso   1.00
H444   H     0.78405   0.49948   0.06982   0.00000  Uiso   1.00
H445   H     0.65252   0.15663   0.78651   0.00000  Uiso   1.00
H446   H     0.60822   0.14909   0.67065   0.00000  Uiso   1.00
H447   H     0.57528   0.05979   0.80221   0.00000  Uiso   1.00
H448   H     0.78669   0.24854   0.87938   0.00000  Uiso   1.00
H449   H     0.53914   0.16032   0.55371   0.00000  Uiso   1.00
H450   H     0.46972   0.97204   0.83112   0.00000  Uiso   1.00
H451   H     0.91552   0.37006   0.99386   0.00000  Uiso   1.00
O452   O     0.44146   0.22277   0.51706   0.00000  Uiso   1.00
O453   O     0.35040   0.97577   0.88103   0.00000  Uiso   1.00
O454   O     0.93528   0.49796   0.09454   0.00000  Uiso   1.00
N455   N     0.44470   0.26032   0.62769   0.00000  Uiso   1.00
N456   N     0.37979   0.08429   0.88704   0.00000  Uiso   1.00
N457   N     0.79657   0.45640   0.03921   0.00000  Uiso   1.00
N458   N     0.51545   0.19068   0.58682   0.00000  Uiso   1.00
N459   N     0.45053   0.01465   0.84617   0.00000  Uiso   1.00
N460   N     0.86732   0.38676   0.99834   0.00000  Uiso   1.00
C461   C     0.33613   0.65890   0.82131   0.00000  Uiso   1.00
C462   C     0.38274   0.61536   0.83911   0.00000  Uiso   1.00
C463   C     0.35301   0.56497   0.85397   0.00000  Uiso   1.00
C464   C     0.40517   0.53091   0.86899   0.00000  Uiso   1.00
C465   C     0.46552   0.46093   0.89664   0.00000  Uiso   1.00
C466   C     0.38518   0.73593   0.87222   0.00000  Uiso   1.00
C467   C     0.35751   0.78692   0.91491   0.00000  Uiso   1.00
C468   C     0.41172   0.85435   0.95780   0.00000  Uiso   1.00
C469   C     0.47585   0.97156   0.03681   0.00000  Uiso   1.00
C470   C     0.34018   0.64536   0.75278   0.00000  Uiso   1.00
C471   C     0.27467   0.62022   0.69504   0.00000  Uiso   1.00
C472   C     0.29100   0.61141   0.63736   0.00000  Uiso   1.00
C473   C     0.28526   0.58800   0.53093   0.00000  Uiso   1.00
C474   C     0.48161   0.68800   0.82155   0.00000  Uiso   1.00
C475   C     0.46176   0.63117   0.83924   0.00000  Uiso   1.00
C476   C     0.51397   0.59717   0.85424   0.00000  Uiso   1.00
C477   C     0.48433   0.54674   0.86911   0.00000  Uiso   1.00
C478   C     0.46420   0.75174   0.87235   0.00000  Uiso   1.00
C479   C     0.51846   0.81911   0.91518   0.00000  Uiso   1.00
C480   C     0.49088   0.87019   0.95793   0.00000  Uiso   1.00
C481   C     0.41920   0.66117   0.75291   0.00000  Uiso   1.00
C482   C     0.43563   0.65241   0.69531   0.00000  Uiso   1.00
C483   C     0.37016   0.62725   0.63749   0.00000  Uiso   1.00
H484   H     0.27462   0.64660   0.82122   0.00000  Uiso   1.00
H485   H     0.29186   0.55276   0.85387   0.00000  Uiso   1.00
H486   H     0.29635   0.77467   0.91480   0.00000  Uiso   1.00
H487   H     0.21354   0.60799   0.69496   0.00000  Uiso   1.00
H488   H     0.34584   0.45571   0.89016   0.00000  Uiso   1.00
H489   H     0.35530   0.92362   0.01861   0.00000  Uiso   1.00
H490   H     0.18066   0.57215   0.55504   0.00000  Uiso   1.00
H491   H     0.54313   0.70031   0.82165   0.00000  Uiso   1.00
H492   H     0.57511   0.60942   0.85433   0.00000  Uiso   1.00
H493   H     0.57961   0.83133   0.91526   0.00000  Uiso   1.00
H494   H     0.49679   0.66465   0.69543   0.00000  Uiso   1.00
H495   H     0.57574   0.50170   0.89054   0.00000  Uiso   1.00
H496   H     0.58520   0.96962   0.01899   0.00000  Uiso   1.00
H497   H     0.41056   0.61814   0.55542   0.00000  Uiso   1.00
O498   O     0.47699   0.41796   0.91186   0.00000  Uiso   1.00
O499   O     0.48940   0.03185   0.08037   0.00000  Uiso   1.00
O500   O     0.26027   0.57072   0.47218   0.00000  Uiso   1.00
N501   N     0.39555   0.47900   0.88575   0.00000  Uiso   1.00
N502   N     0.40440   0.91647   0.00585   0.00000  Uiso   1.00
N503   N     0.24113   0.58789   0.57246   0.00000  Uiso   1.00
N504   N     0.51926   0.50375   0.88595   0.00000  Uiso   1.00
N505   N     0.52811   0.94121   0.00605   0.00000  Uiso   1.00
N506   N     0.36483   0.61263   0.57266   0.00000  Uiso   1.00
C507   C     0.71322   0.26500   0.46601   0.00000  Uiso   1.00
C508   C     0.79375   0.30825   0.47314   0.00000  Uiso   1.00
C509   C     0.84063   0.37423   0.52819   0.00000  Uiso   1.00
C510   C     0.91231   0.40509   0.52499   0.00000  Uiso   1.00
C511   C     0.03370   0.47742   0.54460   0.00000  Uiso   1.00
C512   C     0.65327   0.24979   0.40054   0.00000  Uiso   1.00
C513   C     0.58205   0.26661   0.39455   0.00000  Uiso   1.00
C514   C     0.53548   0.24825   0.33024   0.00000  Uiso   1.00
C515   C     0.43875   0.22978   0.23714   0.00000  Uiso   1.00
C516   C     0.72276   0.19412   0.45337   0.00000  Uiso   1.00
C517   C     0.70993   0.16412   0.49179   0.00000  Uiso   1.00
C518   C     0.72185   0.09889   0.47194   0.00000  Uiso   1.00
C519   C     0.73300   0.99399   0.46086   0.00000  Uiso   1.00
C520   C     0.75717   0.20248   0.36244   0.00000  Uiso   1.00
C521   C     0.81761   0.27429   0.41688   0.00000  Uiso   1.00
C522   C     0.88925   0.30505   0.41360   0.00000  Uiso   1.00
C523   C     0.93623   0.37107   0.46863   0.00000  Uiso   1.00
C524   C     0.67714   0.21583   0.34429   0.00000  Uiso   1.00
C525   C     0.63067   0.19744   0.27997   0.00000  Uiso   1.00
C526   C     0.55939   0.21423   0.27388   0.00000  Uiso   1.00
C527   C     0.74663   0.16016   0.39712   0.00000  Uiso   1.00
C528   C     0.75856   0.09496   0.37720   0.00000  Uiso   1.00
C529   C     0.74576   0.06487   0.41558   0.00000  Uiso   1.00
H530   H     0.69463   0.29144   0.50980   0.00000  Uiso   1.00
H531   H     0.82213   0.40049   0.57171   0.00000  Uiso   1.00
H532   H     0.56359   0.29288   0.43809   0.00000  Uiso   1.00
H533   H     0.69146   0.19042   0.53531   0.00000  Uiso   1.00
H534   H     0.97400   0.50644   0.61552   0.00000  Uiso   1.00
H535   H     0.42883   0.27952   0.33379   0.00000  Uiso   1.00
H536   H     0.69847   0.06345   0.53879   0.00000  Uiso   1.00
H537   H     0.77575   0.17604   0.31864   0.00000  Uiso   1.00
H538   H     0.90771   0.27876   0.37006   0.00000  Uiso   1.00
H539   H     0.64916   0.17116   0.23645   0.00000  Uiso   1.00
H540   H     0.77703   0.06869   0.33367   0.00000  Uiso   1.00
H541   H     0.04345   0.40764   0.45186   0.00000  Uiso   1.00
H542   H     0.49828   0.18071   0.17012   0.00000  Uiso   1.00
H543   H     0.76792   0.96465   0.37513   0.00000  Uiso   1.00
O544   O     0.09405   0.52671   0.57095   0.00000  Uiso   1.00
O545   O     0.37880   0.22898   0.20133   0.00000  Uiso   1.00
O546   O     0.73257   0.94551   0.47029   0.00000  Uiso   1.00
N547   N     0.97224   0.46908   0.56995   0.00000  Uiso   1.00
N548   N     0.46255   0.25693   0.30655   0.00000  Uiso   1.00
N549   N     0.71462   0.05492   0.49820   0.00000  Uiso   1.00
N550   N     0.00961   0.41592   0.48189   0.00000  Uiso   1.00
N551   N     0.49992   0.20377   0.21848   0.00000  Uiso   1.00
N552   N     0.75199   0.00176   0.41014   0.00000  Uiso   1.00
