data_job_02595
_audit_creation_date              2018-12-19
_audit_creation_method            'Materials Studio'
_symmetry_space_group_name_H-M    'P1'
_symmetry_Int_Tables_number       1
_symmetry_cell_setting            triclinic
loop_
_symmetry_equiv_pos_as_xyz
  x,y,z
_cell_length_a                    19.5888
_cell_length_b                    25.1134
_cell_length_c                    10.8953
_cell_angle_alpha                 90.0000
_cell_angle_beta                  90.0000
_cell_angle_gamma                 90.0000
loop_
_atom_site_label
_atom_site_type_symbol
_atom_site_fract_x
_atom_site_fract_y
_atom_site_fract_z
_atom_site_U_iso_or_equiv
_atom_site_adp_type
_atom_site_occupancy
C1     C     0.77388   0.86684   0.29072   0.00000  Uiso   1.00
C2     C     0.82026   0.85628   0.18097   0.00000  Uiso   1.00
C3     C     0.83584   0.80659   0.13279   0.00000  Uiso   1.00
C4     C     0.87928   0.80535   0.03215   0.00000  Uiso   1.00
C5     C     0.94724   0.78184   0.86946   0.00000  Uiso   1.00
C6     C     0.81660   0.89847   0.38222   0.00000  Uiso   1.00
C7     C     0.82911   0.88426   0.50325   0.00000  Uiso   1.00
C8     C     0.86947   0.91854   0.57201   0.00000  Uiso   1.00
C9     C     0.93172   0.96055   0.72180   0.00000  Uiso   1.00
C10    C     0.71866   0.90481   0.24520   0.00000  Uiso   1.00
C11    C     0.64880   0.89593   0.25105   0.00000  Uiso   1.00
C12    C     0.60670   0.93556   0.20449   0.00000  Uiso   1.00
C13    C     0.51687   0.98740   0.14153   0.00000  Uiso   1.00
C14    C     0.82332   0.95300   0.19766   0.00000  Uiso   1.00
C15    C     0.84711   0.90308   0.13043   0.00000  Uiso   1.00
C16    C     0.89054   0.90192   0.02983   0.00000  Uiso   1.00
C17    C     0.90618   0.85223   0.98150   0.00000  Uiso   1.00
C18    C     0.84346   0.94527   0.33168   0.00000  Uiso   1.00
C19    C     0.88381   0.97958   0.40028   0.00000  Uiso   1.00
C20    C     0.89638   0.96542   0.52138   0.00000  Uiso   1.00
C21    C     0.74551   0.95161   0.19465   0.00000  Uiso   1.00
C22    C     0.70351   0.99126   0.14808   0.00000  Uiso   1.00
C23    C     0.63360   0.98244   0.15385   0.00000  Uiso   1.00
H24    H     0.75297   0.83041   0.33008   0.00000  Uiso   1.00
H25    H     0.81505   0.77038   0.17194   0.00000  Uiso   1.00
H26    H     0.80832   0.84804   0.54234   0.00000  Uiso   1.00
H27    H     0.62804   0.85971   0.29018   0.00000  Uiso   1.00
H28    H     0.89574   0.72448   0.97435   0.00000  Uiso   1.00
H29    H     0.88152   0.88823   0.75537   0.00000  Uiso   1.00
H30    H     0.50138   0.91284   0.22364   0.00000  Uiso   1.00
H31    H     0.84422   0.98943   0.15831   0.00000  Uiso   1.00
H32    H     0.91131   0.93814   0.99073   0.00000  Uiso   1.00
H33    H     0.90458   0.01580   0.36114   0.00000  Uiso   1.00
H34    H     0.72430   0.02746   0.10897   0.00000  Uiso   1.00
H35    H     0.97387   0.86063   0.82728   0.00000  Uiso   1.00
H36    H     0.95965   0.02439   0.60831   0.00000  Uiso   1.00
H37    H     0.57951   0.04900   0.07656   0.00000  Uiso   1.00
O38    O     0.97731   0.75594   0.79371   0.00000  Uiso   1.00
O39    O     0.95864   0.97079   0.81838   0.00000  Uiso   1.00
O40    O     0.45990   0.00307   0.12075   0.00000  Uiso   1.00
N41    N     0.90491   0.76356   0.96272   0.00000  Uiso   1.00
N42    N     0.89162   0.91666   0.69292   0.00000  Uiso   1.00
N43    N     0.53622   0.93967   0.19582   0.00000  Uiso   1.00
N44    N     0.94695   0.83682   0.88358   0.00000  Uiso   1.00
N45    N     0.93366   0.98992   0.61378   0.00000  Uiso   1.00
N46    N     0.57826   0.01294   0.11668   0.00000  Uiso   1.00
C47    C     0.78461   0.21052   0.21757   0.00000  Uiso   1.00
C48    C     0.83195   0.22196   0.32550   0.00000  Uiso   1.00
C49    C     0.84965   0.27209   0.36863   0.00000  Uiso   1.00
C50    C     0.89366   0.27413   0.46841   0.00000  Uiso   1.00
C51    C     0.96334   0.29896   0.62765   0.00000  Uiso   1.00
C52    C     0.82564   0.17630   0.12853   0.00000  Uiso   1.00
C53    C     0.83802   0.18803   0.00606   0.00000  Uiso   1.00
C54    C     0.87671   0.15163   0.94003   0.00000  Uiso   1.00
C55    C     0.93654   0.10555   0.79347   0.00000  Uiso   1.00
C56    C     0.72824   0.17469   0.26752   0.00000  Uiso   1.00
C57    C     0.65872   0.18506   0.26189   0.00000  Uiso   1.00
C58    C     0.61540   0.14730   0.31286   0.00000  Uiso   1.00
C59    C     0.52401   0.09872   0.38210   0.00000  Uiso   1.00
C60    C     0.83130   0.12500   0.31806   0.00000  Uiso   1.00
C61    C     0.85731   0.17551   0.38007   0.00000  Uiso   1.00
C62    C     0.90130   0.17747   0.47982   0.00000  Uiso   1.00
C63    C     0.91907   0.22759   0.52309   0.00000  Uiso   1.00
C64    C     0.85100   0.12985   0.18311   0.00000  Uiso   1.00
C65    C     0.88967   0.09341   0.11724   0.00000  Uiso   1.00
C66    C     0.90211   0.10509   0.99471   0.00000  Uiso   1.00
C67    C     0.75359   0.12824   0.32211   0.00000  Uiso   1.00
C68    C     0.71038   0.09045   0.37308   0.00000  Uiso   1.00
C69    C     0.64081   0.10076   0.36754   0.00000  Uiso   1.00
H70    H     0.76487   0.24668   0.17506   0.00000  Uiso   1.00
H71    H     0.83002   0.30803   0.32636   0.00000  Uiso   1.00
H72    H     0.81838   0.22398   0.96385   0.00000  Uiso   1.00
H73    H     0.63911   0.22101   0.21965   0.00000  Uiso   1.00
H74    H     0.91346   0.35556   0.51814   0.00000  Uiso   1.00
H75    H     0.88890   0.17833   0.75375   0.00000  Uiso   1.00
H76    H     0.51087   0.17207   0.29315   0.00000  Uiso   1.00
H77    H     0.85104   0.08883   0.36055   0.00000  Uiso   1.00
H78    H     0.92092   0.14152   0.52203   0.00000  Uiso   1.00
H79    H     0.90928   0.05747   0.15951   0.00000  Uiso   1.00
H80    H     0.73002   0.05450   0.41531   0.00000  Uiso   1.00
H81    H     0.98724   0.22041   0.67695   0.00000  Uiso   1.00
H82    H     0.96267   0.04318   0.91256   0.00000  Uiso   1.00
H83    H     0.58465   0.03693   0.45196   0.00000  Uiso   1.00
O84    O     0.99478   0.32549   0.70040   0.00000  Uiso   1.00
O85    O     0.96255   0.09297   0.69754   0.00000  Uiso   1.00
O86    O     0.46659   0.08476   0.40523   0.00000  Uiso   1.00
N87    N     0.92122   0.31652   0.53337   0.00000  Uiso   1.00
N88    N     0.89827   0.15083   0.81872   0.00000  Uiso   1.00
N89    N     0.54485   0.14497   0.32298   0.00000  Uiso   1.00
N90    N     0.96092   0.24380   0.61883   0.00000  Uiso   1.00
N91    N     0.93797   0.07811   0.90417   0.00000  Uiso   1.00
N92    N     0.58455   0.07225   0.40843   0.00000  Uiso   1.00
C93    C     0.22612   0.13316   0.79072   0.00000  Uiso   1.00
C94    C     0.17974   0.14372   0.68097   0.00000  Uiso   1.00
C95    C     0.16416   0.19341   0.63279   0.00000  Uiso   1.00
C96    C     0.12072   0.19465   0.53215   0.00000  Uiso   1.00
C97    C     0.05276   0.21816   0.36946   0.00000  Uiso   1.00
C98    C     0.18340   0.10153   0.88222   0.00000  Uiso   1.00
C99    C     0.17089   0.11574   0.00325   0.00000  Uiso   1.00
C100   C     0.13053   0.08146   0.07201   0.00000  Uiso   1.00
C101   C     0.06828   0.03945   0.22180   0.00000  Uiso   1.00
C102   C     0.28134   0.09519   0.74520   0.00000  Uiso   1.00
C103   C     0.35120   0.10407   0.75105   0.00000  Uiso   1.00
C104   C     0.39330   0.06444   0.70449   0.00000  Uiso   1.00
C105   C     0.48313   0.01260   0.64153   0.00000  Uiso   1.00
C106   C     0.17668   0.04700   0.69766   0.00000  Uiso   1.00
C107   C     0.15289   0.09692   0.63043   0.00000  Uiso   1.00
C108   C     0.10946   0.09808   0.52983   0.00000  Uiso   1.00
C109   C     0.09382   0.14777   0.48150   0.00000  Uiso   1.00
C110   C     0.15654   0.05473   0.83168   0.00000  Uiso   1.00
C111   C     0.11619   0.02042   0.90028   0.00000  Uiso   1.00
C112   C     0.10362   0.03458   0.02138   0.00000  Uiso   1.00
C113   C     0.25449   0.04839   0.69465   0.00000  Uiso   1.00
C114   C     0.29649   0.00874   0.64808   0.00000  Uiso   1.00
C115   C     0.36640   0.01756   0.65385   0.00000  Uiso   1.00
H116   H     0.24703   0.16959   0.83008   0.00000  Uiso   1.00
H117   H     0.18495   0.22962   0.67194   0.00000  Uiso   1.00
H118   H     0.19168   0.15196   0.04234   0.00000  Uiso   1.00
H119   H     0.37196   0.14029   0.79018   0.00000  Uiso   1.00
H120   H     0.10426   0.27552   0.47435   0.00000  Uiso   1.00
H121   H     0.11848   0.11177   0.25537   0.00000  Uiso   1.00
H122   H     0.49862   0.08716   0.72364   0.00000  Uiso   1.00
H123   H     0.15578   0.01057   0.65831   0.00000  Uiso   1.00
H124   H     0.08869   0.06186   0.49073   0.00000  Uiso   1.00
H125   H     0.09542   0.98420   0.86114   0.00000  Uiso   1.00
H126   H     0.27570   0.97254   0.60897   0.00000  Uiso   1.00
H127   H     0.02613   0.13937   0.32728   0.00000  Uiso   1.00
H128   H     0.04035   0.97561   0.10831   0.00000  Uiso   1.00
H129   H     0.42049   0.95100   0.57656   0.00000  Uiso   1.00
O130   O     0.02269   0.24406   0.29371   0.00000  Uiso   1.00
O131   O     0.04136   0.02921   0.31838   0.00000  Uiso   1.00
O132   O     0.54010   0.99693   0.62075   0.00000  Uiso   1.00
N133   N     0.09509   0.23644   0.46272   0.00000  Uiso   1.00
N134   N     0.10838   0.08334   0.19292   0.00000  Uiso   1.00
N135   N     0.46378   0.06033   0.69582   0.00000  Uiso   1.00
N136   N     0.05305   0.16318   0.38358   0.00000  Uiso   1.00
N137   N     0.06634   0.01008   0.11378   0.00000  Uiso   1.00
N138   N     0.42174   0.98706   0.61668   0.00000  Uiso   1.00
C139   C     0.21539   0.78948   0.71757   0.00000  Uiso   1.00
C140   C     0.16805   0.77804   0.82550   0.00000  Uiso   1.00
C141   C     0.15035   0.72791   0.86863   0.00000  Uiso   1.00
C142   C     0.10634   0.72587   0.96841   0.00000  Uiso   1.00
C143   C     0.03666   0.70104   0.12765   0.00000  Uiso   1.00
C144   C     0.17436   0.82370   0.62853   0.00000  Uiso   1.00
C145   C     0.16198   0.81197   0.50606   0.00000  Uiso   1.00
C146   C     0.12329   0.84837   0.44003   0.00000  Uiso   1.00
C147   C     0.06346   0.89445   0.29347   0.00000  Uiso   1.00
C148   C     0.27176   0.82531   0.76752   0.00000  Uiso   1.00
C149   C     0.34128   0.81494   0.76189   0.00000  Uiso   1.00
C150   C     0.38460   0.85270   0.81286   0.00000  Uiso   1.00
C151   C     0.47599   0.90128   0.88210   0.00000  Uiso   1.00
C152   C     0.16870   0.87500   0.81806   0.00000  Uiso   1.00
C153   C     0.14269   0.82449   0.88007   0.00000  Uiso   1.00
C154   C     0.09870   0.82253   0.97982   0.00000  Uiso   1.00
C155   C     0.08093   0.77241   0.02309   0.00000  Uiso   1.00
C156   C     0.14900   0.87015   0.68311   0.00000  Uiso   1.00
C157   C     0.11033   0.90659   0.61724   0.00000  Uiso   1.00
C158   C     0.09789   0.89491   0.49471   0.00000  Uiso   1.00
C159   C     0.24641   0.87176   0.82211   0.00000  Uiso   1.00
C160   C     0.28962   0.90955   0.87308   0.00000  Uiso   1.00
C161   C     0.35919   0.89924   0.86754   0.00000  Uiso   1.00
H162   H     0.23513   0.75332   0.67506   0.00000  Uiso   1.00
H163   H     0.16998   0.69197   0.82636   0.00000  Uiso   1.00
H164   H     0.18162   0.77602   0.46385   0.00000  Uiso   1.00
H165   H     0.36089   0.77899   0.71965   0.00000  Uiso   1.00
H166   H     0.08654   0.64444   0.01814   0.00000  Uiso   1.00
H167   H     0.11110   0.82167   0.25375   0.00000  Uiso   1.00
H168   H     0.48913   0.82793   0.79315   0.00000  Uiso   1.00
H169   H     0.14896   0.91117   0.86055   0.00000  Uiso   1.00
H170   H     0.07908   0.85848   0.02203   0.00000  Uiso   1.00
H171   H     0.09072   0.94253   0.65951   0.00000  Uiso   1.00
H172   H     0.26998   0.94550   0.91531   0.00000  Uiso   1.00
H173   H     0.01276   0.77959   0.17695   0.00000  Uiso   1.00
H174   H     0.03733   0.95682   0.41256   0.00000  Uiso   1.00
H175   H     0.41535   0.96307   0.95196   0.00000  Uiso   1.00
O176   O     0.00522   0.67451   0.20040   0.00000  Uiso   1.00
O177   O     0.03745   0.90703   0.19754   0.00000  Uiso   1.00
O178   O     0.53341   0.91524   0.90523   0.00000  Uiso   1.00
N179   N     0.07878   0.68348   0.03337   0.00000  Uiso   1.00
N180   N     0.10173   0.84917   0.31872   0.00000  Uiso   1.00
N181   N     0.45515   0.85503   0.82298   0.00000  Uiso   1.00
N182   N     0.03908   0.75620   0.11883   0.00000  Uiso   1.00
N183   N     0.06203   0.92189   0.40417   0.00000  Uiso   1.00
N184   N     0.41545   0.92775   0.90843   0.00000  Uiso   1.00
C185   C     0.27388   0.63316   0.29072   0.00000  Uiso   1.00
C186   C     0.32026   0.64372   0.18097   0.00000  Uiso   1.00
C187   C     0.33584   0.69341   0.13279   0.00000  Uiso   1.00
C188   C     0.37928   0.69465   0.03215   0.00000  Uiso   1.00
C189   C     0.44724   0.71816   0.86946   0.00000  Uiso   1.00
C190   C     0.31660   0.60153   0.38222   0.00000  Uiso   1.00
C191   C     0.32911   0.61574   0.50325   0.00000  Uiso   1.00
C192   C     0.36947   0.58146   0.57201   0.00000  Uiso   1.00
C193   C     0.43172   0.53945   0.72180   0.00000  Uiso   1.00
C194   C     0.21866   0.59519   0.24520   0.00000  Uiso   1.00
C195   C     0.14880   0.60407   0.25105   0.00000  Uiso   1.00
C196   C     0.10670   0.56444   0.20449   0.00000  Uiso   1.00
C197   C     0.01687   0.51260   0.14153   0.00000  Uiso   1.00
C198   C     0.32332   0.54700   0.19766   0.00000  Uiso   1.00
C199   C     0.34711   0.59692   0.13043   0.00000  Uiso   1.00
C200   C     0.39054   0.59808   0.02983   0.00000  Uiso   1.00
C201   C     0.40618   0.64777   0.98150   0.00000  Uiso   1.00
C202   C     0.34346   0.55473   0.33168   0.00000  Uiso   1.00
C203   C     0.38381   0.52042   0.40028   0.00000  Uiso   1.00
C204   C     0.39638   0.53458   0.52138   0.00000  Uiso   1.00
C205   C     0.24551   0.54839   0.19465   0.00000  Uiso   1.00
C206   C     0.20351   0.50874   0.14808   0.00000  Uiso   1.00
C207   C     0.13360   0.51756   0.15385   0.00000  Uiso   1.00
H208   H     0.25297   0.66959   0.33008   0.00000  Uiso   1.00
H209   H     0.31505   0.72962   0.17194   0.00000  Uiso   1.00
H210   H     0.30832   0.65196   0.54234   0.00000  Uiso   1.00
H211   H     0.12804   0.64029   0.29018   0.00000  Uiso   1.00
H212   H     0.39574   0.77552   0.97435   0.00000  Uiso   1.00
H213   H     0.38152   0.61177   0.75537   0.00000  Uiso   1.00
H214   H     0.00138   0.58716   0.22364   0.00000  Uiso   1.00
H215   H     0.34422   0.51057   0.15831   0.00000  Uiso   1.00
H216   H     0.41131   0.56186   0.99073   0.00000  Uiso   1.00
H217   H     0.40458   0.48420   0.36114   0.00000  Uiso   1.00
H218   H     0.22430   0.47254   0.10897   0.00000  Uiso   1.00
H219   H     0.47387   0.63937   0.82728   0.00000  Uiso   1.00
H220   H     0.45965   0.47561   0.60831   0.00000  Uiso   1.00
H221   H     0.07951   0.45100   0.07656   0.00000  Uiso   1.00
O222   O     0.47731   0.74406   0.79371   0.00000  Uiso   1.00
O223   O     0.45864   0.52921   0.81838   0.00000  Uiso   1.00
O224   O     0.95990   0.49693   0.12075   0.00000  Uiso   1.00
N225   N     0.40491   0.73644   0.96272   0.00000  Uiso   1.00
N226   N     0.39162   0.58334   0.69292   0.00000  Uiso   1.00
N227   N     0.03622   0.56033   0.19582   0.00000  Uiso   1.00
N228   N     0.44695   0.66318   0.88358   0.00000  Uiso   1.00
N229   N     0.43366   0.51008   0.61378   0.00000  Uiso   1.00
N230   N     0.07826   0.48706   0.11668   0.00000  Uiso   1.00
C231   C     0.28461   0.28948   0.21757   0.00000  Uiso   1.00
C232   C     0.33195   0.27804   0.32550   0.00000  Uiso   1.00
C233   C     0.34965   0.22791   0.36863   0.00000  Uiso   1.00
C234   C     0.39366   0.22587   0.46841   0.00000  Uiso   1.00
C235   C     0.46334   0.20104   0.62765   0.00000  Uiso   1.00
C236   C     0.32564   0.32370   0.12853   0.00000  Uiso   1.00
C237   C     0.33802   0.31197   0.00606   0.00000  Uiso   1.00
C238   C     0.37671   0.34837   0.94003   0.00000  Uiso   1.00
C239   C     0.43654   0.39445   0.79347   0.00000  Uiso   1.00
C240   C     0.22824   0.32531   0.26752   0.00000  Uiso   1.00
C241   C     0.15872   0.31494   0.26189   0.00000  Uiso   1.00
C242   C     0.11540   0.35270   0.31286   0.00000  Uiso   1.00
C243   C     0.02401   0.40128   0.38210   0.00000  Uiso   1.00
C244   C     0.33130   0.37500   0.31806   0.00000  Uiso   1.00
C245   C     0.35731   0.32449   0.38007   0.00000  Uiso   1.00
C246   C     0.40130   0.32253   0.47982   0.00000  Uiso   1.00
C247   C     0.41907   0.27241   0.52309   0.00000  Uiso   1.00
C248   C     0.35100   0.37015   0.18311   0.00000  Uiso   1.00
C249   C     0.38967   0.40659   0.11724   0.00000  Uiso   1.00
C250   C     0.40211   0.39491   0.99471   0.00000  Uiso   1.00
C251   C     0.25359   0.37176   0.32211   0.00000  Uiso   1.00
C252   C     0.21038   0.40955   0.37308   0.00000  Uiso   1.00
C253   C     0.14081   0.39924   0.36754   0.00000  Uiso   1.00
H254   H     0.26487   0.25332   0.17506   0.00000  Uiso   1.00
H255   H     0.33002   0.19197   0.32636   0.00000  Uiso   1.00
H256   H     0.31838   0.27602   0.96385   0.00000  Uiso   1.00
H257   H     0.13911   0.27899   0.21965   0.00000  Uiso   1.00
H258   H     0.41346   0.14444   0.51814   0.00000  Uiso   1.00
H259   H     0.38890   0.32167   0.75375   0.00000  Uiso   1.00
H260   H     0.01087   0.32793   0.29315   0.00000  Uiso   1.00
H261   H     0.35104   0.41117   0.36055   0.00000  Uiso   1.00
H262   H     0.42092   0.35848   0.52203   0.00000  Uiso   1.00
H263   H     0.40928   0.44253   0.15951   0.00000  Uiso   1.00
H264   H     0.23002   0.44550   0.41531   0.00000  Uiso   1.00
H265   H     0.48724   0.27959   0.67695   0.00000  Uiso   1.00
H266   H     0.46267   0.45682   0.91256   0.00000  Uiso   1.00
H267   H     0.08465   0.46307   0.45196   0.00000  Uiso   1.00
O268   O     0.49478   0.17451   0.70040   0.00000  Uiso   1.00
O269   O     0.46255   0.40703   0.69754   0.00000  Uiso   1.00
O270   O     0.96659   0.41524   0.40523   0.00000  Uiso   1.00
N271   N     0.42122   0.18348   0.53337   0.00000  Uiso   1.00
N272   N     0.39827   0.34917   0.81872   0.00000  Uiso   1.00
N273   N     0.04485   0.35503   0.32298   0.00000  Uiso   1.00
N274   N     0.46092   0.25620   0.61883   0.00000  Uiso   1.00
N275   N     0.43797   0.42189   0.90417   0.00000  Uiso   1.00
N276   N     0.08455   0.42775   0.40843   0.00000  Uiso   1.00
C277   C     0.72612   0.36684   0.79072   0.00000  Uiso   1.00
C278   C     0.67974   0.35628   0.68097   0.00000  Uiso   1.00
C279   C     0.66416   0.30659   0.63279   0.00000  Uiso   1.00
C280   C     0.62072   0.30535   0.53215   0.00000  Uiso   1.00
C281   C     0.55276   0.28184   0.36946   0.00000  Uiso   1.00
C282   C     0.68340   0.39847   0.88222   0.00000  Uiso   1.00
C283   C     0.67089   0.38426   0.00325   0.00000  Uiso   1.00
C284   C     0.63053   0.41854   0.07201   0.00000  Uiso   1.00
C285   C     0.56828   0.46055   0.22180   0.00000  Uiso   1.00
C286   C     0.78134   0.40481   0.74520   0.00000  Uiso   1.00
C287   C     0.85120   0.39593   0.75105   0.00000  Uiso   1.00
C288   C     0.89330   0.43556   0.70449   0.00000  Uiso   1.00
C289   C     0.98313   0.48740   0.64153   0.00000  Uiso   1.00
C290   C     0.67668   0.45300   0.69766   0.00000  Uiso   1.00
C291   C     0.65289   0.40308   0.63043   0.00000  Uiso   1.00
C292   C     0.60946   0.40192   0.52983   0.00000  Uiso   1.00
C293   C     0.59382   0.35223   0.48150   0.00000  Uiso   1.00
C294   C     0.65654   0.44527   0.83168   0.00000  Uiso   1.00
C295   C     0.61619   0.47958   0.90028   0.00000  Uiso   1.00
C296   C     0.60362   0.46542   0.02138   0.00000  Uiso   1.00
C297   C     0.75449   0.45161   0.69465   0.00000  Uiso   1.00
C298   C     0.79649   0.49126   0.64808   0.00000  Uiso   1.00
C299   C     0.86640   0.48244   0.65385   0.00000  Uiso   1.00
H300   H     0.74703   0.33041   0.83008   0.00000  Uiso   1.00
H301   H     0.68495   0.27038   0.67194   0.00000  Uiso   1.00
H302   H     0.69168   0.34804   0.04234   0.00000  Uiso   1.00
H303   H     0.87196   0.35971   0.79018   0.00000  Uiso   1.00
H304   H     0.60426   0.22448   0.47435   0.00000  Uiso   1.00
H305   H     0.61848   0.38823   0.25537   0.00000  Uiso   1.00
H306   H     0.99862   0.41284   0.72364   0.00000  Uiso   1.00
H307   H     0.65578   0.48943   0.65831   0.00000  Uiso   1.00
H308   H     0.58869   0.43814   0.49073   0.00000  Uiso   1.00
H309   H     0.59542   0.51580   0.86114   0.00000  Uiso   1.00
H310   H     0.77570   0.52746   0.60897   0.00000  Uiso   1.00
H311   H     0.52613   0.36063   0.32728   0.00000  Uiso   1.00
H312   H     0.54035   0.52439   0.10831   0.00000  Uiso   1.00
H313   H     0.92049   0.54900   0.57656   0.00000  Uiso   1.00
O314   O     0.52269   0.25594   0.29371   0.00000  Uiso   1.00
O315   O     0.54136   0.47079   0.31838   0.00000  Uiso   1.00
O316   O     0.04010   0.50307   0.62075   0.00000  Uiso   1.00
N317   N     0.59509   0.26356   0.46272   0.00000  Uiso   1.00
N318   N     0.60838   0.41666   0.19292   0.00000  Uiso   1.00
N319   N     0.96378   0.43967   0.69582   0.00000  Uiso   1.00
N320   N     0.55305   0.33682   0.38358   0.00000  Uiso   1.00
N321   N     0.56634   0.48992   0.11378   0.00000  Uiso   1.00
N322   N     0.92174   0.51294   0.61668   0.00000  Uiso   1.00
C323   C     0.71539   0.71052   0.71757   0.00000  Uiso   1.00
C324   C     0.66805   0.72196   0.82550   0.00000  Uiso   1.00
C325   C     0.65035   0.77209   0.86863   0.00000  Uiso   1.00
C326   C     0.60634   0.77413   0.96841   0.00000  Uiso   1.00
C327   C     0.53666   0.79896   0.12765   0.00000  Uiso   1.00
C328   C     0.67436   0.67630   0.62853   0.00000  Uiso   1.00
C329   C     0.66198   0.68803   0.50606   0.00000  Uiso   1.00
C330   C     0.62329   0.65163   0.44003   0.00000  Uiso   1.00
C331   C     0.56346   0.60555   0.29347   0.00000  Uiso   1.00
C332   C     0.77176   0.67469   0.76752   0.00000  Uiso   1.00
C333   C     0.84128   0.68506   0.76189   0.00000  Uiso   1.00
C334   C     0.88460   0.64730   0.81286   0.00000  Uiso   1.00
C335   C     0.97599   0.59872   0.88210   0.00000  Uiso   1.00
C336   C     0.66870   0.62500   0.81806   0.00000  Uiso   1.00
C337   C     0.64269   0.67551   0.88007   0.00000  Uiso   1.00
C338   C     0.59870   0.67747   0.97982   0.00000  Uiso   1.00
C339   C     0.58093   0.72759   0.02309   0.00000  Uiso   1.00
C340   C     0.64900   0.62985   0.68311   0.00000  Uiso   1.00
C341   C     0.61033   0.59341   0.61724   0.00000  Uiso   1.00
C342   C     0.59789   0.60509   0.49471   0.00000  Uiso   1.00
C343   C     0.74641   0.62824   0.82211   0.00000  Uiso   1.00
C344   C     0.78962   0.59045   0.87308   0.00000  Uiso   1.00
C345   C     0.85919   0.60076   0.86754   0.00000  Uiso   1.00
H346   H     0.73513   0.74668   0.67506   0.00000  Uiso   1.00
H347   H     0.66998   0.80803   0.82636   0.00000  Uiso   1.00
H348   H     0.68162   0.72398   0.46385   0.00000  Uiso   1.00
H349   H     0.86089   0.72101   0.71965   0.00000  Uiso   1.00
H350   H     0.58654   0.85556   0.01814   0.00000  Uiso   1.00
H351   H     0.61110   0.67833   0.25375   0.00000  Uiso   1.00
H352   H     0.98913   0.67207   0.79315   0.00000  Uiso   1.00
H353   H     0.64896   0.58883   0.86055   0.00000  Uiso   1.00
H354   H     0.57908   0.64152   0.02203   0.00000  Uiso   1.00
H355   H     0.59072   0.55747   0.65951   0.00000  Uiso   1.00
H356   H     0.76998   0.55450   0.91531   0.00000  Uiso   1.00
H357   H     0.51276   0.72041   0.17695   0.00000  Uiso   1.00
H358   H     0.53733   0.54318   0.41256   0.00000  Uiso   1.00
H359   H     0.91535   0.53693   0.95196   0.00000  Uiso   1.00
O360   O     0.50522   0.82549   0.20040   0.00000  Uiso   1.00
O361   O     0.53745   0.59297   0.19754   0.00000  Uiso   1.00
O362   O     0.03341   0.58476   0.90523   0.00000  Uiso   1.00
N363   N     0.57878   0.81652   0.03337   0.00000  Uiso   1.00
N364   N     0.60173   0.65083   0.31872   0.00000  Uiso   1.00
N365   N     0.95515   0.64497   0.82298   0.00000  Uiso   1.00
N366   N     0.53908   0.74380   0.11883   0.00000  Uiso   1.00
N367   N     0.56203   0.57811   0.40417   0.00000  Uiso   1.00
N368   N     0.91545   0.57225   0.90843   0.00000  Uiso   1.00
