data_job_03586
_audit_creation_date              2018-12-19
_audit_creation_method            'Materials Studio'
_symmetry_space_group_name_H-M    'P1'
_symmetry_Int_Tables_number       1
_symmetry_cell_setting            triclinic
loop_
_symmetry_equiv_pos_as_xyz
  x,y,z
_cell_length_a                    21.7618
_cell_length_b                    11.2241
_cell_length_c                    19.8484
_cell_angle_alpha                 90.0000
_cell_angle_beta                  51.7410
_cell_angle_gamma                 90.0000
loop_
_atom_site_label
_atom_site_type_symbol
_atom_site_fract_x
_atom_site_fract_y
_atom_site_fract_z
_atom_site_U_iso_or_equiv
_atom_site_adp_type
_atom_site_occupancy
C1     C     0.84292   0.74500   0.59177   0.00000  Uiso   1.00
C2     C     0.77284   0.79604   0.67715   0.00000  Uiso   1.00
C3     C     0.76346   0.79757   0.75296   0.00000  Uiso   1.00
C4     C     0.69518   0.84833   0.82408   0.00000  Uiso   1.00
C5     C     0.59502   0.92043   0.95735   0.00000  Uiso   1.00
C6     C     0.87437   0.84612   0.52683   0.00000  Uiso   1.00
C7     C     0.95036   0.88973   0.47625   0.00000  Uiso   1.00
C8     C     0.96754   0.98263   0.42083   0.00000  Uiso   1.00
C9     C     0.02502   0.13241   0.32068   0.00000  Uiso   1.00
C10    C     0.80989   0.65275   0.56549   0.00000  Uiso   1.00
C11    C     0.83167   0.53378   0.54739   0.00000  Uiso   1.00
C12    C     0.79458   0.46387   0.52450   0.00000  Uiso   1.00
C13    C     0.75194   0.31341   0.48438   0.00000  Uiso   1.00
C14    C     0.73833   0.83242   0.58327   0.00000  Uiso   1.00
C15    C     0.71603   0.84353   0.67253   0.00000  Uiso   1.00
C16    C     0.64774   0.89430   0.74356   0.00000  Uiso   1.00
C17    C     0.63827   0.89590   0.81946   0.00000  Uiso   1.00
C18    C     0.81756   0.89360   0.52221   0.00000  Uiso   1.00
C19    C     0.83464   0.98646   0.46685   0.00000  Uiso   1.00
C20    C     0.91063   0.03020   0.41620   0.00000  Uiso   1.00
C21    C     0.75307   0.70023   0.56088   0.00000  Uiso   1.00
C22    C     0.71595   0.63050   0.53800   0.00000  Uiso   1.00
C23    C     0.73767   0.51145   0.51987   0.00000  Uiso   1.00
H24    H     0.88716   0.70803   0.59536   0.00000  Uiso   1.00
H25    H     0.80745   0.76082   0.75650   0.00000  Uiso   1.00
H26    H     0.99431   0.85296   0.47983   0.00000  Uiso   1.00
H27    H     0.87564   0.49706   0.55097   0.00000  Uiso   1.00
H28    H     0.69403   0.84034   0.93312   0.00000  Uiso   1.00
H29    H     0.08806   0.03458   0.34972   0.00000  Uiso   1.00
H30    H     0.83782   0.28410   0.49973   0.00000  Uiso   1.00
H31    H     0.69410   0.86939   0.57967   0.00000  Uiso   1.00
H32    H     0.60379   0.93104   0.73997   0.00000  Uiso   1.00
H33    H     0.79066   0.02318   0.46329   0.00000  Uiso   1.00
H34    H     0.67199   0.66728   0.53443   0.00000  Uiso   1.00
H35    H     0.52874   0.97849   0.91970   0.00000  Uiso   1.00
H36    H     0.92277   0.17274   0.33629   0.00000  Uiso   1.00
H37    H     0.67252   0.42225   0.48631   0.00000  Uiso   1.00
O38    O     0.55548   0.94709   0.03213   0.00000  Uiso   1.00
O39    O     0.07242   0.20191   0.26672   0.00000  Uiso   1.00
O40    O     0.74411   0.21730   0.46354   0.00000  Uiso   1.00
N41    N     0.66752   0.86437   0.90797   0.00000  Uiso   1.00
N42    N     0.03590   0.04599   0.36253   0.00000  Uiso   1.00
N43    N     0.80196   0.34436   0.50276   0.00000  Uiso   1.00
N44    N     0.57858   0.93871   0.90075   0.00000  Uiso   1.00
N45    N     0.94696   0.12033   0.35531   0.00000  Uiso   1.00
N46    N     0.71302   0.41870   0.49553   0.00000  Uiso   1.00
C47    C     0.15708   0.74500   0.90823   0.00000  Uiso   1.00
C48    C     0.22716   0.79604   0.82285   0.00000  Uiso   1.00
C49    C     0.23654   0.79757   0.74704   0.00000  Uiso   1.00
C50    C     0.30482   0.84833   0.67592   0.00000  Uiso   1.00
C51    C     0.40498   0.92043   0.54265   0.00000  Uiso   1.00
C52    C     0.12563   0.84612   0.97317   0.00000  Uiso   1.00
C53    C     0.04964   0.88973   0.02375   0.00000  Uiso   1.00
C54    C     0.03246   0.98263   0.07917   0.00000  Uiso   1.00
C55    C     0.97498   0.13241   0.17932   0.00000  Uiso   1.00
C56    C     0.19011   0.65275   0.93451   0.00000  Uiso   1.00
C57    C     0.16833   0.53378   0.95261   0.00000  Uiso   1.00
C58    C     0.20542   0.46387   0.97550   0.00000  Uiso   1.00
C59    C     0.24806   0.31341   0.01562   0.00000  Uiso   1.00
C60    C     0.26167   0.83242   0.91673   0.00000  Uiso   1.00
C61    C     0.28397   0.84353   0.82747   0.00000  Uiso   1.00
C62    C     0.35226   0.89430   0.75644   0.00000  Uiso   1.00
C63    C     0.36173   0.89590   0.68054   0.00000  Uiso   1.00
C64    C     0.18244   0.89360   0.97779   0.00000  Uiso   1.00
C65    C     0.16536   0.98646   0.03315   0.00000  Uiso   1.00
C66    C     0.08937   0.03020   0.08380   0.00000  Uiso   1.00
C67    C     0.24693   0.70023   0.93912   0.00000  Uiso   1.00
C68    C     0.28405   0.63050   0.96200   0.00000  Uiso   1.00
C69    C     0.26233   0.51145   0.98013   0.00000  Uiso   1.00
H70    H     0.11284   0.70803   0.90464   0.00000  Uiso   1.00
H71    H     0.19255   0.76082   0.74350   0.00000  Uiso   1.00
H72    H     0.00569   0.85296   0.02017   0.00000  Uiso   1.00
H73    H     0.12436   0.49706   0.94903   0.00000  Uiso   1.00
H74    H     0.30597   0.84034   0.56688   0.00000  Uiso   1.00
H75    H     0.91194   0.03458   0.15028   0.00000  Uiso   1.00
H76    H     0.16218   0.28410   0.00027   0.00000  Uiso   1.00
H77    H     0.30590   0.86939   0.92033   0.00000  Uiso   1.00
H78    H     0.39621   0.93104   0.76003   0.00000  Uiso   1.00
H79    H     0.20934   0.02318   0.03671   0.00000  Uiso   1.00
H80    H     0.32801   0.66728   0.96557   0.00000  Uiso   1.00
H81    H     0.47126   0.97849   0.58030   0.00000  Uiso   1.00
H82    H     0.07723   0.17274   0.16371   0.00000  Uiso   1.00
H83    H     0.32748   0.42225   0.01369   0.00000  Uiso   1.00
O84    O     0.44452   0.94709   0.46787   0.00000  Uiso   1.00
O85    O     0.92758   0.20191   0.23328   0.00000  Uiso   1.00
O86    O     0.25589   0.21730   0.03646   0.00000  Uiso   1.00
N87    N     0.33248   0.86437   0.59203   0.00000  Uiso   1.00
N88    N     0.96410   0.04599   0.13747   0.00000  Uiso   1.00
N89    N     0.19804   0.34436   0.99724   0.00000  Uiso   1.00
N90    N     0.42142   0.93871   0.59925   0.00000  Uiso   1.00
N91    N     0.05304   0.12033   0.14469   0.00000  Uiso   1.00
N92    N     0.28698   0.41870   0.00447   0.00000  Uiso   1.00
C93    C     0.15708   0.25500   0.40823   0.00000  Uiso   1.00
C94    C     0.22716   0.20396   0.32285   0.00000  Uiso   1.00
C95    C     0.23654   0.20243   0.24704   0.00000  Uiso   1.00
C96    C     0.30482   0.15167   0.17592   0.00000  Uiso   1.00
C97    C     0.40498   0.07957   0.04265   0.00000  Uiso   1.00
C98    C     0.12563   0.15388   0.47317   0.00000  Uiso   1.00
C99    C     0.04964   0.11027   0.52375   0.00000  Uiso   1.00
C100   C     0.03246   0.01737   0.57917   0.00000  Uiso   1.00
C101   C     0.97498   0.86759   0.67932   0.00000  Uiso   1.00
C102   C     0.19011   0.34725   0.43451   0.00000  Uiso   1.00
C103   C     0.16833   0.46622   0.45261   0.00000  Uiso   1.00
C104   C     0.20542   0.53613   0.47550   0.00000  Uiso   1.00
C105   C     0.24806   0.68659   0.51562   0.00000  Uiso   1.00
C106   C     0.26167   0.16758   0.41673   0.00000  Uiso   1.00
C107   C     0.28397   0.15647   0.32747   0.00000  Uiso   1.00
C108   C     0.35226   0.10570   0.25644   0.00000  Uiso   1.00
C109   C     0.36173   0.10410   0.18054   0.00000  Uiso   1.00
C110   C     0.18244   0.10640   0.47779   0.00000  Uiso   1.00
C111   C     0.16536   0.01354   0.53315   0.00000  Uiso   1.00
C112   C     0.08937   0.96980   0.58380   0.00000  Uiso   1.00
C113   C     0.24693   0.29977   0.43912   0.00000  Uiso   1.00
C114   C     0.28405   0.36950   0.46200   0.00000  Uiso   1.00
C115   C     0.26233   0.48855   0.48013   0.00000  Uiso   1.00
H116   H     0.11284   0.29197   0.40464   0.00000  Uiso   1.00
H117   H     0.19255   0.23918   0.24350   0.00000  Uiso   1.00
H118   H     0.00569   0.14704   0.52017   0.00000  Uiso   1.00
H119   H     0.12436   0.50294   0.44903   0.00000  Uiso   1.00
H120   H     0.30597   0.15966   0.06688   0.00000  Uiso   1.00
H121   H     0.91194   0.96542   0.65028   0.00000  Uiso   1.00
H122   H     0.16218   0.71590   0.50027   0.00000  Uiso   1.00
H123   H     0.30590   0.13061   0.42033   0.00000  Uiso   1.00
H124   H     0.39621   0.06896   0.26003   0.00000  Uiso   1.00
H125   H     0.20934   0.97682   0.53671   0.00000  Uiso   1.00
H126   H     0.32801   0.33272   0.46557   0.00000  Uiso   1.00
H127   H     0.47126   0.02151   0.08030   0.00000  Uiso   1.00
H128   H     0.07723   0.82726   0.66371   0.00000  Uiso   1.00
H129   H     0.32748   0.57775   0.51369   0.00000  Uiso   1.00
O130   O     0.44452   0.05291   0.96787   0.00000  Uiso   1.00
O131   O     0.92758   0.79809   0.73328   0.00000  Uiso   1.00
O132   O     0.25589   0.78270   0.53646   0.00000  Uiso   1.00
N133   N     0.33248   0.13563   0.09203   0.00000  Uiso   1.00
N134   N     0.96410   0.95401   0.63747   0.00000  Uiso   1.00
N135   N     0.19804   0.65564   0.49724   0.00000  Uiso   1.00
N136   N     0.42142   0.06129   0.09925   0.00000  Uiso   1.00
N137   N     0.05304   0.87967   0.64469   0.00000  Uiso   1.00
N138   N     0.28698   0.58130   0.50447   0.00000  Uiso   1.00
C139   C     0.84292   0.25500   0.09177   0.00000  Uiso   1.00
C140   C     0.77284   0.20396   0.17715   0.00000  Uiso   1.00
C141   C     0.76346   0.20243   0.25296   0.00000  Uiso   1.00
C142   C     0.69518   0.15167   0.32408   0.00000  Uiso   1.00
C143   C     0.59502   0.07957   0.45735   0.00000  Uiso   1.00
C144   C     0.87437   0.15388   0.02683   0.00000  Uiso   1.00
C145   C     0.95036   0.11027   0.97625   0.00000  Uiso   1.00
C146   C     0.96754   0.01737   0.92083   0.00000  Uiso   1.00
C147   C     0.02502   0.86759   0.82068   0.00000  Uiso   1.00
C148   C     0.80989   0.34725   0.06549   0.00000  Uiso   1.00
C149   C     0.83167   0.46622   0.04739   0.00000  Uiso   1.00
C150   C     0.79458   0.53613   0.02450   0.00000  Uiso   1.00
C151   C     0.75194   0.68659   0.98438   0.00000  Uiso   1.00
C152   C     0.73833   0.16758   0.08327   0.00000  Uiso   1.00
C153   C     0.71603   0.15647   0.17253   0.00000  Uiso   1.00
C154   C     0.64774   0.10570   0.24356   0.00000  Uiso   1.00
C155   C     0.63827   0.10410   0.31946   0.00000  Uiso   1.00
C156   C     0.81756   0.10640   0.02221   0.00000  Uiso   1.00
C157   C     0.83464   0.01354   0.96685   0.00000  Uiso   1.00
C158   C     0.91063   0.96980   0.91620   0.00000  Uiso   1.00
C159   C     0.75307   0.29977   0.06088   0.00000  Uiso   1.00
C160   C     0.71595   0.36950   0.03800   0.00000  Uiso   1.00
C161   C     0.73767   0.48855   0.01987   0.00000  Uiso   1.00
H162   H     0.88716   0.29197   0.09536   0.00000  Uiso   1.00
H163   H     0.80745   0.23918   0.25650   0.00000  Uiso   1.00
H164   H     0.99431   0.14704   0.97983   0.00000  Uiso   1.00
H165   H     0.87564   0.50294   0.05097   0.00000  Uiso   1.00
H166   H     0.69403   0.15966   0.43312   0.00000  Uiso   1.00
H167   H     0.08806   0.96542   0.84972   0.00000  Uiso   1.00
H168   H     0.83782   0.71590   0.99973   0.00000  Uiso   1.00
H169   H     0.69410   0.13061   0.07967   0.00000  Uiso   1.00
H170   H     0.60379   0.06896   0.23997   0.00000  Uiso   1.00
H171   H     0.79066   0.97682   0.96329   0.00000  Uiso   1.00
H172   H     0.67199   0.33272   0.03443   0.00000  Uiso   1.00
H173   H     0.52874   0.02151   0.41970   0.00000  Uiso   1.00
H174   H     0.92277   0.82726   0.83629   0.00000  Uiso   1.00
H175   H     0.67252   0.57775   0.98631   0.00000  Uiso   1.00
O176   O     0.55548   0.05291   0.53213   0.00000  Uiso   1.00
O177   O     0.07242   0.79809   0.76672   0.00000  Uiso   1.00
O178   O     0.74411   0.78270   0.96354   0.00000  Uiso   1.00
N179   N     0.66752   0.13563   0.40797   0.00000  Uiso   1.00
N180   N     0.03590   0.95401   0.86253   0.00000  Uiso   1.00
N181   N     0.80196   0.65564   0.00276   0.00000  Uiso   1.00
N182   N     0.57858   0.06129   0.40075   0.00000  Uiso   1.00
N183   N     0.94696   0.87967   0.85531   0.00000  Uiso   1.00
N184   N     0.71302   0.58130   0.99553   0.00000  Uiso   1.00
