data_job_04154
_audit_creation_date              2018-12-19
_audit_creation_method            'Materials Studio'
_symmetry_space_group_name_H-M    'P1'
_symmetry_Int_Tables_number       1
_symmetry_cell_setting            triclinic
loop_
_symmetry_equiv_pos_as_xyz
  x,y,z
_cell_length_a                    12.2438
_cell_length_b                    12.2438
_cell_length_c                    31.7421
_cell_angle_alpha                 90.0000
_cell_angle_beta                  90.0000
_cell_angle_gamma                 120.0000
loop_
_atom_site_label
_atom_site_type_symbol
_atom_site_fract_x
_atom_site_fract_y
_atom_site_fract_z
_atom_site_U_iso_or_equiv
_atom_site_adp_type
_atom_site_occupancy
C1     C     0.50065   0.66955   0.47914   0.00000  Uiso   1.00
C2     C     0.62154   0.75782   0.45544   0.00000  Uiso   1.00
C3     C     0.73633   0.76190   0.45971   0.00000  Uiso   1.00
C4     C     0.83565   0.84938   0.43522   0.00000  Uiso   1.00
C5     C     0.02568   0.97424   0.40265   0.00000  Uiso   1.00
C6     C     0.46048   0.75414   0.50145   0.00000  Uiso   1.00
C7     C     0.43983   0.75511   0.54441   0.00000  Uiso   1.00
C8     C     0.40354   0.83948   0.55865   0.00000  Uiso   1.00
C9     C     0.34342   0.95856   0.59751   0.00000  Uiso   1.00
C10    C     0.40092   0.59820   0.44554   0.00000  Uiso   1.00
C11    C     0.33017   0.46804   0.44148   0.00000  Uiso   1.00
C12    C     0.24372   0.42111   0.40866   0.00000  Uiso   1.00
C13    C     0.09114   0.29806   0.36071   0.00000  Uiso   1.00
C14    C     0.47291   0.81765   0.42806   0.00000  Uiso   1.00
C15    C     0.60647   0.83826   0.42769   0.00000  Uiso   1.00
C16    C     0.70565   0.92575   0.40319   0.00000  Uiso   1.00
C17    C     0.82056   0.92996   0.40742   0.00000  Uiso   1.00
C18    C     0.44541   0.83458   0.47371   0.00000  Uiso   1.00
C19    C     0.40914   0.91896   0.48789   0.00000  Uiso   1.00
C20    C     0.38845   0.92006   0.53086   0.00000  Uiso   1.00
C21    C     0.38586   0.67863   0.41779   0.00000  Uiso   1.00
C22    C     0.29949   0.63189   0.38497   0.00000  Uiso   1.00
C23    C     0.22863   0.50169   0.38087   0.00000  Uiso   1.00
H24    H     0.51237   0.60693   0.50074   0.00000  Uiso   1.00
H25    H     0.74795   0.69964   0.48118   0.00000  Uiso   1.00
H26    H     0.45148   0.69284   0.56587   0.00000  Uiso   1.00
H27    H     0.34185   0.40582   0.46296   0.00000  Uiso   1.00
H28    H     0.00250   0.83793   0.44727   0.00000  Uiso   1.00
H29    H     0.37734   0.82357   0.62583   0.00000  Uiso   1.00
H30    H     0.14616   0.21832   0.40884   0.00000  Uiso   1.00
H31    H     0.46118   0.88028   0.40646   0.00000  Uiso   1.00
H32    H     0.69396   0.98799   0.38173   0.00000  Uiso   1.00
H33    H     0.39749   0.98119   0.46641   0.00000  Uiso   1.00
H34    H     0.28786   0.69417   0.36351   0.00000  Uiso   1.00
H35    H     0.95868   0.07197   0.36655   0.00000  Uiso   1.00
H36    H     0.33351   0.05760   0.54511   0.00000  Uiso   1.00
H37    H     0.10234   0.45236   0.32811   0.00000  Uiso   1.00
O38    O     0.13466   0.02091   0.39235   0.00000  Uiso   1.00
O39    O     0.31444   0.00204   0.62661   0.00000  Uiso   1.00
O40    O     0.01115   0.20797   0.34192   0.00000  Uiso   1.00
N41    N     0.96024   0.87822   0.43166   0.00000  Uiso   1.00
N42    N     0.37577   0.86480   0.59861   0.00000  Uiso   1.00
N43    N     0.15961   0.29894   0.39574   0.00000  Uiso   1.00
N44    N     0.93666   0.00415   0.38823   0.00000  Uiso   1.00
N45    N     0.35219   0.99073   0.55517   0.00000  Uiso   1.00
N46    N     0.13603   0.42487   0.35230   0.00000  Uiso   1.00
C47    C     0.33045   0.83110   0.81247   0.00000  Uiso   1.00
C48    C     0.24218   0.86372   0.78877   0.00000  Uiso   1.00
C49    C     0.23810   0.97443   0.79304   0.00000  Uiso   1.00
C50    C     0.15062   0.98627   0.76855   0.00000  Uiso   1.00
C51    C     0.02576   0.05143   0.73598   0.00000  Uiso   1.00
C52    C     0.24586   0.70633   0.83478   0.00000  Uiso   1.00
C53    C     0.24489   0.68472   0.87774   0.00000  Uiso   1.00
C54    C     0.16052   0.56406   0.89198   0.00000  Uiso   1.00
C55    C     0.04144   0.38486   0.93085   0.00000  Uiso   1.00
C56    C     0.40180   0.80273   0.77887   0.00000  Uiso   1.00
C57    C     0.53196   0.86213   0.77482   0.00000  Uiso   1.00
C58    C     0.57889   0.82262   0.74199   0.00000  Uiso   1.00
C59    C     0.70194   0.79308   0.69404   0.00000  Uiso   1.00
C60    C     0.18235   0.65526   0.76140   0.00000  Uiso   1.00
C61    C     0.16174   0.76821   0.76103   0.00000  Uiso   1.00
C62    C     0.07425   0.77989   0.73653   0.00000  Uiso   1.00
C63    C     0.07004   0.89060   0.74076   0.00000  Uiso   1.00
C64    C     0.16542   0.61083   0.80704   0.00000  Uiso   1.00
C65    C     0.08104   0.49018   0.82123   0.00000  Uiso   1.00
C66    C     0.07994   0.46839   0.86419   0.00000  Uiso   1.00
C67    C     0.32137   0.70723   0.75113   0.00000  Uiso   1.00
C68    C     0.36811   0.66760   0.71830   0.00000  Uiso   1.00
C69    C     0.49831   0.72694   0.71420   0.00000  Uiso   1.00
H70    H     0.39307   0.90544   0.83408   0.00000  Uiso   1.00
H71    H     0.30036   0.04831   0.81452   0.00000  Uiso   1.00
H72    H     0.30716   0.75864   0.89920   0.00000  Uiso   1.00
H73    H     0.59418   0.93603   0.79629   0.00000  Uiso   1.00
H74    H     0.16207   0.16457   0.78060   0.00000  Uiso   1.00
H75    H     0.17643   0.55377   0.95917   0.00000  Uiso   1.00
H76    H     0.78168   0.92784   0.74217   0.00000  Uiso   1.00
H77    H     0.11972   0.58091   0.73980   0.00000  Uiso   1.00
H78    H     0.01201   0.70597   0.71506   0.00000  Uiso   1.00
H79    H     0.01881   0.41630   0.79975   0.00000  Uiso   1.00
H80    H     0.30583   0.59369   0.69684   0.00000  Uiso   1.00
H81    H     0.92803   0.88671   0.69988   0.00000  Uiso   1.00
H82    H     0.94240   0.27591   0.87845   0.00000  Uiso   1.00
H83    H     0.54764   0.64998   0.66145   0.00000  Uiso   1.00
O84    O     0.97909   0.11375   0.72568   0.00000  Uiso   1.00
O85    O     0.99796   0.31240   0.95995   0.00000  Uiso   1.00
O86    O     0.79203   0.80317   0.67525   0.00000  Uiso   1.00
N87    N     0.12178   0.08202   0.76500   0.00000  Uiso   1.00
N88    N     0.13520   0.51097   0.93194   0.00000  Uiso   1.00
N89    N     0.70106   0.86067   0.72907   0.00000  Uiso   1.00
N90    N     0.99585   0.93251   0.72156   0.00000  Uiso   1.00
N91    N     0.00927   0.36145   0.88851   0.00000  Uiso   1.00
N92    N     0.57513   0.71115   0.68564   0.00000  Uiso   1.00
C93    C     0.16890   0.49935   0.14581   0.00000  Uiso   1.00
C94    C     0.13628   0.37846   0.12210   0.00000  Uiso   1.00
C95    C     0.02557   0.26367   0.12637   0.00000  Uiso   1.00
C96    C     0.01373   0.16435   0.10189   0.00000  Uiso   1.00
C97    C     0.94857   0.97432   0.06931   0.00000  Uiso   1.00
C98    C     0.29367   0.53952   0.16812   0.00000  Uiso   1.00
C99    C     0.31528   0.56017   0.21107   0.00000  Uiso   1.00
C100   C     0.43594   0.59646   0.22532   0.00000  Uiso   1.00
C101   C     0.61514   0.65658   0.26418   0.00000  Uiso   1.00
C102   C     0.19727   0.59908   0.11220   0.00000  Uiso   1.00
C103   C     0.13787   0.66983   0.10815   0.00000  Uiso   1.00
C104   C     0.17738   0.75628   0.07533   0.00000  Uiso   1.00
C105   C     0.20692   0.90886   0.02737   0.00000  Uiso   1.00
C106   C     0.34474   0.52709   0.09473   0.00000  Uiso   1.00
C107   C     0.23179   0.39353   0.09436   0.00000  Uiso   1.00
C108   C     0.22011   0.29435   0.06986   0.00000  Uiso   1.00
C109   C     0.10940   0.17944   0.07409   0.00000  Uiso   1.00
C110   C     0.38917   0.55459   0.14038   0.00000  Uiso   1.00
C111   C     0.50982   0.59086   0.15456   0.00000  Uiso   1.00
C112   C     0.53161   0.61155   0.19752   0.00000  Uiso   1.00
C113   C     0.29277   0.61414   0.08446   0.00000  Uiso   1.00
C114   C     0.33240   0.70051   0.05164   0.00000  Uiso   1.00
C115   C     0.27306   0.77137   0.04753   0.00000  Uiso   1.00
H116   H     0.09456   0.48763   0.16741   0.00000  Uiso   1.00
H117   H     0.95169   0.25205   0.14785   0.00000  Uiso   1.00
H118   H     0.24136   0.54852   0.23253   0.00000  Uiso   1.00
H119   H     0.06397   0.65815   0.12963   0.00000  Uiso   1.00
H120   H     0.83543   0.99750   0.11394   0.00000  Uiso   1.00
H121   H     0.44623   0.62266   0.29250   0.00000  Uiso   1.00
H122   H     0.07216   0.85384   0.07550   0.00000  Uiso   1.00
H123   H     0.41909   0.53882   0.07313   0.00000  Uiso   1.00
H124   H     0.29403   0.30604   0.04839   0.00000  Uiso   1.00
H125   H     0.58370   0.60251   0.13308   0.00000  Uiso   1.00
H126   H     0.40631   0.71214   0.03017   0.00000  Uiso   1.00
H127   H     0.11329   0.04132   0.03322   0.00000  Uiso   1.00
H128   H     0.72409   0.66649   0.21178   0.00000  Uiso   1.00
H129   H     0.35002   0.89766   0.99478   0.00000  Uiso   1.00
O130   O     0.88625   0.86534   0.05902   0.00000  Uiso   1.00
O131   O     0.68760   0.68556   0.29328   0.00000  Uiso   1.00
O132   O     0.19683   0.98885   0.00859   0.00000  Uiso   1.00
N133   N     0.91798   0.03976   0.09833   0.00000  Uiso   1.00
N134   N     0.48903   0.62423   0.26527   0.00000  Uiso   1.00
N135   N     0.13933   0.84039   0.06241   0.00000  Uiso   1.00
N136   N     0.06749   0.06334   0.05489   0.00000  Uiso   1.00
N137   N     0.63855   0.64781   0.22184   0.00000  Uiso   1.00
N138   N     0.28885   0.86397   0.01897   0.00000  Uiso   1.00
C139   C     0.49935   0.33045   0.97914   0.00000  Uiso   1.00
C140   C     0.37846   0.24218   0.95544   0.00000  Uiso   1.00
C141   C     0.26367   0.23810   0.95971   0.00000  Uiso   1.00
C142   C     0.16435   0.15062   0.93522   0.00000  Uiso   1.00
C143   C     0.97432   0.02576   0.90265   0.00000  Uiso   1.00
C144   C     0.53952   0.24586   0.00145   0.00000  Uiso   1.00
C145   C     0.56017   0.24489   0.04441   0.00000  Uiso   1.00
C146   C     0.59646   0.16052   0.05865   0.00000  Uiso   1.00
C147   C     0.65658   0.04144   0.09751   0.00000  Uiso   1.00
C148   C     0.59908   0.40180   0.94554   0.00000  Uiso   1.00
C149   C     0.66983   0.53196   0.94148   0.00000  Uiso   1.00
C150   C     0.75628   0.57889   0.90866   0.00000  Uiso   1.00
C151   C     0.90886   0.70194   0.86071   0.00000  Uiso   1.00
C152   C     0.52709   0.18235   0.92806   0.00000  Uiso   1.00
C153   C     0.39353   0.16174   0.92769   0.00000  Uiso   1.00
C154   C     0.29435   0.07425   0.90319   0.00000  Uiso   1.00
C155   C     0.17944   0.07004   0.90742   0.00000  Uiso   1.00
C156   C     0.55459   0.16542   0.97371   0.00000  Uiso   1.00
C157   C     0.59086   0.08104   0.98789   0.00000  Uiso   1.00
C158   C     0.61155   0.07994   0.03086   0.00000  Uiso   1.00
C159   C     0.61414   0.32137   0.91779   0.00000  Uiso   1.00
C160   C     0.70051   0.36811   0.88497   0.00000  Uiso   1.00
C161   C     0.77137   0.49831   0.88087   0.00000  Uiso   1.00
H162   H     0.48763   0.39307   0.00074   0.00000  Uiso   1.00
H163   H     0.25205   0.30036   0.98118   0.00000  Uiso   1.00
H164   H     0.54852   0.30716   0.06587   0.00000  Uiso   1.00
H165   H     0.65815   0.59418   0.96296   0.00000  Uiso   1.00
H166   H     0.99750   0.16207   0.94727   0.00000  Uiso   1.00
H167   H     0.62266   0.17643   0.12583   0.00000  Uiso   1.00
H168   H     0.85384   0.78168   0.90884   0.00000  Uiso   1.00
H169   H     0.53882   0.11972   0.90646   0.00000  Uiso   1.00
H170   H     0.30604   0.01201   0.88173   0.00000  Uiso   1.00
H171   H     0.60251   0.01881   0.96641   0.00000  Uiso   1.00
H172   H     0.71214   0.30583   0.86351   0.00000  Uiso   1.00
H173   H     0.04132   0.92803   0.86655   0.00000  Uiso   1.00
H174   H     0.66649   0.94240   0.04511   0.00000  Uiso   1.00
H175   H     0.89766   0.54764   0.82811   0.00000  Uiso   1.00
O176   O     0.86534   0.97909   0.89235   0.00000  Uiso   1.00
O177   O     0.68556   0.99796   0.12661   0.00000  Uiso   1.00
O178   O     0.98885   0.79203   0.84192   0.00000  Uiso   1.00
N179   N     0.03976   0.12178   0.93166   0.00000  Uiso   1.00
N180   N     0.62423   0.13520   0.09861   0.00000  Uiso   1.00
N181   N     0.84039   0.70106   0.89574   0.00000  Uiso   1.00
N182   N     0.06334   0.99585   0.88823   0.00000  Uiso   1.00
N183   N     0.64781   0.00927   0.05517   0.00000  Uiso   1.00
N184   N     0.86397   0.57513   0.85230   0.00000  Uiso   1.00
C185   C     0.66955   0.16890   0.31247   0.00000  Uiso   1.00
C186   C     0.75782   0.13628   0.28877   0.00000  Uiso   1.00
C187   C     0.76190   0.02557   0.29304   0.00000  Uiso   1.00
C188   C     0.84938   0.01373   0.26855   0.00000  Uiso   1.00
C189   C     0.97424   0.94857   0.23598   0.00000  Uiso   1.00
C190   C     0.75414   0.29367   0.33478   0.00000  Uiso   1.00
C191   C     0.75511   0.31528   0.37774   0.00000  Uiso   1.00
C192   C     0.83948   0.43594   0.39198   0.00000  Uiso   1.00
C193   C     0.95856   0.61514   0.43085   0.00000  Uiso   1.00
C194   C     0.59820   0.19727   0.27887   0.00000  Uiso   1.00
C195   C     0.46804   0.13787   0.27482   0.00000  Uiso   1.00
C196   C     0.42111   0.17738   0.24199   0.00000  Uiso   1.00
C197   C     0.29806   0.20692   0.19404   0.00000  Uiso   1.00
C198   C     0.81765   0.34474   0.26140   0.00000  Uiso   1.00
C199   C     0.83826   0.23179   0.26103   0.00000  Uiso   1.00
C200   C     0.92575   0.22011   0.23653   0.00000  Uiso   1.00
C201   C     0.92996   0.10940   0.24076   0.00000  Uiso   1.00
C202   C     0.83458   0.38917   0.30704   0.00000  Uiso   1.00
C203   C     0.91896   0.50982   0.32123   0.00000  Uiso   1.00
C204   C     0.92006   0.53161   0.36419   0.00000  Uiso   1.00
C205   C     0.67863   0.29277   0.25113   0.00000  Uiso   1.00
C206   C     0.63189   0.33240   0.21830   0.00000  Uiso   1.00
C207   C     0.50169   0.27306   0.21420   0.00000  Uiso   1.00
H208   H     0.60693   0.09456   0.33408   0.00000  Uiso   1.00
H209   H     0.69964   0.95169   0.31452   0.00000  Uiso   1.00
H210   H     0.69284   0.24136   0.39920   0.00000  Uiso   1.00
H211   H     0.40582   0.06397   0.29629   0.00000  Uiso   1.00
H212   H     0.83793   0.83543   0.28060   0.00000  Uiso   1.00
H213   H     0.82357   0.44623   0.45917   0.00000  Uiso   1.00
H214   H     0.21832   0.07216   0.24217   0.00000  Uiso   1.00
H215   H     0.88028   0.41909   0.23980   0.00000  Uiso   1.00
H216   H     0.98799   0.29403   0.21506   0.00000  Uiso   1.00
H217   H     0.98119   0.58370   0.29975   0.00000  Uiso   1.00
H218   H     0.69417   0.40631   0.19684   0.00000  Uiso   1.00
H219   H     0.07197   0.11329   0.19988   0.00000  Uiso   1.00
H220   H     0.05760   0.72409   0.37845   0.00000  Uiso   1.00
H221   H     0.45236   0.35002   0.16145   0.00000  Uiso   1.00
O222   O     0.02091   0.88625   0.22568   0.00000  Uiso   1.00
O223   O     0.00204   0.68760   0.45995   0.00000  Uiso   1.00
O224   O     0.20797   0.19683   0.17525   0.00000  Uiso   1.00
N225   N     0.87822   0.91798   0.26500   0.00000  Uiso   1.00
N226   N     0.86480   0.48903   0.43194   0.00000  Uiso   1.00
N227   N     0.29894   0.13933   0.22907   0.00000  Uiso   1.00
N228   N     0.00415   0.06749   0.22156   0.00000  Uiso   1.00
N229   N     0.99073   0.63855   0.38851   0.00000  Uiso   1.00
N230   N     0.42487   0.28885   0.18564   0.00000  Uiso   1.00
C231   C     0.83110   0.50065   0.64581   0.00000  Uiso   1.00
C232   C     0.86372   0.62154   0.62210   0.00000  Uiso   1.00
C233   C     0.97443   0.73633   0.62637   0.00000  Uiso   1.00
C234   C     0.98627   0.83565   0.60189   0.00000  Uiso   1.00
C235   C     0.05143   0.02568   0.56931   0.00000  Uiso   1.00
C236   C     0.70633   0.46048   0.66812   0.00000  Uiso   1.00
C237   C     0.68472   0.43983   0.71107   0.00000  Uiso   1.00
C238   C     0.56406   0.40354   0.72532   0.00000  Uiso   1.00
C239   C     0.38486   0.34342   0.76418   0.00000  Uiso   1.00
C240   C     0.80273   0.40092   0.61220   0.00000  Uiso   1.00
C241   C     0.86213   0.33017   0.60815   0.00000  Uiso   1.00
C242   C     0.82262   0.24372   0.57533   0.00000  Uiso   1.00
C243   C     0.79308   0.09114   0.52737   0.00000  Uiso   1.00
C244   C     0.65526   0.47291   0.59473   0.00000  Uiso   1.00
C245   C     0.76821   0.60647   0.59436   0.00000  Uiso   1.00
C246   C     0.77989   0.70565   0.56986   0.00000  Uiso   1.00
C247   C     0.89060   0.82056   0.57409   0.00000  Uiso   1.00
C248   C     0.61083   0.44541   0.64038   0.00000  Uiso   1.00
C249   C     0.49018   0.40914   0.65456   0.00000  Uiso   1.00
C250   C     0.46839   0.38845   0.69752   0.00000  Uiso   1.00
C251   C     0.70723   0.38586   0.58446   0.00000  Uiso   1.00
C252   C     0.66760   0.29949   0.55164   0.00000  Uiso   1.00
C253   C     0.72694   0.22863   0.54753   0.00000  Uiso   1.00
H254   H     0.90544   0.51237   0.66741   0.00000  Uiso   1.00
H255   H     0.04831   0.74795   0.64785   0.00000  Uiso   1.00
H256   H     0.75864   0.45148   0.73253   0.00000  Uiso   1.00
H257   H     0.93603   0.34185   0.62963   0.00000  Uiso   1.00
H258   H     0.16457   0.00250   0.61394   0.00000  Uiso   1.00
H259   H     0.55377   0.37734   0.79250   0.00000  Uiso   1.00
H260   H     0.92784   0.14616   0.57550   0.00000  Uiso   1.00
H261   H     0.58091   0.46118   0.57313   0.00000  Uiso   1.00
H262   H     0.70597   0.69396   0.54839   0.00000  Uiso   1.00
H263   H     0.41630   0.39749   0.63308   0.00000  Uiso   1.00
H264   H     0.59369   0.28786   0.53017   0.00000  Uiso   1.00
H265   H     0.88671   0.95868   0.53322   0.00000  Uiso   1.00
H266   H     0.27591   0.33351   0.71178   0.00000  Uiso   1.00
H267   H     0.64998   0.10234   0.49478   0.00000  Uiso   1.00
O268   O     0.11375   0.13466   0.55902   0.00000  Uiso   1.00
O269   O     0.31240   0.31444   0.79328   0.00000  Uiso   1.00
O270   O     0.80317   0.01115   0.50859   0.00000  Uiso   1.00
N271   N     0.08202   0.96024   0.59833   0.00000  Uiso   1.00
N272   N     0.51097   0.37577   0.76527   0.00000  Uiso   1.00
N273   N     0.86067   0.15961   0.56241   0.00000  Uiso   1.00
N274   N     0.93251   0.93666   0.55489   0.00000  Uiso   1.00
N275   N     0.36145   0.35219   0.72184   0.00000  Uiso   1.00
N276   N     0.71115   0.13603   0.51897   0.00000  Uiso   1.00
