data_job_03684
_audit_creation_date              2018-12-19
_audit_creation_method            'Materials Studio'
_symmetry_space_group_name_H-M    'P1'
_symmetry_Int_Tables_number       1
_symmetry_cell_setting            triclinic
loop_
_symmetry_equiv_pos_as_xyz
  x,y,z
_cell_length_a                    14.9893
_cell_length_b                    22.6305
_cell_length_c                    26.1664
_cell_angle_alpha                 90.0000
_cell_angle_beta                  90.0000
_cell_angle_gamma                 90.0000
loop_
_atom_site_label
_atom_site_type_symbol
_atom_site_fract_x
_atom_site_fract_y
_atom_site_fract_z
_atom_site_U_iso_or_equiv
_atom_site_adp_type
_atom_site_occupancy
C1     C     0.15171   0.53247   0.16175   0.00000  Uiso   1.00
C2     C     0.05971   0.51155   0.14466   0.00000  Uiso   1.00
C3     C     0.02014   0.45822   0.15775   0.00000  Uiso   1.00
C4     C     0.93562   0.44731   0.13821   0.00000  Uiso   1.00
C5     C     0.79938   0.40859   0.11644   0.00000  Uiso   1.00
C6     C     0.20359   0.54566   0.11293   0.00000  Uiso   1.00
C7     C     0.28499   0.52100   0.09936   0.00000  Uiso   1.00
C8     C     0.32158   0.53880   0.05311   0.00000  Uiso   1.00
C9     C     0.40874   0.55306   0.98211   0.00000  Uiso   1.00
C10    C     0.13719   0.59190   0.18791   0.00000  Uiso   1.00
C11    C     0.16278   0.60615   0.23737   0.00000  Uiso   1.00
C12    C     0.14348   0.66289   0.25425   0.00000  Uiso   1.00
C13    C     0.12755   0.74896   0.29966   0.00000  Uiso   1.00
C14    C     0.07197   0.60793   0.10376   0.00000  Uiso   1.00
C15    C     0.01641   0.55254   0.11316   0.00000  Uiso   1.00
C16    C     0.93192   0.54171   0.09359   0.00000  Uiso   1.00
C17    C     0.89223   0.48838   0.10665   0.00000  Uiso   1.00
C18    C     0.16028   0.58664   0.08144   0.00000  Uiso   1.00
C19    C     0.19677   0.60449   0.03520   0.00000  Uiso   1.00
C20    C     0.27820   0.57987   0.02155   0.00000  Uiso   1.00
C21    C     0.09388   0.63289   0.15641   0.00000  Uiso   1.00
C22    C     0.07455   0.68963   0.17321   0.00000  Uiso   1.00
C23    C     0.10010   0.70396   0.22269   0.00000  Uiso   1.00
H24    H     0.18543   0.50056   0.18627   0.00000  Uiso   1.00
H25    H     0.05368   0.42651   0.18213   0.00000  Uiso   1.00
H26    H     0.31849   0.48929   0.12375   0.00000  Uiso   1.00
H27    H     0.19629   0.57441   0.26174   0.00000  Uiso   1.00
H28    H     0.88853   0.36249   0.16363   0.00000  Uiso   1.00
H29    H     0.44690   0.49486   0.04053   0.00000  Uiso   1.00
H30    H     0.18923   0.67437   0.33152   0.00000  Uiso   1.00
H31    H     0.03826   0.63984   0.07923   0.00000  Uiso   1.00
H32    H     0.89842   0.57344   0.06922   0.00000  Uiso   1.00
H33    H     0.16324   0.63621   0.01083   0.00000  Uiso   1.00
H34    H     0.04104   0.72134   0.14883   0.00000  Uiso   1.00
H35    H     0.76252   0.48174   0.07198   0.00000  Uiso   1.00
H36    H     0.32090   0.61412   0.94889   0.00000  Uiso   1.00
H37    H     0.06322   0.79363   0.23987   0.00000  Uiso   1.00
O38    O     0.73621   0.37591   0.11313   0.00000  Uiso   1.00
O39    O     0.46878   0.54959   0.95164   0.00000  Uiso   1.00
O40    O     0.13071   0.78510   0.33341   0.00000  Uiso   1.00
N41    N     0.87805   0.39967   0.14344   0.00000  Uiso   1.00
N42    N     0.40009   0.52343   0.02835   0.00000  Uiso   1.00
N43    N     0.15921   0.69126   0.30039   0.00000  Uiso   1.00
N44    N     0.81025   0.46384   0.09413   0.00000  Uiso   1.00
N45    N     0.33229   0.58760   0.97904   0.00000  Uiso   1.00
N46    N     0.09140   0.75543   0.25108   0.00000  Uiso   1.00
C47    C     0.34829   0.96753   0.16175   0.00000  Uiso   1.00
C48    C     0.44029   0.98845   0.14466   0.00000  Uiso   1.00
C49    C     0.47986   0.04178   0.15775   0.00000  Uiso   1.00
C50    C     0.56438   0.05269   0.13821   0.00000  Uiso   1.00
C51    C     0.70062   0.09141   0.11644   0.00000  Uiso   1.00
C52    C     0.29641   0.95434   0.11293   0.00000  Uiso   1.00
C53    C     0.21501   0.97900   0.09936   0.00000  Uiso   1.00
C54    C     0.17842   0.96120   0.05311   0.00000  Uiso   1.00
C55    C     0.09126   0.94694   0.98211   0.00000  Uiso   1.00
C56    C     0.36281   0.90810   0.18791   0.00000  Uiso   1.00
C57    C     0.33722   0.89385   0.23737   0.00000  Uiso   1.00
C58    C     0.35652   0.83711   0.25425   0.00000  Uiso   1.00
C59    C     0.37245   0.75104   0.29966   0.00000  Uiso   1.00
C60    C     0.42803   0.89207   0.10376   0.00000  Uiso   1.00
C61    C     0.48359   0.94746   0.11316   0.00000  Uiso   1.00
C62    C     0.56808   0.95829   0.09359   0.00000  Uiso   1.00
C63    C     0.60777   0.01162   0.10665   0.00000  Uiso   1.00
C64    C     0.33972   0.91336   0.08144   0.00000  Uiso   1.00
C65    C     0.30323   0.89551   0.03520   0.00000  Uiso   1.00
C66    C     0.22180   0.92013   0.02155   0.00000  Uiso   1.00
C67    C     0.40612   0.86711   0.15641   0.00000  Uiso   1.00
C68    C     0.42545   0.81037   0.17321   0.00000  Uiso   1.00
C69    C     0.39990   0.79604   0.22269   0.00000  Uiso   1.00
H70    H     0.31457   0.99944   0.18627   0.00000  Uiso   1.00
H71    H     0.44632   0.07349   0.18213   0.00000  Uiso   1.00
H72    H     0.18151   0.01071   0.12375   0.00000  Uiso   1.00
H73    H     0.30371   0.92559   0.26174   0.00000  Uiso   1.00
H74    H     0.61147   0.13751   0.16363   0.00000  Uiso   1.00
H75    H     0.05310   0.00514   0.04053   0.00000  Uiso   1.00
H76    H     0.31077   0.82563   0.33152   0.00000  Uiso   1.00
H77    H     0.46174   0.86016   0.07923   0.00000  Uiso   1.00
H78    H     0.60158   0.92656   0.06922   0.00000  Uiso   1.00
H79    H     0.33676   0.86379   0.01083   0.00000  Uiso   1.00
H80    H     0.45896   0.77866   0.14883   0.00000  Uiso   1.00
H81    H     0.73748   0.01826   0.07198   0.00000  Uiso   1.00
H82    H     0.17910   0.88588   0.94889   0.00000  Uiso   1.00
H83    H     0.43678   0.70637   0.23987   0.00000  Uiso   1.00
O84    O     0.76379   0.12409   0.11313   0.00000  Uiso   1.00
O85    O     0.03122   0.95041   0.95164   0.00000  Uiso   1.00
O86    O     0.36929   0.71490   0.33341   0.00000  Uiso   1.00
N87    N     0.62195   0.10033   0.14344   0.00000  Uiso   1.00
N88    N     0.09991   0.97657   0.02835   0.00000  Uiso   1.00
N89    N     0.34079   0.80874   0.30039   0.00000  Uiso   1.00
N90    N     0.68975   0.03616   0.09413   0.00000  Uiso   1.00
N91    N     0.16771   0.91240   0.97904   0.00000  Uiso   1.00
N92    N     0.40860   0.74457   0.25108   0.00000  Uiso   1.00
C93    C     0.84829   0.03247   0.33825   0.00000  Uiso   1.00
C94    C     0.94029   0.01155   0.35534   0.00000  Uiso   1.00
C95    C     0.97986   0.95822   0.34225   0.00000  Uiso   1.00
C96    C     0.06438   0.94731   0.36179   0.00000  Uiso   1.00
C97    C     0.20062   0.90859   0.38356   0.00000  Uiso   1.00
C98    C     0.79641   0.04566   0.38707   0.00000  Uiso   1.00
C99    C     0.71501   0.02100   0.40064   0.00000  Uiso   1.00
C100   C     0.67842   0.03880   0.44689   0.00000  Uiso   1.00
C101   C     0.59126   0.05306   0.51789   0.00000  Uiso   1.00
C102   C     0.86281   0.09190   0.31209   0.00000  Uiso   1.00
C103   C     0.83722   0.10615   0.26263   0.00000  Uiso   1.00
C104   C     0.85652   0.16289   0.24575   0.00000  Uiso   1.00
C105   C     0.87245   0.24896   0.20034   0.00000  Uiso   1.00
C106   C     0.92803   0.10793   0.39624   0.00000  Uiso   1.00
C107   C     0.98359   0.05254   0.38684   0.00000  Uiso   1.00
C108   C     0.06808   0.04171   0.40641   0.00000  Uiso   1.00
C109   C     0.10777   0.98838   0.39335   0.00000  Uiso   1.00
C110   C     0.83972   0.08664   0.41856   0.00000  Uiso   1.00
C111   C     0.80323   0.10449   0.46480   0.00000  Uiso   1.00
C112   C     0.72180   0.07987   0.47845   0.00000  Uiso   1.00
C113   C     0.90612   0.13289   0.34359   0.00000  Uiso   1.00
C114   C     0.92545   0.18963   0.32679   0.00000  Uiso   1.00
C115   C     0.89990   0.20396   0.27731   0.00000  Uiso   1.00
H116   H     0.81457   0.00056   0.31373   0.00000  Uiso   1.00
H117   H     0.94632   0.92651   0.31787   0.00000  Uiso   1.00
H118   H     0.68151   0.98929   0.37625   0.00000  Uiso   1.00
H119   H     0.80371   0.07441   0.23826   0.00000  Uiso   1.00
H120   H     0.11147   0.86249   0.33637   0.00000  Uiso   1.00
H121   H     0.55310   0.99486   0.45947   0.00000  Uiso   1.00
H122   H     0.81077   0.17437   0.16848   0.00000  Uiso   1.00
H123   H     0.96174   0.13984   0.42077   0.00000  Uiso   1.00
H124   H     0.10158   0.07344   0.43078   0.00000  Uiso   1.00
H125   H     0.83676   0.13621   0.48917   0.00000  Uiso   1.00
H126   H     0.95896   0.22134   0.35117   0.00000  Uiso   1.00
H127   H     0.23748   0.98174   0.42802   0.00000  Uiso   1.00
H128   H     0.67910   0.11412   0.55111   0.00000  Uiso   1.00
H129   H     0.93678   0.29363   0.26013   0.00000  Uiso   1.00
O130   O     0.26379   0.87591   0.38687   0.00000  Uiso   1.00
O131   O     0.53122   0.04959   0.54836   0.00000  Uiso   1.00
O132   O     0.86929   0.28510   0.16659   0.00000  Uiso   1.00
N133   N     0.12195   0.89967   0.35656   0.00000  Uiso   1.00
N134   N     0.59991   0.02343   0.47165   0.00000  Uiso   1.00
N135   N     0.84079   0.19126   0.19961   0.00000  Uiso   1.00
N136   N     0.18975   0.96384   0.40587   0.00000  Uiso   1.00
N137   N     0.66771   0.08760   0.52096   0.00000  Uiso   1.00
N138   N     0.90860   0.25543   0.24892   0.00000  Uiso   1.00
C139   C     0.65171   0.46753   0.33825   0.00000  Uiso   1.00
C140   C     0.55971   0.48845   0.35534   0.00000  Uiso   1.00
C141   C     0.52014   0.54178   0.34225   0.00000  Uiso   1.00
C142   C     0.43562   0.55269   0.36179   0.00000  Uiso   1.00
C143   C     0.29938   0.59141   0.38356   0.00000  Uiso   1.00
C144   C     0.70359   0.45434   0.38707   0.00000  Uiso   1.00
C145   C     0.78499   0.47900   0.40064   0.00000  Uiso   1.00
C146   C     0.82158   0.46120   0.44689   0.00000  Uiso   1.00
C147   C     0.90874   0.44694   0.51789   0.00000  Uiso   1.00
C148   C     0.63719   0.40810   0.31209   0.00000  Uiso   1.00
C149   C     0.66278   0.39385   0.26263   0.00000  Uiso   1.00
C150   C     0.64348   0.33711   0.24575   0.00000  Uiso   1.00
C151   C     0.62755   0.25104   0.20034   0.00000  Uiso   1.00
C152   C     0.57197   0.39207   0.39624   0.00000  Uiso   1.00
C153   C     0.51641   0.44746   0.38684   0.00000  Uiso   1.00
C154   C     0.43192   0.45829   0.40641   0.00000  Uiso   1.00
C155   C     0.39223   0.51162   0.39335   0.00000  Uiso   1.00
C156   C     0.66028   0.41336   0.41856   0.00000  Uiso   1.00
C157   C     0.69677   0.39551   0.46480   0.00000  Uiso   1.00
C158   C     0.77820   0.42013   0.47845   0.00000  Uiso   1.00
C159   C     0.59388   0.36711   0.34359   0.00000  Uiso   1.00
C160   C     0.57455   0.31037   0.32679   0.00000  Uiso   1.00
C161   C     0.60010   0.29604   0.27731   0.00000  Uiso   1.00
H162   H     0.68543   0.49944   0.31373   0.00000  Uiso   1.00
H163   H     0.55368   0.57349   0.31787   0.00000  Uiso   1.00
H164   H     0.81849   0.51071   0.37625   0.00000  Uiso   1.00
H165   H     0.69629   0.42559   0.23826   0.00000  Uiso   1.00
H166   H     0.38853   0.63751   0.33637   0.00000  Uiso   1.00
H167   H     0.94690   0.50514   0.45947   0.00000  Uiso   1.00
H168   H     0.68923   0.32563   0.16848   0.00000  Uiso   1.00
H169   H     0.53826   0.36016   0.42077   0.00000  Uiso   1.00
H170   H     0.39842   0.42656   0.43078   0.00000  Uiso   1.00
H171   H     0.66324   0.36379   0.48917   0.00000  Uiso   1.00
H172   H     0.54104   0.27866   0.35117   0.00000  Uiso   1.00
H173   H     0.26252   0.51826   0.42802   0.00000  Uiso   1.00
H174   H     0.82090   0.38588   0.55111   0.00000  Uiso   1.00
H175   H     0.56322   0.20637   0.26013   0.00000  Uiso   1.00
O176   O     0.23621   0.62409   0.38687   0.00000  Uiso   1.00
O177   O     0.96878   0.45041   0.54836   0.00000  Uiso   1.00
O178   O     0.63071   0.21490   0.16659   0.00000  Uiso   1.00
N179   N     0.37805   0.60033   0.35656   0.00000  Uiso   1.00
N180   N     0.90009   0.47657   0.47165   0.00000  Uiso   1.00
N181   N     0.65921   0.30874   0.19961   0.00000  Uiso   1.00
N182   N     0.31025   0.53616   0.40587   0.00000  Uiso   1.00
N183   N     0.83229   0.41240   0.52096   0.00000  Uiso   1.00
N184   N     0.59140   0.24457   0.24892   0.00000  Uiso   1.00
C185   C     0.84829   0.46753   0.83825   0.00000  Uiso   1.00
C186   C     0.94029   0.48845   0.85534   0.00000  Uiso   1.00
C187   C     0.97986   0.54178   0.84225   0.00000  Uiso   1.00
C188   C     0.06438   0.55269   0.86179   0.00000  Uiso   1.00
C189   C     0.20062   0.59141   0.88356   0.00000  Uiso   1.00
C190   C     0.79641   0.45434   0.88707   0.00000  Uiso   1.00
C191   C     0.71501   0.47900   0.90064   0.00000  Uiso   1.00
C192   C     0.67842   0.46120   0.94689   0.00000  Uiso   1.00
C193   C     0.59126   0.44694   0.01789   0.00000  Uiso   1.00
C194   C     0.86281   0.40810   0.81209   0.00000  Uiso   1.00
C195   C     0.83722   0.39385   0.76263   0.00000  Uiso   1.00
C196   C     0.85652   0.33711   0.74575   0.00000  Uiso   1.00
C197   C     0.87245   0.25104   0.70034   0.00000  Uiso   1.00
C198   C     0.92803   0.39207   0.89624   0.00000  Uiso   1.00
C199   C     0.98359   0.44746   0.88684   0.00000  Uiso   1.00
C200   C     0.06808   0.45829   0.90641   0.00000  Uiso   1.00
C201   C     0.10777   0.51162   0.89335   0.00000  Uiso   1.00
C202   C     0.83972   0.41336   0.91856   0.00000  Uiso   1.00
C203   C     0.80323   0.39551   0.96480   0.00000  Uiso   1.00
C204   C     0.72180   0.42013   0.97845   0.00000  Uiso   1.00
C205   C     0.90612   0.36711   0.84359   0.00000  Uiso   1.00
C206   C     0.92545   0.31037   0.82679   0.00000  Uiso   1.00
C207   C     0.89990   0.29604   0.77731   0.00000  Uiso   1.00
H208   H     0.81457   0.49944   0.81373   0.00000  Uiso   1.00
H209   H     0.94632   0.57349   0.81787   0.00000  Uiso   1.00
H210   H     0.68151   0.51071   0.87625   0.00000  Uiso   1.00
H211   H     0.80371   0.42559   0.73826   0.00000  Uiso   1.00
H212   H     0.11147   0.63751   0.83637   0.00000  Uiso   1.00
H213   H     0.55310   0.50514   0.95947   0.00000  Uiso   1.00
H214   H     0.81077   0.32563   0.66848   0.00000  Uiso   1.00
H215   H     0.96174   0.36016   0.92077   0.00000  Uiso   1.00
H216   H     0.10158   0.42656   0.93078   0.00000  Uiso   1.00
H217   H     0.83676   0.36379   0.98917   0.00000  Uiso   1.00
H218   H     0.95896   0.27866   0.85117   0.00000  Uiso   1.00
H219   H     0.23748   0.51826   0.92802   0.00000  Uiso   1.00
H220   H     0.67910   0.38588   0.05111   0.00000  Uiso   1.00
H221   H     0.93678   0.20637   0.76013   0.00000  Uiso   1.00
O222   O     0.26379   0.62409   0.88687   0.00000  Uiso   1.00
O223   O     0.53122   0.45041   0.04836   0.00000  Uiso   1.00
O224   O     0.86929   0.21490   0.66659   0.00000  Uiso   1.00
N225   N     0.12195   0.60033   0.85656   0.00000  Uiso   1.00
N226   N     0.59991   0.47657   0.97165   0.00000  Uiso   1.00
N227   N     0.84079   0.30874   0.69961   0.00000  Uiso   1.00
N228   N     0.18975   0.53616   0.90587   0.00000  Uiso   1.00
N229   N     0.66771   0.41240   0.02096   0.00000  Uiso   1.00
N230   N     0.90860   0.24457   0.74892   0.00000  Uiso   1.00
C231   C     0.65171   0.03247   0.83825   0.00000  Uiso   1.00
C232   C     0.55971   0.01155   0.85534   0.00000  Uiso   1.00
C233   C     0.52014   0.95822   0.84225   0.00000  Uiso   1.00
C234   C     0.43562   0.94731   0.86179   0.00000  Uiso   1.00
C235   C     0.29938   0.90859   0.88356   0.00000  Uiso   1.00
C236   C     0.70359   0.04566   0.88707   0.00000  Uiso   1.00
C237   C     0.78499   0.02100   0.90064   0.00000  Uiso   1.00
C238   C     0.82158   0.03880   0.94689   0.00000  Uiso   1.00
C239   C     0.90874   0.05306   0.01789   0.00000  Uiso   1.00
C240   C     0.63719   0.09190   0.81209   0.00000  Uiso   1.00
C241   C     0.66278   0.10615   0.76263   0.00000  Uiso   1.00
C242   C     0.64348   0.16289   0.74575   0.00000  Uiso   1.00
C243   C     0.62755   0.24896   0.70034   0.00000  Uiso   1.00
C244   C     0.57197   0.10793   0.89624   0.00000  Uiso   1.00
C245   C     0.51641   0.05254   0.88684   0.00000  Uiso   1.00
C246   C     0.43192   0.04171   0.90641   0.00000  Uiso   1.00
C247   C     0.39223   0.98838   0.89335   0.00000  Uiso   1.00
C248   C     0.66028   0.08664   0.91856   0.00000  Uiso   1.00
C249   C     0.69677   0.10449   0.96480   0.00000  Uiso   1.00
C250   C     0.77820   0.07987   0.97845   0.00000  Uiso   1.00
C251   C     0.59388   0.13289   0.84359   0.00000  Uiso   1.00
C252   C     0.57455   0.18963   0.82679   0.00000  Uiso   1.00
C253   C     0.60010   0.20396   0.77731   0.00000  Uiso   1.00
H254   H     0.68543   0.00056   0.81373   0.00000  Uiso   1.00
H255   H     0.55368   0.92651   0.81787   0.00000  Uiso   1.00
H256   H     0.81849   0.98929   0.87625   0.00000  Uiso   1.00
H257   H     0.69629   0.07441   0.73826   0.00000  Uiso   1.00
H258   H     0.38853   0.86249   0.83637   0.00000  Uiso   1.00
H259   H     0.94690   0.99486   0.95947   0.00000  Uiso   1.00
H260   H     0.68923   0.17437   0.66848   0.00000  Uiso   1.00
H261   H     0.53826   0.13984   0.92077   0.00000  Uiso   1.00
H262   H     0.39842   0.07344   0.93078   0.00000  Uiso   1.00
H263   H     0.66324   0.13621   0.98917   0.00000  Uiso   1.00
H264   H     0.54104   0.22134   0.85117   0.00000  Uiso   1.00
H265   H     0.26252   0.98174   0.92802   0.00000  Uiso   1.00
H266   H     0.82090   0.11412   0.05111   0.00000  Uiso   1.00
H267   H     0.56322   0.29363   0.76013   0.00000  Uiso   1.00
O268   O     0.23621   0.87591   0.88687   0.00000  Uiso   1.00
O269   O     0.96878   0.04959   0.04836   0.00000  Uiso   1.00
O270   O     0.63071   0.28510   0.66659   0.00000  Uiso   1.00
N271   N     0.37805   0.89967   0.85656   0.00000  Uiso   1.00
N272   N     0.90009   0.02343   0.97165   0.00000  Uiso   1.00
N273   N     0.65921   0.19126   0.69961   0.00000  Uiso   1.00
N274   N     0.31025   0.96384   0.90587   0.00000  Uiso   1.00
N275   N     0.83229   0.08760   0.02096   0.00000  Uiso   1.00
N276   N     0.59140   0.25543   0.74892   0.00000  Uiso   1.00
C277   C     0.15171   0.96753   0.66175   0.00000  Uiso   1.00
C278   C     0.05971   0.98845   0.64466   0.00000  Uiso   1.00
C279   C     0.02014   0.04178   0.65775   0.00000  Uiso   1.00
C280   C     0.93562   0.05269   0.63821   0.00000  Uiso   1.00
C281   C     0.79938   0.09141   0.61644   0.00000  Uiso   1.00
C282   C     0.20359   0.95434   0.61293   0.00000  Uiso   1.00
C283   C     0.28499   0.97900   0.59936   0.00000  Uiso   1.00
C284   C     0.32158   0.96120   0.55311   0.00000  Uiso   1.00
C285   C     0.40874   0.94694   0.48211   0.00000  Uiso   1.00
C286   C     0.13719   0.90810   0.68791   0.00000  Uiso   1.00
C287   C     0.16278   0.89385   0.73737   0.00000  Uiso   1.00
C288   C     0.14348   0.83711   0.75425   0.00000  Uiso   1.00
C289   C     0.12755   0.75104   0.79966   0.00000  Uiso   1.00
C290   C     0.07197   0.89207   0.60376   0.00000  Uiso   1.00
C291   C     0.01641   0.94746   0.61316   0.00000  Uiso   1.00
C292   C     0.93192   0.95829   0.59359   0.00000  Uiso   1.00
C293   C     0.89223   0.01162   0.60665   0.00000  Uiso   1.00
C294   C     0.16028   0.91336   0.58144   0.00000  Uiso   1.00
C295   C     0.19677   0.89551   0.53520   0.00000  Uiso   1.00
C296   C     0.27820   0.92013   0.52155   0.00000  Uiso   1.00
C297   C     0.09388   0.86711   0.65641   0.00000  Uiso   1.00
C298   C     0.07455   0.81037   0.67321   0.00000  Uiso   1.00
C299   C     0.10010   0.79604   0.72269   0.00000  Uiso   1.00
H300   H     0.18543   0.99944   0.68627   0.00000  Uiso   1.00
H301   H     0.05368   0.07349   0.68213   0.00000  Uiso   1.00
H302   H     0.31849   0.01071   0.62375   0.00000  Uiso   1.00
H303   H     0.19629   0.92559   0.76174   0.00000  Uiso   1.00
H304   H     0.88853   0.13751   0.66363   0.00000  Uiso   1.00
H305   H     0.44690   0.00514   0.54053   0.00000  Uiso   1.00
H306   H     0.18923   0.82563   0.83152   0.00000  Uiso   1.00
H307   H     0.03826   0.86016   0.57923   0.00000  Uiso   1.00
H308   H     0.89842   0.92656   0.56922   0.00000  Uiso   1.00
H309   H     0.16324   0.86379   0.51083   0.00000  Uiso   1.00
H310   H     0.04104   0.77866   0.64883   0.00000  Uiso   1.00
H311   H     0.76252   0.01826   0.57198   0.00000  Uiso   1.00
H312   H     0.32090   0.88588   0.44889   0.00000  Uiso   1.00
H313   H     0.06322   0.70637   0.73987   0.00000  Uiso   1.00
O314   O     0.73621   0.12409   0.61313   0.00000  Uiso   1.00
O315   O     0.46878   0.95041   0.45164   0.00000  Uiso   1.00
O316   O     0.13071   0.71490   0.83341   0.00000  Uiso   1.00
N317   N     0.87805   0.10033   0.64344   0.00000  Uiso   1.00
N318   N     0.40009   0.97657   0.52835   0.00000  Uiso   1.00
N319   N     0.15921   0.80874   0.80039   0.00000  Uiso   1.00
N320   N     0.81025   0.03616   0.59413   0.00000  Uiso   1.00
N321   N     0.33229   0.91240   0.47904   0.00000  Uiso   1.00
N322   N     0.09140   0.74457   0.75108   0.00000  Uiso   1.00
C323   C     0.34829   0.53247   0.66175   0.00000  Uiso   1.00
C324   C     0.44029   0.51155   0.64466   0.00000  Uiso   1.00
C325   C     0.47986   0.45822   0.65775   0.00000  Uiso   1.00
C326   C     0.56438   0.44731   0.63821   0.00000  Uiso   1.00
C327   C     0.70062   0.40859   0.61644   0.00000  Uiso   1.00
C328   C     0.29641   0.54566   0.61293   0.00000  Uiso   1.00
C329   C     0.21501   0.52100   0.59936   0.00000  Uiso   1.00
C330   C     0.17842   0.53880   0.55311   0.00000  Uiso   1.00
C331   C     0.09126   0.55306   0.48211   0.00000  Uiso   1.00
C332   C     0.36281   0.59190   0.68791   0.00000  Uiso   1.00
C333   C     0.33722   0.60615   0.73737   0.00000  Uiso   1.00
C334   C     0.35652   0.66289   0.75425   0.00000  Uiso   1.00
C335   C     0.37245   0.74896   0.79966   0.00000  Uiso   1.00
C336   C     0.42803   0.60793   0.60376   0.00000  Uiso   1.00
C337   C     0.48359   0.55254   0.61316   0.00000  Uiso   1.00
C338   C     0.56808   0.54171   0.59359   0.00000  Uiso   1.00
C339   C     0.60777   0.48838   0.60665   0.00000  Uiso   1.00
C340   C     0.33972   0.58664   0.58144   0.00000  Uiso   1.00
C341   C     0.30323   0.60449   0.53520   0.00000  Uiso   1.00
C342   C     0.22180   0.57987   0.52155   0.00000  Uiso   1.00
C343   C     0.40612   0.63289   0.65641   0.00000  Uiso   1.00
C344   C     0.42545   0.68963   0.67321   0.00000  Uiso   1.00
C345   C     0.39990   0.70396   0.72269   0.00000  Uiso   1.00
H346   H     0.31457   0.50056   0.68627   0.00000  Uiso   1.00
H347   H     0.44632   0.42651   0.68213   0.00000  Uiso   1.00
H348   H     0.18151   0.48929   0.62375   0.00000  Uiso   1.00
H349   H     0.30371   0.57441   0.76174   0.00000  Uiso   1.00
H350   H     0.61147   0.36249   0.66363   0.00000  Uiso   1.00
H351   H     0.05310   0.49486   0.54053   0.00000  Uiso   1.00
H352   H     0.31077   0.67437   0.83152   0.00000  Uiso   1.00
H353   H     0.46174   0.63984   0.57923   0.00000  Uiso   1.00
H354   H     0.60158   0.57344   0.56922   0.00000  Uiso   1.00
H355   H     0.33676   0.63621   0.51083   0.00000  Uiso   1.00
H356   H     0.45896   0.72134   0.64883   0.00000  Uiso   1.00
H357   H     0.73748   0.48174   0.57198   0.00000  Uiso   1.00
H358   H     0.17910   0.61412   0.44889   0.00000  Uiso   1.00
H359   H     0.43678   0.79363   0.73987   0.00000  Uiso   1.00
O360   O     0.76379   0.37591   0.61313   0.00000  Uiso   1.00
O361   O     0.03122   0.54959   0.45164   0.00000  Uiso   1.00
O362   O     0.36929   0.78510   0.83341   0.00000  Uiso   1.00
N363   N     0.62195   0.39967   0.64344   0.00000  Uiso   1.00
N364   N     0.09991   0.52343   0.52835   0.00000  Uiso   1.00
N365   N     0.34079   0.69126   0.80039   0.00000  Uiso   1.00
N366   N     0.68975   0.46384   0.59413   0.00000  Uiso   1.00
N367   N     0.16771   0.58760   0.47904   0.00000  Uiso   1.00
N368   N     0.40860   0.75543   0.75108   0.00000  Uiso   1.00
