data_job_00891
_audit_creation_date              2018-12-19
_audit_creation_method            'Materials Studio'
_symmetry_space_group_name_H-M    'P1'
_symmetry_Int_Tables_number       1
_symmetry_cell_setting            triclinic
loop_
_symmetry_equiv_pos_as_xyz
  x,y,z
_cell_length_a                    16.5771
_cell_length_b                    16.5771
_cell_length_c                    15.4091
_cell_angle_alpha                 90.0000
_cell_angle_beta                  90.0000
_cell_angle_gamma                 90.0000
loop_
_atom_site_label
_atom_site_type_symbol
_atom_site_fract_x
_atom_site_fract_y
_atom_site_fract_z
_atom_site_U_iso_or_equiv
_atom_site_adp_type
_atom_site_occupancy
C1     C     0.50193   0.70622   0.81378   0.00000  Uiso   1.00
C2     C     0.53387   0.72494   0.72318   0.00000  Uiso   1.00
C3     C     0.48803   0.72876   0.64794   0.00000  Uiso   1.00
C4     C     0.52855   0.74673   0.57149   0.00000  Uiso   1.00
C5     C     0.56546   0.77368   0.43097   0.00000  Uiso   1.00
C6     C     0.55015   0.63383   0.84600   0.00000  Uiso   1.00
C7     C     0.51800   0.56106   0.87403   0.00000  Uiso   1.00
C8     C     0.57222   0.50235   0.90099   0.00000  Uiso   1.00
C9     C     0.63441   0.38788   0.95121   0.00000  Uiso   1.00
C10    C     0.52695   0.77711   0.87081   0.00000  Uiso   1.00
C11    C     0.47529   0.82479   0.91972   0.00000  Uiso   1.00
C12    C     0.50999   0.88670   0.96758   0.00000  Uiso   1.00
C13    C     0.53616   0.99468   0.05631   0.00000  Uiso   1.00
C14    C     0.65541   0.73136   0.81182   0.00000  Uiso   1.00
C15    C     0.61723   0.73859   0.72212   0.00000  Uiso   1.00
C16    C     0.65783   0.75657   0.64577   0.00000  Uiso   1.00
C17    C     0.61206   0.76042   0.57042   0.00000  Uiso   1.00
C18    C     0.63351   0.64749   0.84494   0.00000  Uiso   1.00
C19    C     0.68780   0.58887   0.87187   0.00000  Uiso   1.00
C20    C     0.65574   0.51603   0.89992   0.00000  Uiso   1.00
C21    C     0.61032   0.79077   0.86975   0.00000  Uiso   1.00
C22    C     0.64510   0.85261   0.91754   0.00000  Uiso   1.00
C23    C     0.59351   0.90038   0.96651   0.00000  Uiso   1.00
H24    H     0.43703   0.69559   0.81461   0.00000  Uiso   1.00
H25    H     0.42352   0.71818   0.64879   0.00000  Uiso   1.00
H26    H     0.45348   0.55051   0.87486   0.00000  Uiso   1.00
H27    H     0.41079   0.81421   0.92053   0.00000  Uiso   1.00
H28    H     0.44530   0.74922   0.46447   0.00000  Uiso   1.00
H29    H     0.50848   0.39569   0.94117   0.00000  Uiso   1.00
H30    H     0.41845   0.95174   0.03748   0.00000  Uiso   1.00
H31    H     0.72031   0.74199   0.81100   0.00000  Uiso   1.00
H32    H     0.72234   0.76714   0.64497   0.00000  Uiso   1.00
H33    H     0.75231   0.59947   0.87104   0.00000  Uiso   1.00
H34    H     0.70961   0.86316   0.91671   0.00000  Uiso   1.00
H35    H     0.68784   0.78895   0.46136   0.00000  Uiso   1.00
H36    H     0.75102   0.43542   0.93808   0.00000  Uiso   1.00
H37    H     0.66099   0.99148   0.03438   0.00000  Uiso   1.00
O38    O     0.56280   0.78476   0.35376   0.00000  Uiso   1.00
O39    O     0.64568   0.32096   0.97919   0.00000  Uiso   1.00
O40    O     0.52757   0.05048   0.10554   0.00000  Uiso   1.00
N41    N     0.50210   0.75514   0.48652   0.00000  Uiso   1.00
N42    N     0.56117   0.42461   0.93220   0.00000  Uiso   1.00
N43    N     0.47700   0.94445   0.02226   0.00000  Uiso   1.00
N44    N     0.63261   0.77652   0.48485   0.00000  Uiso   1.00
N45    N     0.69168   0.44599   0.93053   0.00000  Uiso   1.00
N46    N     0.60751   0.96583   0.02059   0.00000  Uiso   1.00
C47    C     0.49807   0.29378   0.31378   0.00000  Uiso   1.00
C48    C     0.46613   0.27506   0.22318   0.00000  Uiso   1.00
C49    C     0.51197   0.27124   0.14794   0.00000  Uiso   1.00
C50    C     0.47145   0.25327   0.07149   0.00000  Uiso   1.00
C51    C     0.43454   0.22632   0.93097   0.00000  Uiso   1.00
C52    C     0.44985   0.36617   0.34600   0.00000  Uiso   1.00
C53    C     0.48200   0.43894   0.37403   0.00000  Uiso   1.00
C54    C     0.42778   0.49765   0.40099   0.00000  Uiso   1.00
C55    C     0.36559   0.61212   0.45121   0.00000  Uiso   1.00
C56    C     0.47305   0.22289   0.37081   0.00000  Uiso   1.00
C57    C     0.52471   0.17521   0.41972   0.00000  Uiso   1.00
C58    C     0.49001   0.11330   0.46758   0.00000  Uiso   1.00
C59    C     0.46384   0.00532   0.55631   0.00000  Uiso   1.00
C60    C     0.34459   0.26864   0.31182   0.00000  Uiso   1.00
C61    C     0.38277   0.26141   0.22212   0.00000  Uiso   1.00
C62    C     0.34217   0.24343   0.14577   0.00000  Uiso   1.00
C63    C     0.38794   0.23958   0.07042   0.00000  Uiso   1.00
C64    C     0.36649   0.35251   0.34494   0.00000  Uiso   1.00
C65    C     0.31220   0.41113   0.37187   0.00000  Uiso   1.00
C66    C     0.34426   0.48397   0.39992   0.00000  Uiso   1.00
C67    C     0.38968   0.20923   0.36975   0.00000  Uiso   1.00
C68    C     0.35490   0.14739   0.41754   0.00000  Uiso   1.00
C69    C     0.40649   0.09962   0.46651   0.00000  Uiso   1.00
H70    H     0.56297   0.30441   0.31461   0.00000  Uiso   1.00
H71    H     0.57648   0.28182   0.14879   0.00000  Uiso   1.00
H72    H     0.54652   0.44949   0.37486   0.00000  Uiso   1.00
H73    H     0.58921   0.18579   0.42053   0.00000  Uiso   1.00
H74    H     0.55470   0.25078   0.96447   0.00000  Uiso   1.00
H75    H     0.49152   0.60431   0.44117   0.00000  Uiso   1.00
H76    H     0.58155   0.04826   0.53748   0.00000  Uiso   1.00
H77    H     0.27969   0.25801   0.31100   0.00000  Uiso   1.00
H78    H     0.27766   0.23286   0.14497   0.00000  Uiso   1.00
H79    H     0.24769   0.40053   0.37104   0.00000  Uiso   1.00
H80    H     0.29039   0.13684   0.41671   0.00000  Uiso   1.00
H81    H     0.31216   0.21105   0.96136   0.00000  Uiso   1.00
H82    H     0.24898   0.56458   0.43808   0.00000  Uiso   1.00
H83    H     0.33901   0.00852   0.53438   0.00000  Uiso   1.00
O84    O     0.43720   0.21524   0.85376   0.00000  Uiso   1.00
O85    O     0.35432   0.67904   0.47919   0.00000  Uiso   1.00
O86    O     0.47243   0.94952   0.60554   0.00000  Uiso   1.00
N87    N     0.49790   0.24486   0.98652   0.00000  Uiso   1.00
N88    N     0.43883   0.57539   0.43220   0.00000  Uiso   1.00
N89    N     0.52300   0.05555   0.52226   0.00000  Uiso   1.00
N90    N     0.36739   0.22348   0.98485   0.00000  Uiso   1.00
N91    N     0.30832   0.55401   0.43053   0.00000  Uiso   1.00
N92    N     0.39249   0.03417   0.52059   0.00000  Uiso   1.00
C93    C     0.79378   0.00193   0.56378   0.00000  Uiso   1.00
C94    C     0.77506   0.03387   0.47318   0.00000  Uiso   1.00
C95    C     0.77124   0.98803   0.39794   0.00000  Uiso   1.00
C96    C     0.75327   0.02855   0.32149   0.00000  Uiso   1.00
C97    C     0.72632   0.06546   0.18097   0.00000  Uiso   1.00
C98    C     0.86617   0.05015   0.59600   0.00000  Uiso   1.00
C99    C     0.93894   0.01800   0.62403   0.00000  Uiso   1.00
C100   C     0.99765   0.07222   0.65099   0.00000  Uiso   1.00
C101   C     0.11212   0.13441   0.70121   0.00000  Uiso   1.00
C102   C     0.72289   0.02695   0.62081   0.00000  Uiso   1.00
C103   C     0.67521   0.97529   0.66972   0.00000  Uiso   1.00
C104   C     0.61330   0.00999   0.71758   0.00000  Uiso   1.00
C105   C     0.50532   0.03616   0.80631   0.00000  Uiso   1.00
C106   C     0.76864   0.15541   0.56182   0.00000  Uiso   1.00
C107   C     0.76141   0.11723   0.47212   0.00000  Uiso   1.00
C108   C     0.74343   0.15783   0.39577   0.00000  Uiso   1.00
C109   C     0.73958   0.11206   0.32042   0.00000  Uiso   1.00
C110   C     0.85251   0.13351   0.59494   0.00000  Uiso   1.00
C111   C     0.91113   0.18780   0.62187   0.00000  Uiso   1.00
C112   C     0.98397   0.15574   0.64992   0.00000  Uiso   1.00
C113   C     0.70923   0.11032   0.61975   0.00000  Uiso   1.00
C114   C     0.64739   0.14510   0.66754   0.00000  Uiso   1.00
C115   C     0.59962   0.09351   0.71651   0.00000  Uiso   1.00
H116   H     0.80441   0.93703   0.56461   0.00000  Uiso   1.00
H117   H     0.78182   0.92352   0.39879   0.00000  Uiso   1.00
H118   H     0.94949   0.95348   0.62486   0.00000  Uiso   1.00
H119   H     0.68579   0.91079   0.67053   0.00000  Uiso   1.00
H120   H     0.75078   0.94530   0.21447   0.00000  Uiso   1.00
H121   H     0.10431   0.00848   0.69117   0.00000  Uiso   1.00
H122   H     0.54826   0.91845   0.78748   0.00000  Uiso   1.00
H123   H     0.75801   0.22031   0.56100   0.00000  Uiso   1.00
H124   H     0.73286   0.22234   0.39497   0.00000  Uiso   1.00
H125   H     0.90053   0.25231   0.62104   0.00000  Uiso   1.00
H126   H     0.63684   0.20961   0.66671   0.00000  Uiso   1.00
H127   H     0.71105   0.18784   0.21136   0.00000  Uiso   1.00
H128   H     0.06458   0.25102   0.68808   0.00000  Uiso   1.00
H129   H     0.50852   0.16099   0.78438   0.00000  Uiso   1.00
O130   O     0.71524   0.06280   0.10376   0.00000  Uiso   1.00
O131   O     0.17904   0.14568   0.72919   0.00000  Uiso   1.00
O132   O     0.44952   0.02757   0.85554   0.00000  Uiso   1.00
N133   N     0.74486   0.00210   0.23652   0.00000  Uiso   1.00
N134   N     0.07539   0.06117   0.68220   0.00000  Uiso   1.00
N135   N     0.55555   0.97700   0.77226   0.00000  Uiso   1.00
N136   N     0.72348   0.13261   0.23485   0.00000  Uiso   1.00
N137   N     0.05401   0.19168   0.68053   0.00000  Uiso   1.00
N138   N     0.53417   0.10751   0.77059   0.00000  Uiso   1.00
C139   C     0.20622   0.99807   0.06378   0.00000  Uiso   1.00
C140   C     0.22494   0.96613   0.97318   0.00000  Uiso   1.00
C141   C     0.22876   0.01197   0.89794   0.00000  Uiso   1.00
C142   C     0.24673   0.97145   0.82149   0.00000  Uiso   1.00
C143   C     0.27368   0.93454   0.68097   0.00000  Uiso   1.00
C144   C     0.13383   0.94985   0.09600   0.00000  Uiso   1.00
C145   C     0.06106   0.98200   0.12403   0.00000  Uiso   1.00
C146   C     0.00235   0.92778   0.15099   0.00000  Uiso   1.00
C147   C     0.88788   0.86559   0.20121   0.00000  Uiso   1.00
C148   C     0.27711   0.97305   0.12081   0.00000  Uiso   1.00
C149   C     0.32479   0.02471   0.16972   0.00000  Uiso   1.00
C150   C     0.38670   0.99001   0.21758   0.00000  Uiso   1.00
C151   C     0.49468   0.96384   0.30631   0.00000  Uiso   1.00
C152   C     0.23136   0.84459   0.06182   0.00000  Uiso   1.00
C153   C     0.23859   0.88277   0.97212   0.00000  Uiso   1.00
C154   C     0.25657   0.84217   0.89577   0.00000  Uiso   1.00
C155   C     0.26042   0.88794   0.82042   0.00000  Uiso   1.00
C156   C     0.14749   0.86649   0.09494   0.00000  Uiso   1.00
C157   C     0.08887   0.81220   0.12187   0.00000  Uiso   1.00
C158   C     0.01603   0.84426   0.14992   0.00000  Uiso   1.00
C159   C     0.29077   0.88968   0.11975   0.00000  Uiso   1.00
C160   C     0.35261   0.85490   0.16754   0.00000  Uiso   1.00
C161   C     0.40038   0.90649   0.21651   0.00000  Uiso   1.00
H162   H     0.19559   0.06297   0.06461   0.00000  Uiso   1.00
H163   H     0.21818   0.07648   0.89879   0.00000  Uiso   1.00
H164   H     0.05051   0.04652   0.12486   0.00000  Uiso   1.00
H165   H     0.31421   0.08921   0.17053   0.00000  Uiso   1.00
H166   H     0.24922   0.05470   0.71447   0.00000  Uiso   1.00
H167   H     0.89569   0.99152   0.19117   0.00000  Uiso   1.00
H168   H     0.45174   0.08155   0.28748   0.00000  Uiso   1.00
H169   H     0.24199   0.77969   0.06100   0.00000  Uiso   1.00
H170   H     0.26714   0.77766   0.89497   0.00000  Uiso   1.00
H171   H     0.09947   0.74769   0.12104   0.00000  Uiso   1.00
H172   H     0.36316   0.79039   0.16671   0.00000  Uiso   1.00
H173   H     0.28895   0.81216   0.71136   0.00000  Uiso   1.00
H174   H     0.93542   0.74898   0.18808   0.00000  Uiso   1.00
H175   H     0.49148   0.83901   0.28438   0.00000  Uiso   1.00
O176   O     0.28476   0.93720   0.60376   0.00000  Uiso   1.00
O177   O     0.82096   0.85432   0.22919   0.00000  Uiso   1.00
O178   O     0.55048   0.97243   0.35554   0.00000  Uiso   1.00
N179   N     0.25514   0.99790   0.73652   0.00000  Uiso   1.00
N180   N     0.92461   0.93883   0.18220   0.00000  Uiso   1.00
N181   N     0.44445   0.02300   0.27226   0.00000  Uiso   1.00
N182   N     0.27652   0.86739   0.73485   0.00000  Uiso   1.00
N183   N     0.94599   0.80832   0.18053   0.00000  Uiso   1.00
N184   N     0.46583   0.89249   0.27059   0.00000  Uiso   1.00
C185   C     0.99807   0.20622   0.93622   0.00000  Uiso   1.00
C186   C     0.96613   0.22494   0.02682   0.00000  Uiso   1.00
C187   C     0.01197   0.22876   0.10206   0.00000  Uiso   1.00
C188   C     0.97145   0.24673   0.17851   0.00000  Uiso   1.00
C189   C     0.93454   0.27368   0.31903   0.00000  Uiso   1.00
C190   C     0.94985   0.13383   0.90400   0.00000  Uiso   1.00
C191   C     0.98200   0.06106   0.87597   0.00000  Uiso   1.00
C192   C     0.92778   0.00235   0.84901   0.00000  Uiso   1.00
C193   C     0.86559   0.88788   0.79879   0.00000  Uiso   1.00
C194   C     0.97305   0.27711   0.87919   0.00000  Uiso   1.00
C195   C     0.02471   0.32479   0.83028   0.00000  Uiso   1.00
C196   C     0.99001   0.38670   0.78242   0.00000  Uiso   1.00
C197   C     0.96384   0.49468   0.69369   0.00000  Uiso   1.00
C198   C     0.84459   0.23136   0.93818   0.00000  Uiso   1.00
C199   C     0.88277   0.23859   0.02788   0.00000  Uiso   1.00
C200   C     0.84217   0.25657   0.10423   0.00000  Uiso   1.00
C201   C     0.88794   0.26042   0.17958   0.00000  Uiso   1.00
C202   C     0.86649   0.14749   0.90506   0.00000  Uiso   1.00
C203   C     0.81220   0.08887   0.87813   0.00000  Uiso   1.00
C204   C     0.84426   0.01603   0.85008   0.00000  Uiso   1.00
C205   C     0.88968   0.29077   0.88025   0.00000  Uiso   1.00
C206   C     0.85490   0.35261   0.83246   0.00000  Uiso   1.00
C207   C     0.90649   0.40038   0.78349   0.00000  Uiso   1.00
H208   H     0.06297   0.19559   0.93539   0.00000  Uiso   1.00
H209   H     0.07648   0.21818   0.10121   0.00000  Uiso   1.00
H210   H     0.04652   0.05051   0.87514   0.00000  Uiso   1.00
H211   H     0.08921   0.31421   0.82947   0.00000  Uiso   1.00
H212   H     0.05470   0.24922   0.28553   0.00000  Uiso   1.00
H213   H     0.99152   0.89569   0.80883   0.00000  Uiso   1.00
H214   H     0.08155   0.45174   0.71252   0.00000  Uiso   1.00
H215   H     0.77969   0.24199   0.93900   0.00000  Uiso   1.00
H216   H     0.77766   0.26714   0.10503   0.00000  Uiso   1.00
H217   H     0.74769   0.09947   0.87896   0.00000  Uiso   1.00
H218   H     0.79039   0.36316   0.83329   0.00000  Uiso   1.00
H219   H     0.81216   0.28895   0.28864   0.00000  Uiso   1.00
H220   H     0.74898   0.93542   0.81192   0.00000  Uiso   1.00
H221   H     0.83901   0.49148   0.71562   0.00000  Uiso   1.00
O222   O     0.93720   0.28476   0.39624   0.00000  Uiso   1.00
O223   O     0.85432   0.82096   0.77081   0.00000  Uiso   1.00
O224   O     0.97243   0.55048   0.64446   0.00000  Uiso   1.00
N225   N     0.99790   0.25514   0.26348   0.00000  Uiso   1.00
N226   N     0.93883   0.92461   0.81780   0.00000  Uiso   1.00
N227   N     0.02300   0.44445   0.72774   0.00000  Uiso   1.00
N228   N     0.86739   0.27652   0.26515   0.00000  Uiso   1.00
N229   N     0.80832   0.94599   0.81947   0.00000  Uiso   1.00
N230   N     0.89249   0.46583   0.72941   0.00000  Uiso   1.00
C231   C     0.00193   0.79378   0.43622   0.00000  Uiso   1.00
C232   C     0.03387   0.77506   0.52682   0.00000  Uiso   1.00
C233   C     0.98803   0.77124   0.60206   0.00000  Uiso   1.00
C234   C     0.02855   0.75327   0.67851   0.00000  Uiso   1.00
C235   C     0.06546   0.72632   0.81903   0.00000  Uiso   1.00
C236   C     0.05015   0.86617   0.40400   0.00000  Uiso   1.00
C237   C     0.01800   0.93894   0.37597   0.00000  Uiso   1.00
C238   C     0.07222   0.99765   0.34901   0.00000  Uiso   1.00
C239   C     0.13441   0.11212   0.29879   0.00000  Uiso   1.00
C240   C     0.02695   0.72289   0.37919   0.00000  Uiso   1.00
C241   C     0.97529   0.67521   0.33028   0.00000  Uiso   1.00
C242   C     0.00999   0.61330   0.28242   0.00000  Uiso   1.00
C243   C     0.03616   0.50532   0.19369   0.00000  Uiso   1.00
C244   C     0.15541   0.76864   0.43818   0.00000  Uiso   1.00
C245   C     0.11723   0.76141   0.52788   0.00000  Uiso   1.00
C246   C     0.15783   0.74343   0.60423   0.00000  Uiso   1.00
C247   C     0.11206   0.73958   0.67958   0.00000  Uiso   1.00
C248   C     0.13351   0.85251   0.40506   0.00000  Uiso   1.00
C249   C     0.18780   0.91113   0.37813   0.00000  Uiso   1.00
C250   C     0.15574   0.98397   0.35008   0.00000  Uiso   1.00
C251   C     0.11032   0.70923   0.38025   0.00000  Uiso   1.00
C252   C     0.14510   0.64739   0.33246   0.00000  Uiso   1.00
C253   C     0.09351   0.59962   0.28349   0.00000  Uiso   1.00
H254   H     0.93703   0.80441   0.43539   0.00000  Uiso   1.00
H255   H     0.92352   0.78182   0.60121   0.00000  Uiso   1.00
H256   H     0.95348   0.94949   0.37514   0.00000  Uiso   1.00
H257   H     0.91079   0.68579   0.32947   0.00000  Uiso   1.00
H258   H     0.94530   0.75078   0.78553   0.00000  Uiso   1.00
H259   H     0.00848   0.10431   0.30883   0.00000  Uiso   1.00
H260   H     0.91845   0.54826   0.21252   0.00000  Uiso   1.00
H261   H     0.22031   0.75801   0.43900   0.00000  Uiso   1.00
H262   H     0.22234   0.73286   0.60503   0.00000  Uiso   1.00
H263   H     0.25231   0.90053   0.37896   0.00000  Uiso   1.00
H264   H     0.20961   0.63684   0.33329   0.00000  Uiso   1.00
H265   H     0.18784   0.71105   0.78864   0.00000  Uiso   1.00
H266   H     0.25102   0.06458   0.31192   0.00000  Uiso   1.00
H267   H     0.16099   0.50852   0.21562   0.00000  Uiso   1.00
O268   O     0.06280   0.71524   0.89624   0.00000  Uiso   1.00
O269   O     0.14568   0.17904   0.27081   0.00000  Uiso   1.00
O270   O     0.02757   0.44952   0.14446   0.00000  Uiso   1.00
N271   N     0.00210   0.74486   0.76348   0.00000  Uiso   1.00
N272   N     0.06117   0.07539   0.31780   0.00000  Uiso   1.00
N273   N     0.97700   0.55555   0.22774   0.00000  Uiso   1.00
N274   N     0.13261   0.72348   0.76515   0.00000  Uiso   1.00
N275   N     0.19168   0.05401   0.31947   0.00000  Uiso   1.00
N276   N     0.10751   0.53417   0.22941   0.00000  Uiso   1.00
C277   C     0.70622   0.50193   0.18622   0.00000  Uiso   1.00
C278   C     0.72494   0.53387   0.27682   0.00000  Uiso   1.00
C279   C     0.72876   0.48803   0.35206   0.00000  Uiso   1.00
C280   C     0.74673   0.52855   0.42851   0.00000  Uiso   1.00
C281   C     0.77368   0.56546   0.56903   0.00000  Uiso   1.00
C282   C     0.63383   0.55015   0.15400   0.00000  Uiso   1.00
C283   C     0.56106   0.51800   0.12597   0.00000  Uiso   1.00
C284   C     0.50235   0.57222   0.09901   0.00000  Uiso   1.00
C285   C     0.38788   0.63441   0.04879   0.00000  Uiso   1.00
C286   C     0.77711   0.52695   0.12919   0.00000  Uiso   1.00
C287   C     0.82479   0.47529   0.08028   0.00000  Uiso   1.00
C288   C     0.88670   0.50999   0.03242   0.00000  Uiso   1.00
C289   C     0.99468   0.53616   0.94369   0.00000  Uiso   1.00
C290   C     0.73136   0.65541   0.18818   0.00000  Uiso   1.00
C291   C     0.73859   0.61723   0.27788   0.00000  Uiso   1.00
C292   C     0.75657   0.65783   0.35423   0.00000  Uiso   1.00
C293   C     0.76042   0.61206   0.42958   0.00000  Uiso   1.00
C294   C     0.64749   0.63351   0.15506   0.00000  Uiso   1.00
C295   C     0.58887   0.68780   0.12813   0.00000  Uiso   1.00
C296   C     0.51603   0.65574   0.10008   0.00000  Uiso   1.00
C297   C     0.79077   0.61032   0.13025   0.00000  Uiso   1.00
C298   C     0.85261   0.64510   0.08246   0.00000  Uiso   1.00
C299   C     0.90038   0.59351   0.03349   0.00000  Uiso   1.00
H300   H     0.69559   0.43703   0.18539   0.00000  Uiso   1.00
H301   H     0.71818   0.42352   0.35121   0.00000  Uiso   1.00
H302   H     0.55051   0.45348   0.12514   0.00000  Uiso   1.00
H303   H     0.81421   0.41079   0.07947   0.00000  Uiso   1.00
H304   H     0.74922   0.44530   0.53553   0.00000  Uiso   1.00
H305   H     0.39569   0.50848   0.05883   0.00000  Uiso   1.00
H306   H     0.95174   0.41845   0.96252   0.00000  Uiso   1.00
H307   H     0.74199   0.72031   0.18900   0.00000  Uiso   1.00
H308   H     0.76714   0.72234   0.35503   0.00000  Uiso   1.00
H309   H     0.59947   0.75231   0.12896   0.00000  Uiso   1.00
H310   H     0.86316   0.70961   0.08329   0.00000  Uiso   1.00
H311   H     0.78895   0.68784   0.53864   0.00000  Uiso   1.00
H312   H     0.43542   0.75102   0.06192   0.00000  Uiso   1.00
H313   H     0.99148   0.66099   0.96562   0.00000  Uiso   1.00
O314   O     0.78476   0.56280   0.64624   0.00000  Uiso   1.00
O315   O     0.32096   0.64568   0.02081   0.00000  Uiso   1.00
O316   O     0.05048   0.52757   0.89446   0.00000  Uiso   1.00
N317   N     0.75514   0.50210   0.51348   0.00000  Uiso   1.00
N318   N     0.42461   0.56117   0.06780   0.00000  Uiso   1.00
N319   N     0.94445   0.47700   0.97774   0.00000  Uiso   1.00
N320   N     0.77652   0.63261   0.51515   0.00000  Uiso   1.00
N321   N     0.44599   0.69168   0.06947   0.00000  Uiso   1.00
N322   N     0.96583   0.60751   0.97941   0.00000  Uiso   1.00
C323   C     0.29378   0.49807   0.68622   0.00000  Uiso   1.00
C324   C     0.27506   0.46613   0.77682   0.00000  Uiso   1.00
C325   C     0.27124   0.51197   0.85206   0.00000  Uiso   1.00
C326   C     0.25327   0.47145   0.92851   0.00000  Uiso   1.00
C327   C     0.22632   0.43454   0.06903   0.00000  Uiso   1.00
C328   C     0.36617   0.44985   0.65400   0.00000  Uiso   1.00
C329   C     0.43894   0.48200   0.62597   0.00000  Uiso   1.00
C330   C     0.49765   0.42778   0.59901   0.00000  Uiso   1.00
C331   C     0.61212   0.36559   0.54879   0.00000  Uiso   1.00
C332   C     0.22289   0.47305   0.62919   0.00000  Uiso   1.00
C333   C     0.17521   0.52471   0.58028   0.00000  Uiso   1.00
C334   C     0.11330   0.49001   0.53242   0.00000  Uiso   1.00
C335   C     0.00532   0.46384   0.44369   0.00000  Uiso   1.00
C336   C     0.26864   0.34459   0.68818   0.00000  Uiso   1.00
C337   C     0.26141   0.38277   0.77788   0.00000  Uiso   1.00
C338   C     0.24343   0.34217   0.85423   0.00000  Uiso   1.00
C339   C     0.23958   0.38794   0.92958   0.00000  Uiso   1.00
C340   C     0.35251   0.36649   0.65506   0.00000  Uiso   1.00
C341   C     0.41113   0.31220   0.62813   0.00000  Uiso   1.00
C342   C     0.48397   0.34426   0.60008   0.00000  Uiso   1.00
C343   C     0.20923   0.38968   0.63025   0.00000  Uiso   1.00
C344   C     0.14739   0.35490   0.58246   0.00000  Uiso   1.00
C345   C     0.09962   0.40649   0.53349   0.00000  Uiso   1.00
H346   H     0.30441   0.56297   0.68539   0.00000  Uiso   1.00
H347   H     0.28182   0.57648   0.85121   0.00000  Uiso   1.00
H348   H     0.44949   0.54652   0.62514   0.00000  Uiso   1.00
H349   H     0.18579   0.58921   0.57947   0.00000  Uiso   1.00
H350   H     0.25078   0.55470   0.03553   0.00000  Uiso   1.00
H351   H     0.60431   0.49152   0.55883   0.00000  Uiso   1.00
H352   H     0.04826   0.58155   0.46252   0.00000  Uiso   1.00
H353   H     0.25801   0.27969   0.68900   0.00000  Uiso   1.00
H354   H     0.23286   0.27766   0.85503   0.00000  Uiso   1.00
H355   H     0.40053   0.24769   0.62896   0.00000  Uiso   1.00
H356   H     0.13684   0.29039   0.58329   0.00000  Uiso   1.00
H357   H     0.21105   0.31216   0.03864   0.00000  Uiso   1.00
H358   H     0.56458   0.24898   0.56192   0.00000  Uiso   1.00
H359   H     0.00852   0.33901   0.46562   0.00000  Uiso   1.00
O360   O     0.21524   0.43720   0.14624   0.00000  Uiso   1.00
O361   O     0.67904   0.35432   0.52081   0.00000  Uiso   1.00
O362   O     0.94952   0.47243   0.39446   0.00000  Uiso   1.00
N363   N     0.24486   0.49790   0.01348   0.00000  Uiso   1.00
N364   N     0.57539   0.43883   0.56780   0.00000  Uiso   1.00
N365   N     0.05555   0.52300   0.47774   0.00000  Uiso   1.00
N366   N     0.22348   0.36739   0.01515   0.00000  Uiso   1.00
N367   N     0.55401   0.30832   0.56947   0.00000  Uiso   1.00
N368   N     0.03417   0.39249   0.47941   0.00000  Uiso   1.00
