data_job_04059
_audit_creation_date              2018-12-19
_audit_creation_method            'Materials Studio'
_symmetry_space_group_name_H-M    'P1'
_symmetry_Int_Tables_number       1
_symmetry_cell_setting            triclinic
loop_
_symmetry_equiv_pos_as_xyz
  x,y,z
_cell_length_a                    8.4546
_cell_length_b                    10.1150
_cell_length_c                    35.8696
_cell_angle_alpha                 90.0000
_cell_angle_beta                  85.0446
_cell_angle_gamma                 90.0000
loop_
_atom_site_label
_atom_site_type_symbol
_atom_site_fract_x
_atom_site_fract_y
_atom_site_fract_z
_atom_site_U_iso_or_equiv
_atom_site_adp_type
_atom_site_occupancy
C1     C     0.86063   0.11811   0.09283   0.00000  Uiso   1.00
C2     C     0.87531   0.19843   0.05672   0.00000  Uiso   1.00
C3     C     0.01310   0.21560   0.03327   0.00000  Uiso   1.00
C4     C     0.00195   0.29268   0.00158   0.00000  Uiso   1.00
C5     C     0.04664   0.40867   0.94672   0.00000  Uiso   1.00
C6     C     0.79446   0.21250   0.12346   0.00000  Uiso   1.00
C7     C     0.86427   0.24148   0.15612   0.00000  Uiso   1.00
C8     C     0.78504   0.33039   0.18061   0.00000  Uiso   1.00
C9     C     0.70415   0.46815   0.22938   0.00000  Uiso   1.00
C10    C     0.73063   0.01630   0.08833   0.00000  Uiso   1.00
C11    C     0.74676   0.88031   0.09146   0.00000  Uiso   1.00
C12    C     0.61377   0.80404   0.08638   0.00000  Uiso   1.00
C13    C     0.43379   0.63717   0.08060   0.00000  Uiso   1.00
C14    C     0.59578   0.22449   0.07826   0.00000  Uiso   1.00
C15    C     0.73145   0.25621   0.04881   0.00000  Uiso   1.00
C16    C     0.72007   0.33329   0.01714   0.00000  Uiso   1.00
C17    C     0.85783   0.35056   0.99365   0.00000  Uiso   1.00
C18    C     0.65060   0.27028   0.11555   0.00000  Uiso   1.00
C19    C     0.57124   0.35917   0.14000   0.00000  Uiso   1.00
C20    C     0.64092   0.38828   0.17268   0.00000  Uiso   1.00
C21    C     0.58677   0.07408   0.08041   0.00000  Uiso   1.00
C22    C     0.45373   0.99801   0.07533   0.00000  Uiso   1.00
C23    C     0.46965   0.86193   0.07845   0.00000  Uiso   1.00
H24    H     0.97263   0.07313   0.09900   0.00000  Uiso   1.00
H25    H     0.12442   0.17087   0.03941   0.00000  Uiso   1.00
H26    H     0.97559   0.19674   0.16224   0.00000  Uiso   1.00
H27    H     0.85810   0.83563   0.09759   0.00000  Uiso   1.00
H28    H     0.22927   0.30476   0.96985   0.00000  Uiso   1.00
H29    H     0.91544   0.35926   0.22886   0.00000  Uiso   1.00
H30    H     0.66769   0.59780   0.09253   0.00000  Uiso   1.00
H31    H     0.48377   0.26947   0.07210   0.00000  Uiso   1.00
H32    H     0.60873   0.37799   0.01103   0.00000  Uiso   1.00
H33    H     0.45991   0.40386   0.13386   0.00000  Uiso   1.00
H34    H     0.34242   0.04275   0.06921   0.00000  Uiso   1.00
H35    H     0.81072   0.47288   0.94682   0.00000  Uiso   1.00
H36    H     0.49689   0.52737   0.20583   0.00000  Uiso   1.00
H37    H     0.24914   0.76591   0.06950   0.00000  Uiso   1.00
O38    O     0.11103   0.45670   0.91865   0.00000  Uiso   1.00
O39    O     0.69929   0.52818   0.25847   0.00000  Uiso   1.00
O40    O     0.37425   0.52916   0.07960   0.00000  Uiso   1.00
N41    N     0.11361   0.32941   0.97281   0.00000  Uiso   1.00
N42    N     0.82021   0.38038   0.21497   0.00000  Uiso   1.00
N43    N     0.58857   0.66848   0.08752   0.00000  Uiso   1.00
N44    N     0.88839   0.41987   0.96042   0.00000  Uiso   1.00
N45    N     0.59499   0.47084   0.20257   0.00000  Uiso   1.00
N46    N     0.36336   0.75894   0.07512   0.00000  Uiso   1.00
C47    C     0.13937   0.11811   0.40717   0.00000  Uiso   1.00
C48    C     0.12469   0.19843   0.44328   0.00000  Uiso   1.00
C49    C     0.98690   0.21560   0.46673   0.00000  Uiso   1.00
C50    C     0.99805   0.29268   0.49842   0.00000  Uiso   1.00
C51    C     0.95336   0.40867   0.55328   0.00000  Uiso   1.00
C52    C     0.20554   0.21250   0.37654   0.00000  Uiso   1.00
C53    C     0.13573   0.24148   0.34388   0.00000  Uiso   1.00
C54    C     0.21496   0.33039   0.31939   0.00000  Uiso   1.00
C55    C     0.29585   0.46815   0.27062   0.00000  Uiso   1.00
C56    C     0.26937   0.01630   0.41167   0.00000  Uiso   1.00
C57    C     0.25324   0.88031   0.40854   0.00000  Uiso   1.00
C58    C     0.38623   0.80404   0.41362   0.00000  Uiso   1.00
C59    C     0.56621   0.63717   0.41940   0.00000  Uiso   1.00
C60    C     0.40422   0.22449   0.42174   0.00000  Uiso   1.00
C61    C     0.26855   0.25621   0.45119   0.00000  Uiso   1.00
C62    C     0.27993   0.33329   0.48286   0.00000  Uiso   1.00
C63    C     0.14217   0.35056   0.50635   0.00000  Uiso   1.00
C64    C     0.34940   0.27028   0.38445   0.00000  Uiso   1.00
C65    C     0.42876   0.35917   0.36000   0.00000  Uiso   1.00
C66    C     0.35908   0.38828   0.32732   0.00000  Uiso   1.00
C67    C     0.41323   0.07408   0.41959   0.00000  Uiso   1.00
C68    C     0.54627   0.99801   0.42467   0.00000  Uiso   1.00
C69    C     0.53035   0.86193   0.42155   0.00000  Uiso   1.00
H70    H     0.02737   0.07313   0.40100   0.00000  Uiso   1.00
H71    H     0.87558   0.17087   0.46059   0.00000  Uiso   1.00
H72    H     0.02441   0.19674   0.33776   0.00000  Uiso   1.00
H73    H     0.14190   0.83563   0.40241   0.00000  Uiso   1.00
H74    H     0.77073   0.30476   0.53015   0.00000  Uiso   1.00
H75    H     0.08456   0.35926   0.27114   0.00000  Uiso   1.00
H76    H     0.33231   0.59780   0.40747   0.00000  Uiso   1.00
H77    H     0.51623   0.26947   0.42790   0.00000  Uiso   1.00
H78    H     0.39127   0.37799   0.48897   0.00000  Uiso   1.00
H79    H     0.54009   0.40386   0.36614   0.00000  Uiso   1.00
H80    H     0.65758   0.04275   0.43079   0.00000  Uiso   1.00
H81    H     0.18928   0.47288   0.55318   0.00000  Uiso   1.00
H82    H     0.50311   0.52737   0.29417   0.00000  Uiso   1.00
H83    H     0.75086   0.76591   0.43050   0.00000  Uiso   1.00
O84    O     0.88897   0.45670   0.58135   0.00000  Uiso   1.00
O85    O     0.30071   0.52818   0.24153   0.00000  Uiso   1.00
O86    O     0.62575   0.52916   0.42040   0.00000  Uiso   1.00
N87    N     0.88639   0.32941   0.52719   0.00000  Uiso   1.00
N88    N     0.17979   0.38038   0.28503   0.00000  Uiso   1.00
N89    N     0.41143   0.66848   0.41248   0.00000  Uiso   1.00
N90    N     0.11161   0.41987   0.53958   0.00000  Uiso   1.00
N91    N     0.40501   0.47084   0.29743   0.00000  Uiso   1.00
N92    N     0.63664   0.75894   0.42488   0.00000  Uiso   1.00
C93    C     0.13937   0.88189   0.90717   0.00000  Uiso   1.00
C94    C     0.12469   0.80157   0.94328   0.00000  Uiso   1.00
C95    C     0.98690   0.78440   0.96673   0.00000  Uiso   1.00
C96    C     0.99805   0.70732   0.99842   0.00000  Uiso   1.00
C97    C     0.95336   0.59133   0.05328   0.00000  Uiso   1.00
C98    C     0.20554   0.78750   0.87654   0.00000  Uiso   1.00
C99    C     0.13573   0.75852   0.84388   0.00000  Uiso   1.00
C100   C     0.21496   0.66961   0.81939   0.00000  Uiso   1.00
C101   C     0.29585   0.53185   0.77062   0.00000  Uiso   1.00
C102   C     0.26937   0.98370   0.91167   0.00000  Uiso   1.00
C103   C     0.25324   0.11969   0.90854   0.00000  Uiso   1.00
C104   C     0.38623   0.19596   0.91362   0.00000  Uiso   1.00
C105   C     0.56621   0.36283   0.91940   0.00000  Uiso   1.00
C106   C     0.40422   0.77551   0.92174   0.00000  Uiso   1.00
C107   C     0.26855   0.74379   0.95119   0.00000  Uiso   1.00
C108   C     0.27993   0.66671   0.98286   0.00000  Uiso   1.00
C109   C     0.14217   0.64944   0.00635   0.00000  Uiso   1.00
C110   C     0.34940   0.72972   0.88445   0.00000  Uiso   1.00
C111   C     0.42876   0.64083   0.86000   0.00000  Uiso   1.00
C112   C     0.35908   0.61172   0.82732   0.00000  Uiso   1.00
C113   C     0.41323   0.92592   0.91959   0.00000  Uiso   1.00
C114   C     0.54627   0.00199   0.92467   0.00000  Uiso   1.00
C115   C     0.53035   0.13807   0.92155   0.00000  Uiso   1.00
H116   H     0.02737   0.92687   0.90100   0.00000  Uiso   1.00
H117   H     0.87558   0.82913   0.96059   0.00000  Uiso   1.00
H118   H     0.02441   0.80326   0.83776   0.00000  Uiso   1.00
H119   H     0.14190   0.16437   0.90241   0.00000  Uiso   1.00
H120   H     0.77073   0.69524   0.03015   0.00000  Uiso   1.00
H121   H     0.08456   0.64074   0.77114   0.00000  Uiso   1.00
H122   H     0.33231   0.40220   0.90747   0.00000  Uiso   1.00
H123   H     0.51623   0.73053   0.92790   0.00000  Uiso   1.00
H124   H     0.39127   0.62201   0.98897   0.00000  Uiso   1.00
H125   H     0.54009   0.59614   0.86614   0.00000  Uiso   1.00
H126   H     0.65758   0.95725   0.93079   0.00000  Uiso   1.00
H127   H     0.18928   0.52712   0.05318   0.00000  Uiso   1.00
H128   H     0.50311   0.47263   0.79417   0.00000  Uiso   1.00
H129   H     0.75086   0.23409   0.93050   0.00000  Uiso   1.00
O130   O     0.88897   0.54330   0.08135   0.00000  Uiso   1.00
O131   O     0.30071   0.47182   0.74153   0.00000  Uiso   1.00
O132   O     0.62575   0.47084   0.92040   0.00000  Uiso   1.00
N133   N     0.88639   0.67059   0.02719   0.00000  Uiso   1.00
N134   N     0.17979   0.61962   0.78503   0.00000  Uiso   1.00
N135   N     0.41143   0.33152   0.91248   0.00000  Uiso   1.00
N136   N     0.11161   0.58013   0.03958   0.00000  Uiso   1.00
N137   N     0.40501   0.52916   0.79743   0.00000  Uiso   1.00
N138   N     0.63664   0.24106   0.92488   0.00000  Uiso   1.00
C139   C     0.86063   0.88189   0.59283   0.00000  Uiso   1.00
C140   C     0.87531   0.80157   0.55672   0.00000  Uiso   1.00
C141   C     0.01310   0.78440   0.53327   0.00000  Uiso   1.00
C142   C     0.00195   0.70732   0.50158   0.00000  Uiso   1.00
C143   C     0.04664   0.59133   0.44672   0.00000  Uiso   1.00
C144   C     0.79446   0.78750   0.62346   0.00000  Uiso   1.00
C145   C     0.86427   0.75852   0.65612   0.00000  Uiso   1.00
C146   C     0.78504   0.66961   0.68061   0.00000  Uiso   1.00
C147   C     0.70415   0.53185   0.72938   0.00000  Uiso   1.00
C148   C     0.73063   0.98370   0.58833   0.00000  Uiso   1.00
C149   C     0.74676   0.11969   0.59146   0.00000  Uiso   1.00
C150   C     0.61377   0.19596   0.58638   0.00000  Uiso   1.00
C151   C     0.43379   0.36283   0.58060   0.00000  Uiso   1.00
C152   C     0.59578   0.77551   0.57826   0.00000  Uiso   1.00
C153   C     0.73145   0.74379   0.54881   0.00000  Uiso   1.00
C154   C     0.72007   0.66671   0.51714   0.00000  Uiso   1.00
C155   C     0.85783   0.64944   0.49365   0.00000  Uiso   1.00
C156   C     0.65060   0.72972   0.61555   0.00000  Uiso   1.00
C157   C     0.57124   0.64083   0.64000   0.00000  Uiso   1.00
C158   C     0.64092   0.61172   0.67268   0.00000  Uiso   1.00
C159   C     0.58677   0.92592   0.58041   0.00000  Uiso   1.00
C160   C     0.45373   0.00199   0.57533   0.00000  Uiso   1.00
C161   C     0.46965   0.13807   0.57845   0.00000  Uiso   1.00
H162   H     0.97263   0.92687   0.59900   0.00000  Uiso   1.00
H163   H     0.12442   0.82913   0.53941   0.00000  Uiso   1.00
H164   H     0.97559   0.80326   0.66224   0.00000  Uiso   1.00
H165   H     0.85810   0.16437   0.59759   0.00000  Uiso   1.00
H166   H     0.22927   0.69524   0.46985   0.00000  Uiso   1.00
H167   H     0.91544   0.64074   0.72886   0.00000  Uiso   1.00
H168   H     0.66769   0.40220   0.59253   0.00000  Uiso   1.00
H169   H     0.48377   0.73053   0.57210   0.00000  Uiso   1.00
H170   H     0.60873   0.62201   0.51103   0.00000  Uiso   1.00
H171   H     0.45991   0.59614   0.63386   0.00000  Uiso   1.00
H172   H     0.34242   0.95725   0.56921   0.00000  Uiso   1.00
H173   H     0.81072   0.52712   0.44682   0.00000  Uiso   1.00
H174   H     0.49689   0.47263   0.70583   0.00000  Uiso   1.00
H175   H     0.24914   0.23409   0.56950   0.00000  Uiso   1.00
O176   O     0.11103   0.54330   0.41865   0.00000  Uiso   1.00
O177   O     0.69929   0.47182   0.75847   0.00000  Uiso   1.00
O178   O     0.37425   0.47084   0.57960   0.00000  Uiso   1.00
N179   N     0.11361   0.67059   0.47281   0.00000  Uiso   1.00
N180   N     0.82021   0.61962   0.71497   0.00000  Uiso   1.00
N181   N     0.58857   0.33152   0.58752   0.00000  Uiso   1.00
N182   N     0.88839   0.58013   0.46042   0.00000  Uiso   1.00
N183   N     0.59499   0.52916   0.70257   0.00000  Uiso   1.00
N184   N     0.36336   0.24106   0.57512   0.00000  Uiso   1.00
