data_job_03334
_audit_creation_date              2018-12-19
_audit_creation_method            'Materials Studio'
_symmetry_space_group_name_H-M    'P1'
_symmetry_Int_Tables_number       1
_symmetry_cell_setting            triclinic
loop_
_symmetry_equiv_pos_as_xyz
  x,y,z
_cell_length_a                    32.8824
_cell_length_b                    23.4270
_cell_length_c                    10.4310
_cell_angle_alpha                 90.0000
_cell_angle_beta                  75.7717
_cell_angle_gamma                 90.0000
loop_
_atom_site_label
_atom_site_type_symbol
_atom_site_fract_x
_atom_site_fract_y
_atom_site_fract_z
_atom_site_U_iso_or_equiv
_atom_site_adp_type
_atom_site_occupancy
C1     C     0.61376   0.84494   0.71277   0.00000  Uiso   1.00
C2     C     0.60875   0.83842   0.57200   0.00000  Uiso   1.00
C3     C     0.57130   0.84220   0.53374   0.00000  Uiso   1.00
C4     C     0.57331   0.83497   0.40022   0.00000  Uiso   1.00
C5     C     0.55973   0.82643   0.19562   0.00000  Uiso   1.00
C6     C     0.63495   0.79035   0.74273   0.00000  Uiso   1.00
C7     C     0.61951   0.75373   0.84803   0.00000  Uiso   1.00
C8     C     0.64359   0.70603   0.85823   0.00000  Uiso   1.00
C9     C     0.67069   0.62289   0.91874   0.00000  Uiso   1.00
C10    C     0.64568   0.89262   0.70771   0.00000  Uiso   1.00
C11    C     0.63928   0.94199   0.78358   0.00000  Uiso   1.00
C12    C     0.67239   0.98039   0.76432   0.00000  Uiso   1.00
C13    C     0.71616   0.05604   0.77046   0.00000  Uiso   1.00
C14    C     0.68395   0.82536   0.54367   0.00000  Uiso   1.00
C15    C     0.64688   0.82778   0.48016   0.00000  Uiso   1.00
C16    C     0.64895   0.82054   0.34665   0.00000  Uiso   1.00
C17    C     0.61151   0.82431   0.30820   0.00000  Uiso   1.00
C18    C     0.67307   0.77972   0.65088   0.00000  Uiso   1.00
C19    C     0.69717   0.73207   0.66094   0.00000  Uiso   1.00
C20    C     0.68178   0.69538   0.76622   0.00000  Uiso   1.00
C21    C     0.68381   0.88199   0.61586   0.00000  Uiso   1.00
C22    C     0.71694   0.92032   0.59648   0.00000  Uiso   1.00
C23    C     0.71059   0.96973   0.67231   0.00000  Uiso   1.00
H24    H     0.58408   0.85322   0.78428   0.00000  Uiso   1.00
H25    H     0.54180   0.85043   0.60485   0.00000  Uiso   1.00
H26    H     0.59001   0.76197   0.91909   0.00000  Uiso   1.00
H27    H     0.60977   0.95020   0.85465   0.00000  Uiso   1.00
H28    H     0.51173   0.84263   0.36542   0.00000  Uiso   1.00
H29    H     0.61340   0.65612   0.02804   0.00000  Uiso   1.00
H30    H     0.65507   0.05304   0.89216   0.00000  Uiso   1.00
H31    H     0.71364   0.81708   0.47216   0.00000  Uiso   1.00
H32    H     0.67846   0.81231   0.27560   0.00000  Uiso   1.00
H33    H     0.72668   0.72385   0.58985   0.00000  Uiso   1.00
H34    H     0.74644   0.91208   0.52540   0.00000  Uiso   1.00
H35    H     0.62265   0.81169   0.09819   0.00000  Uiso   1.00
H36    H     0.72432   0.62518   0.76082   0.00000  Uiso   1.00
H37    H     0.76599   0.02210   0.62492   0.00000  Uiso   1.00
O38    O     0.54171   0.82465   0.10814   0.00000  Uiso   1.00
O39    O     0.67510   0.57997   0.97749   0.00000  Uiso   1.00
O40    O     0.72977   0.10072   0.79920   0.00000  Uiso   1.00
N41    N     0.54266   0.83601   0.32950   0.00000  Uiso   1.00
N42    N     0.63772   0.66163   0.94900   0.00000  Uiso   1.00
N43    N     0.67668   0.03271   0.82198   0.00000  Uiso   1.00
N44    N     0.60235   0.81936   0.18571   0.00000  Uiso   1.00
N45    N     0.69740   0.64498   0.80521   0.00000  Uiso   1.00
N46    N     0.73637   0.01606   0.67819   0.00000  Uiso   1.00
C47    C     0.11376   0.34494   0.71277   0.00000  Uiso   1.00
C48    C     0.10875   0.33842   0.57200   0.00000  Uiso   1.00
C49    C     0.07130   0.34220   0.53374   0.00000  Uiso   1.00
C50    C     0.07331   0.33497   0.40022   0.00000  Uiso   1.00
C51    C     0.05973   0.32643   0.19562   0.00000  Uiso   1.00
C52    C     0.13495   0.29035   0.74273   0.00000  Uiso   1.00
C53    C     0.11951   0.25373   0.84803   0.00000  Uiso   1.00
C54    C     0.14359   0.20603   0.85823   0.00000  Uiso   1.00
C55    C     0.17069   0.12289   0.91874   0.00000  Uiso   1.00
C56    C     0.14568   0.39262   0.70771   0.00000  Uiso   1.00
C57    C     0.13928   0.44199   0.78358   0.00000  Uiso   1.00
C58    C     0.17239   0.48039   0.76432   0.00000  Uiso   1.00
C59    C     0.21616   0.55604   0.77046   0.00000  Uiso   1.00
C60    C     0.18395   0.32536   0.54367   0.00000  Uiso   1.00
C61    C     0.14688   0.32778   0.48016   0.00000  Uiso   1.00
C62    C     0.14895   0.32054   0.34665   0.00000  Uiso   1.00
C63    C     0.11151   0.32431   0.30820   0.00000  Uiso   1.00
C64    C     0.17307   0.27972   0.65088   0.00000  Uiso   1.00
C65    C     0.19717   0.23207   0.66094   0.00000  Uiso   1.00
C66    C     0.18178   0.19538   0.76622   0.00000  Uiso   1.00
C67    C     0.18381   0.38199   0.61586   0.00000  Uiso   1.00
C68    C     0.21694   0.42032   0.59648   0.00000  Uiso   1.00
C69    C     0.21059   0.46973   0.67231   0.00000  Uiso   1.00
H70    H     0.08408   0.35322   0.78428   0.00000  Uiso   1.00
H71    H     0.04180   0.35043   0.60485   0.00000  Uiso   1.00
H72    H     0.09001   0.26197   0.91909   0.00000  Uiso   1.00
H73    H     0.10977   0.45020   0.85465   0.00000  Uiso   1.00
H74    H     0.01173   0.34263   0.36542   0.00000  Uiso   1.00
H75    H     0.11340   0.15612   0.02804   0.00000  Uiso   1.00
H76    H     0.15507   0.55304   0.89216   0.00000  Uiso   1.00
H77    H     0.21364   0.31708   0.47216   0.00000  Uiso   1.00
H78    H     0.17846   0.31231   0.27560   0.00000  Uiso   1.00
H79    H     0.22668   0.22385   0.58985   0.00000  Uiso   1.00
H80    H     0.24644   0.41208   0.52540   0.00000  Uiso   1.00
H81    H     0.12265   0.31169   0.09819   0.00000  Uiso   1.00
H82    H     0.22432   0.12518   0.76082   0.00000  Uiso   1.00
H83    H     0.26599   0.52210   0.62492   0.00000  Uiso   1.00
O84    O     0.04171   0.32465   0.10814   0.00000  Uiso   1.00
O85    O     0.17510   0.07997   0.97749   0.00000  Uiso   1.00
O86    O     0.22977   0.60072   0.79920   0.00000  Uiso   1.00
N87    N     0.04266   0.33601   0.32950   0.00000  Uiso   1.00
N88    N     0.13772   0.16163   0.94900   0.00000  Uiso   1.00
N89    N     0.17668   0.53271   0.82198   0.00000  Uiso   1.00
N90    N     0.10235   0.31936   0.18571   0.00000  Uiso   1.00
N91    N     0.19740   0.14498   0.80521   0.00000  Uiso   1.00
N92    N     0.23637   0.51606   0.67819   0.00000  Uiso   1.00
C93    C     0.38624   0.84494   0.78723   0.00000  Uiso   1.00
C94    C     0.39125   0.83842   0.92800   0.00000  Uiso   1.00
C95    C     0.42870   0.84220   0.96626   0.00000  Uiso   1.00
C96    C     0.42669   0.83497   0.09978   0.00000  Uiso   1.00
C97    C     0.44027   0.82643   0.30438   0.00000  Uiso   1.00
C98    C     0.36505   0.79035   0.75727   0.00000  Uiso   1.00
C99    C     0.38049   0.75373   0.65197   0.00000  Uiso   1.00
C100   C     0.35641   0.70603   0.64177   0.00000  Uiso   1.00
C101   C     0.32931   0.62289   0.58126   0.00000  Uiso   1.00
C102   C     0.35432   0.89262   0.79229   0.00000  Uiso   1.00
C103   C     0.36072   0.94199   0.71642   0.00000  Uiso   1.00
C104   C     0.32761   0.98039   0.73568   0.00000  Uiso   1.00
C105   C     0.28384   0.05604   0.72954   0.00000  Uiso   1.00
C106   C     0.31605   0.82536   0.95633   0.00000  Uiso   1.00
C107   C     0.35312   0.82778   0.01984   0.00000  Uiso   1.00
C108   C     0.35105   0.82054   0.15335   0.00000  Uiso   1.00
C109   C     0.38849   0.82431   0.19180   0.00000  Uiso   1.00
C110   C     0.32693   0.77972   0.84912   0.00000  Uiso   1.00
C111   C     0.30283   0.73207   0.83906   0.00000  Uiso   1.00
C112   C     0.31822   0.69538   0.73378   0.00000  Uiso   1.00
C113   C     0.31619   0.88199   0.88414   0.00000  Uiso   1.00
C114   C     0.28306   0.92032   0.90352   0.00000  Uiso   1.00
C115   C     0.28941   0.96973   0.82769   0.00000  Uiso   1.00
H116   H     0.41592   0.85322   0.71572   0.00000  Uiso   1.00
H117   H     0.45820   0.85043   0.89515   0.00000  Uiso   1.00
H118   H     0.40999   0.76197   0.58091   0.00000  Uiso   1.00
H119   H     0.39023   0.95020   0.64535   0.00000  Uiso   1.00
H120   H     0.48827   0.84263   0.13458   0.00000  Uiso   1.00
H121   H     0.38660   0.65612   0.47196   0.00000  Uiso   1.00
H122   H     0.34493   0.05304   0.60784   0.00000  Uiso   1.00
H123   H     0.28636   0.81708   0.02784   0.00000  Uiso   1.00
H124   H     0.32154   0.81231   0.22440   0.00000  Uiso   1.00
H125   H     0.27332   0.72385   0.91015   0.00000  Uiso   1.00
H126   H     0.25356   0.91208   0.97460   0.00000  Uiso   1.00
H127   H     0.37735   0.81169   0.40181   0.00000  Uiso   1.00
H128   H     0.27568   0.62518   0.73918   0.00000  Uiso   1.00
H129   H     0.23401   0.02210   0.87508   0.00000  Uiso   1.00
O130   O     0.45829   0.82465   0.39186   0.00000  Uiso   1.00
O131   O     0.32490   0.57997   0.52251   0.00000  Uiso   1.00
O132   O     0.27023   0.10072   0.70080   0.00000  Uiso   1.00
N133   N     0.45734   0.83601   0.17050   0.00000  Uiso   1.00
N134   N     0.36228   0.66163   0.55100   0.00000  Uiso   1.00
N135   N     0.32332   0.03271   0.67802   0.00000  Uiso   1.00
N136   N     0.39765   0.81936   0.31429   0.00000  Uiso   1.00
N137   N     0.30260   0.64498   0.69479   0.00000  Uiso   1.00
N138   N     0.26363   0.01606   0.82181   0.00000  Uiso   1.00
C139   C     0.88624   0.34494   0.78723   0.00000  Uiso   1.00
C140   C     0.89125   0.33842   0.92800   0.00000  Uiso   1.00
C141   C     0.92870   0.34220   0.96626   0.00000  Uiso   1.00
C142   C     0.92669   0.33497   0.09978   0.00000  Uiso   1.00
C143   C     0.94027   0.32643   0.30438   0.00000  Uiso   1.00
C144   C     0.86505   0.29035   0.75727   0.00000  Uiso   1.00
C145   C     0.88049   0.25373   0.65197   0.00000  Uiso   1.00
C146   C     0.85641   0.20603   0.64177   0.00000  Uiso   1.00
C147   C     0.82931   0.12289   0.58126   0.00000  Uiso   1.00
C148   C     0.85432   0.39262   0.79229   0.00000  Uiso   1.00
C149   C     0.86072   0.44199   0.71642   0.00000  Uiso   1.00
C150   C     0.82761   0.48039   0.73568   0.00000  Uiso   1.00
C151   C     0.78384   0.55604   0.72954   0.00000  Uiso   1.00
C152   C     0.81605   0.32536   0.95633   0.00000  Uiso   1.00
C153   C     0.85312   0.32778   0.01984   0.00000  Uiso   1.00
C154   C     0.85105   0.32054   0.15335   0.00000  Uiso   1.00
C155   C     0.88849   0.32431   0.19180   0.00000  Uiso   1.00
C156   C     0.82693   0.27972   0.84912   0.00000  Uiso   1.00
C157   C     0.80283   0.23207   0.83906   0.00000  Uiso   1.00
C158   C     0.81822   0.19538   0.73378   0.00000  Uiso   1.00
C159   C     0.81619   0.38199   0.88414   0.00000  Uiso   1.00
C160   C     0.78306   0.42032   0.90352   0.00000  Uiso   1.00
C161   C     0.78941   0.46973   0.82769   0.00000  Uiso   1.00
H162   H     0.91592   0.35322   0.71572   0.00000  Uiso   1.00
H163   H     0.95820   0.35043   0.89515   0.00000  Uiso   1.00
H164   H     0.90999   0.26197   0.58091   0.00000  Uiso   1.00
H165   H     0.89023   0.45020   0.64535   0.00000  Uiso   1.00
H166   H     0.98827   0.34263   0.13458   0.00000  Uiso   1.00
H167   H     0.88660   0.15612   0.47196   0.00000  Uiso   1.00
H168   H     0.84493   0.55304   0.60784   0.00000  Uiso   1.00
H169   H     0.78636   0.31708   0.02784   0.00000  Uiso   1.00
H170   H     0.82154   0.31231   0.22440   0.00000  Uiso   1.00
H171   H     0.77332   0.22385   0.91015   0.00000  Uiso   1.00
H172   H     0.75356   0.41208   0.97460   0.00000  Uiso   1.00
H173   H     0.87735   0.31169   0.40181   0.00000  Uiso   1.00
H174   H     0.77568   0.12518   0.73918   0.00000  Uiso   1.00
H175   H     0.73401   0.52210   0.87508   0.00000  Uiso   1.00
O176   O     0.95829   0.32465   0.39186   0.00000  Uiso   1.00
O177   O     0.82490   0.07997   0.52251   0.00000  Uiso   1.00
O178   O     0.77023   0.60072   0.70080   0.00000  Uiso   1.00
N179   N     0.95734   0.33601   0.17050   0.00000  Uiso   1.00
N180   N     0.86228   0.16163   0.55100   0.00000  Uiso   1.00
N181   N     0.82332   0.53271   0.67802   0.00000  Uiso   1.00
N182   N     0.89765   0.31936   0.31429   0.00000  Uiso   1.00
N183   N     0.80260   0.14498   0.69479   0.00000  Uiso   1.00
N184   N     0.76363   0.51606   0.82181   0.00000  Uiso   1.00
C185   C     0.38624   0.15506   0.28723   0.00000  Uiso   1.00
C186   C     0.39125   0.16158   0.42800   0.00000  Uiso   1.00
C187   C     0.42870   0.15780   0.46626   0.00000  Uiso   1.00
C188   C     0.42669   0.16503   0.59978   0.00000  Uiso   1.00
C189   C     0.44027   0.17357   0.80438   0.00000  Uiso   1.00
C190   C     0.36505   0.20965   0.25727   0.00000  Uiso   1.00
C191   C     0.38049   0.24627   0.15197   0.00000  Uiso   1.00
C192   C     0.35641   0.29397   0.14177   0.00000  Uiso   1.00
C193   C     0.32931   0.37711   0.08126   0.00000  Uiso   1.00
C194   C     0.35432   0.10738   0.29229   0.00000  Uiso   1.00
C195   C     0.36072   0.05801   0.21642   0.00000  Uiso   1.00
C196   C     0.32761   0.01961   0.23568   0.00000  Uiso   1.00
C197   C     0.28384   0.94396   0.22954   0.00000  Uiso   1.00
C198   C     0.31605   0.17464   0.45633   0.00000  Uiso   1.00
C199   C     0.35312   0.17222   0.51984   0.00000  Uiso   1.00
C200   C     0.35105   0.17946   0.65335   0.00000  Uiso   1.00
C201   C     0.38849   0.17569   0.69180   0.00000  Uiso   1.00
C202   C     0.32693   0.22028   0.34912   0.00000  Uiso   1.00
C203   C     0.30283   0.26793   0.33906   0.00000  Uiso   1.00
C204   C     0.31822   0.30462   0.23378   0.00000  Uiso   1.00
C205   C     0.31619   0.11801   0.38414   0.00000  Uiso   1.00
C206   C     0.28306   0.07968   0.40352   0.00000  Uiso   1.00
C207   C     0.28941   0.03027   0.32769   0.00000  Uiso   1.00
H208   H     0.41592   0.14678   0.21572   0.00000  Uiso   1.00
H209   H     0.45820   0.14957   0.39515   0.00000  Uiso   1.00
H210   H     0.40999   0.23803   0.08091   0.00000  Uiso   1.00
H211   H     0.39023   0.04980   0.14535   0.00000  Uiso   1.00
H212   H     0.48827   0.15737   0.63458   0.00000  Uiso   1.00
H213   H     0.38660   0.34388   0.97196   0.00000  Uiso   1.00
H214   H     0.34493   0.94696   0.10784   0.00000  Uiso   1.00
H215   H     0.28636   0.18292   0.52784   0.00000  Uiso   1.00
H216   H     0.32154   0.18769   0.72440   0.00000  Uiso   1.00
H217   H     0.27332   0.27615   0.41015   0.00000  Uiso   1.00
H218   H     0.25356   0.08792   0.47460   0.00000  Uiso   1.00
H219   H     0.37735   0.18831   0.90181   0.00000  Uiso   1.00
H220   H     0.27568   0.37482   0.23918   0.00000  Uiso   1.00
H221   H     0.23401   0.97790   0.37508   0.00000  Uiso   1.00
O222   O     0.45829   0.17535   0.89186   0.00000  Uiso   1.00
O223   O     0.32490   0.42003   0.02251   0.00000  Uiso   1.00
O224   O     0.27023   0.89928   0.20080   0.00000  Uiso   1.00
N225   N     0.45734   0.16399   0.67050   0.00000  Uiso   1.00
N226   N     0.36228   0.33837   0.05100   0.00000  Uiso   1.00
N227   N     0.32332   0.96729   0.17802   0.00000  Uiso   1.00
N228   N     0.39765   0.18064   0.81429   0.00000  Uiso   1.00
N229   N     0.30260   0.35502   0.19479   0.00000  Uiso   1.00
N230   N     0.26363   0.98394   0.32181   0.00000  Uiso   1.00
C231   C     0.88624   0.65506   0.28723   0.00000  Uiso   1.00
C232   C     0.89125   0.66158   0.42800   0.00000  Uiso   1.00
C233   C     0.92870   0.65780   0.46626   0.00000  Uiso   1.00
C234   C     0.92669   0.66503   0.59978   0.00000  Uiso   1.00
C235   C     0.94027   0.67357   0.80438   0.00000  Uiso   1.00
C236   C     0.86505   0.70965   0.25727   0.00000  Uiso   1.00
C237   C     0.88049   0.74627   0.15197   0.00000  Uiso   1.00
C238   C     0.85641   0.79397   0.14177   0.00000  Uiso   1.00
C239   C     0.82931   0.87711   0.08126   0.00000  Uiso   1.00
C240   C     0.85432   0.60738   0.29229   0.00000  Uiso   1.00
C241   C     0.86072   0.55801   0.21642   0.00000  Uiso   1.00
C242   C     0.82761   0.51961   0.23568   0.00000  Uiso   1.00
C243   C     0.78384   0.44396   0.22954   0.00000  Uiso   1.00
C244   C     0.81605   0.67464   0.45633   0.00000  Uiso   1.00
C245   C     0.85312   0.67222   0.51984   0.00000  Uiso   1.00
C246   C     0.85105   0.67946   0.65335   0.00000  Uiso   1.00
C247   C     0.88849   0.67569   0.69180   0.00000  Uiso   1.00
C248   C     0.82693   0.72028   0.34912   0.00000  Uiso   1.00
C249   C     0.80283   0.76793   0.33906   0.00000  Uiso   1.00
C250   C     0.81822   0.80462   0.23378   0.00000  Uiso   1.00
C251   C     0.81619   0.61801   0.38414   0.00000  Uiso   1.00
C252   C     0.78306   0.57968   0.40352   0.00000  Uiso   1.00
C253   C     0.78941   0.53027   0.32769   0.00000  Uiso   1.00
H254   H     0.91592   0.64678   0.21572   0.00000  Uiso   1.00
H255   H     0.95820   0.64957   0.39515   0.00000  Uiso   1.00
H256   H     0.90999   0.73803   0.08091   0.00000  Uiso   1.00
H257   H     0.89023   0.54980   0.14535   0.00000  Uiso   1.00
H258   H     0.98827   0.65737   0.63458   0.00000  Uiso   1.00
H259   H     0.88660   0.84388   0.97196   0.00000  Uiso   1.00
H260   H     0.84493   0.44696   0.10784   0.00000  Uiso   1.00
H261   H     0.78636   0.68292   0.52784   0.00000  Uiso   1.00
H262   H     0.82154   0.68769   0.72440   0.00000  Uiso   1.00
H263   H     0.77332   0.77615   0.41015   0.00000  Uiso   1.00
H264   H     0.75356   0.58792   0.47460   0.00000  Uiso   1.00
H265   H     0.87735   0.68831   0.90181   0.00000  Uiso   1.00
H266   H     0.77568   0.87482   0.23918   0.00000  Uiso   1.00
H267   H     0.73401   0.47790   0.37508   0.00000  Uiso   1.00
O268   O     0.95829   0.67535   0.89186   0.00000  Uiso   1.00
O269   O     0.82490   0.92003   0.02251   0.00000  Uiso   1.00
O270   O     0.77023   0.39928   0.20080   0.00000  Uiso   1.00
N271   N     0.95734   0.66399   0.67050   0.00000  Uiso   1.00
N272   N     0.86228   0.83837   0.05100   0.00000  Uiso   1.00
N273   N     0.82332   0.46729   0.17802   0.00000  Uiso   1.00
N274   N     0.89765   0.68064   0.81429   0.00000  Uiso   1.00
N275   N     0.80260   0.85502   0.19479   0.00000  Uiso   1.00
N276   N     0.76363   0.48394   0.32181   0.00000  Uiso   1.00
C277   C     0.61376   0.15506   0.21277   0.00000  Uiso   1.00
C278   C     0.60875   0.16158   0.07200   0.00000  Uiso   1.00
C279   C     0.57130   0.15780   0.03374   0.00000  Uiso   1.00
C280   C     0.57331   0.16503   0.90022   0.00000  Uiso   1.00
C281   C     0.55973   0.17357   0.69562   0.00000  Uiso   1.00
C282   C     0.63495   0.20965   0.24273   0.00000  Uiso   1.00
C283   C     0.61951   0.24627   0.34803   0.00000  Uiso   1.00
C284   C     0.64359   0.29397   0.35823   0.00000  Uiso   1.00
C285   C     0.67069   0.37711   0.41874   0.00000  Uiso   1.00
C286   C     0.64568   0.10738   0.20771   0.00000  Uiso   1.00
C287   C     0.63928   0.05801   0.28358   0.00000  Uiso   1.00
C288   C     0.67239   0.01961   0.26432   0.00000  Uiso   1.00
C289   C     0.71616   0.94396   0.27046   0.00000  Uiso   1.00
C290   C     0.68395   0.17464   0.04367   0.00000  Uiso   1.00
C291   C     0.64688   0.17222   0.98016   0.00000  Uiso   1.00
C292   C     0.64895   0.17946   0.84665   0.00000  Uiso   1.00
C293   C     0.61151   0.17569   0.80820   0.00000  Uiso   1.00
C294   C     0.67307   0.22028   0.15088   0.00000  Uiso   1.00
C295   C     0.69717   0.26793   0.16094   0.00000  Uiso   1.00
C296   C     0.68178   0.30462   0.26622   0.00000  Uiso   1.00
C297   C     0.68381   0.11801   0.11586   0.00000  Uiso   1.00
C298   C     0.71694   0.07968   0.09648   0.00000  Uiso   1.00
C299   C     0.71059   0.03027   0.17231   0.00000  Uiso   1.00
H300   H     0.58408   0.14678   0.28428   0.00000  Uiso   1.00
H301   H     0.54180   0.14957   0.10485   0.00000  Uiso   1.00
H302   H     0.59001   0.23803   0.41909   0.00000  Uiso   1.00
H303   H     0.60977   0.04980   0.35465   0.00000  Uiso   1.00
H304   H     0.51173   0.15737   0.86542   0.00000  Uiso   1.00
H305   H     0.61340   0.34388   0.52804   0.00000  Uiso   1.00
H306   H     0.65507   0.94696   0.39216   0.00000  Uiso   1.00
H307   H     0.71364   0.18292   0.97216   0.00000  Uiso   1.00
H308   H     0.67846   0.18769   0.77560   0.00000  Uiso   1.00
H309   H     0.72668   0.27615   0.08985   0.00000  Uiso   1.00
H310   H     0.74644   0.08792   0.02540   0.00000  Uiso   1.00
H311   H     0.62265   0.18831   0.59819   0.00000  Uiso   1.00
H312   H     0.72432   0.37482   0.26082   0.00000  Uiso   1.00
H313   H     0.76599   0.97790   0.12492   0.00000  Uiso   1.00
O314   O     0.54171   0.17535   0.60814   0.00000  Uiso   1.00
O315   O     0.67510   0.42003   0.47749   0.00000  Uiso   1.00
O316   O     0.72977   0.89928   0.29920   0.00000  Uiso   1.00
N317   N     0.54266   0.16399   0.82950   0.00000  Uiso   1.00
N318   N     0.63772   0.33837   0.44900   0.00000  Uiso   1.00
N319   N     0.67668   0.96729   0.32198   0.00000  Uiso   1.00
N320   N     0.60235   0.18064   0.68571   0.00000  Uiso   1.00
N321   N     0.69740   0.35502   0.30521   0.00000  Uiso   1.00
N322   N     0.73637   0.98394   0.17819   0.00000  Uiso   1.00
C323   C     0.11376   0.65506   0.21277   0.00000  Uiso   1.00
C324   C     0.10875   0.66158   0.07200   0.00000  Uiso   1.00
C325   C     0.07130   0.65780   0.03374   0.00000  Uiso   1.00
C326   C     0.07331   0.66503   0.90022   0.00000  Uiso   1.00
C327   C     0.05973   0.67357   0.69562   0.00000  Uiso   1.00
C328   C     0.13495   0.70965   0.24273   0.00000  Uiso   1.00
C329   C     0.11951   0.74627   0.34803   0.00000  Uiso   1.00
C330   C     0.14359   0.79397   0.35823   0.00000  Uiso   1.00
C331   C     0.17069   0.87711   0.41874   0.00000  Uiso   1.00
C332   C     0.14568   0.60738   0.20771   0.00000  Uiso   1.00
C333   C     0.13928   0.55801   0.28358   0.00000  Uiso   1.00
C334   C     0.17239   0.51961   0.26432   0.00000  Uiso   1.00
C335   C     0.21616   0.44396   0.27046   0.00000  Uiso   1.00
C336   C     0.18395   0.67464   0.04367   0.00000  Uiso   1.00
C337   C     0.14688   0.67222   0.98016   0.00000  Uiso   1.00
C338   C     0.14895   0.67946   0.84665   0.00000  Uiso   1.00
C339   C     0.11151   0.67569   0.80820   0.00000  Uiso   1.00
C340   C     0.17307   0.72028   0.15088   0.00000  Uiso   1.00
C341   C     0.19717   0.76793   0.16094   0.00000  Uiso   1.00
C342   C     0.18178   0.80462   0.26622   0.00000  Uiso   1.00
C343   C     0.18381   0.61801   0.11586   0.00000  Uiso   1.00
C344   C     0.21694   0.57968   0.09648   0.00000  Uiso   1.00
C345   C     0.21059   0.53027   0.17231   0.00000  Uiso   1.00
H346   H     0.08408   0.64678   0.28428   0.00000  Uiso   1.00
H347   H     0.04180   0.64957   0.10485   0.00000  Uiso   1.00
H348   H     0.09001   0.73803   0.41909   0.00000  Uiso   1.00
H349   H     0.10977   0.54980   0.35465   0.00000  Uiso   1.00
H350   H     0.01173   0.65737   0.86542   0.00000  Uiso   1.00
H351   H     0.11340   0.84388   0.52804   0.00000  Uiso   1.00
H352   H     0.15507   0.44696   0.39216   0.00000  Uiso   1.00
H353   H     0.21364   0.68292   0.97216   0.00000  Uiso   1.00
H354   H     0.17846   0.68769   0.77560   0.00000  Uiso   1.00
H355   H     0.22668   0.77615   0.08985   0.00000  Uiso   1.00
H356   H     0.24644   0.58792   0.02540   0.00000  Uiso   1.00
H357   H     0.12265   0.68831   0.59819   0.00000  Uiso   1.00
H358   H     0.22432   0.87482   0.26082   0.00000  Uiso   1.00
H359   H     0.26599   0.47790   0.12492   0.00000  Uiso   1.00
O360   O     0.04171   0.67535   0.60814   0.00000  Uiso   1.00
O361   O     0.17510   0.92003   0.47749   0.00000  Uiso   1.00
O362   O     0.22977   0.39928   0.29920   0.00000  Uiso   1.00
N363   N     0.04266   0.66399   0.82950   0.00000  Uiso   1.00
N364   N     0.13772   0.83837   0.44900   0.00000  Uiso   1.00
N365   N     0.17668   0.46729   0.32198   0.00000  Uiso   1.00
N366   N     0.10235   0.68064   0.68571   0.00000  Uiso   1.00
N367   N     0.19740   0.85502   0.30521   0.00000  Uiso   1.00
N368   N     0.23637   0.48394   0.17819   0.00000  Uiso   1.00
