data_job_04123
_audit_creation_date              2018-12-19
_audit_creation_method            'Materials Studio'
_symmetry_space_group_name_H-M    'P1'
_symmetry_Int_Tables_number       1
_symmetry_cell_setting            triclinic
loop_
_symmetry_equiv_pos_as_xyz
  x,y,z
_cell_length_a                    20.7155
_cell_length_b                    9.3648
_cell_length_c                    16.2568
_cell_angle_alpha                 90.0000
_cell_angle_beta                  90.0000
_cell_angle_gamma                 90.0000
loop_
_atom_site_label
_atom_site_type_symbol
_atom_site_fract_x
_atom_site_fract_y
_atom_site_fract_z
_atom_site_U_iso_or_equiv
_atom_site_adp_type
_atom_site_occupancy
C1     C     0.58444   0.36547   0.89726   0.00000  Uiso   1.00
C2     C     0.61839   0.38356   0.97983   0.00000  Uiso   1.00
C3     C     0.64695   0.50814   0.00834   0.00000  Uiso   1.00
C4     C     0.67555   0.50287   0.08552   0.00000  Uiso   1.00
C5     C     0.72830   0.55003   0.20658   0.00000  Uiso   1.00
C6     C     0.61838   0.24186   0.85415   0.00000  Uiso   1.00
C7     C     0.64693   0.24730   0.77698   0.00000  Uiso   1.00
C8     C     0.67550   0.12274   0.74837   0.00000  Uiso   1.00
C9     C     0.72820   0.94988   0.67428   0.00000  Uiso   1.00
C10    C     0.51654   0.31273   0.91699   0.00000  Uiso   1.00
C11    C     0.45944   0.37774   0.89263   0.00000  Uiso   1.00
C12    C     0.40227   0.31282   0.91690   0.00000  Uiso   1.00
C13    C     0.29684   0.25000   0.94037   0.00000  Uiso   1.00
C14    C     0.58442   0.13457   0.98364   0.00000  Uiso   1.00
C15    C     0.61838   0.25814   0.02675   0.00000  Uiso   1.00
C16    C     0.64694   0.25268   0.10391   0.00000  Uiso   1.00
C17    C     0.67554   0.37723   0.13253   0.00000  Uiso   1.00
C18    C     0.61838   0.11645   0.90107   0.00000  Uiso   1.00
C19    C     0.64691   0.99184   0.87256   0.00000  Uiso   1.00
C20    C     0.67550   0.99709   0.79537   0.00000  Uiso   1.00
C21    C     0.51653   0.18732   0.96391   0.00000  Uiso   1.00
C22    C     0.45943   0.12228   0.98821   0.00000  Uiso   1.00
C23    C     0.40227   0.18718   0.96390   0.00000  Uiso   1.00
H24    H     0.58444   0.46310   0.86073   0.00000  Uiso   1.00
H25    H     0.64695   0.60517   0.97201   0.00000  Uiso   1.00
H26    H     0.64692   0.34437   0.74069   0.00000  Uiso   1.00
H27    H     0.45947   0.47479   0.85632   0.00000  Uiso   1.00
H28    H     0.71627   0.70736   0.11606   0.00000  Uiso   1.00
H29    H     0.71618   0.15743   0.62829   0.00000  Uiso   1.00
H30    H     0.32091   0.43244   0.87213   0.00000  Uiso   1.00
H31    H     0.58442   0.03692   0.02017   0.00000  Uiso   1.00
H32    H     0.64693   0.15561   0.14021   0.00000  Uiso   1.00
H33    H     0.64690   0.89481   0.90888   0.00000  Uiso   1.00
H34    H     0.45945   0.02523   0.02452   0.00000  Uiso   1.00
H35    H     0.71626   0.34248   0.25257   0.00000  Uiso   1.00
H36    H     0.71617   0.79255   0.76480   0.00000  Uiso   1.00
H37    H     0.32089   0.06756   0.00865   0.00000  Uiso   1.00
O38    O     0.75740   0.61068   0.26039   0.00000  Uiso   1.00
O39    O     0.75727   0.88918   0.62045   0.00000  Uiso   1.00
O40    O     0.23868   0.25000   0.94037   0.00000  Uiso   1.00
N41    N     0.70768   0.60521   0.13172   0.00000  Uiso   1.00
N42    N     0.70761   0.09106   0.67570   0.00000  Uiso   1.00
N43    N     0.33806   0.34815   0.90364   0.00000  Uiso   1.00
N44    N     0.70767   0.40887   0.20518   0.00000  Uiso   1.00
N45    N     0.70760   0.89472   0.74915   0.00000  Uiso   1.00
N46    N     0.33805   0.15182   0.97710   0.00000  Uiso   1.00
C47    C     0.41556   0.63453   0.39726   0.00000  Uiso   1.00
C48    C     0.38161   0.61644   0.47983   0.00000  Uiso   1.00
C49    C     0.35305   0.49186   0.50834   0.00000  Uiso   1.00
C50    C     0.32445   0.49713   0.58552   0.00000  Uiso   1.00
C51    C     0.27170   0.44997   0.70658   0.00000  Uiso   1.00
C52    C     0.38162   0.75814   0.35415   0.00000  Uiso   1.00
C53    C     0.35307   0.75270   0.27698   0.00000  Uiso   1.00
C54    C     0.32450   0.87726   0.24837   0.00000  Uiso   1.00
C55    C     0.27180   0.05012   0.17428   0.00000  Uiso   1.00
C56    C     0.48346   0.68727   0.41699   0.00000  Uiso   1.00
C57    C     0.54056   0.62226   0.39263   0.00000  Uiso   1.00
C58    C     0.59773   0.68718   0.41690   0.00000  Uiso   1.00
C59    C     0.70316   0.75000   0.44037   0.00000  Uiso   1.00
C60    C     0.41558   0.86543   0.48364   0.00000  Uiso   1.00
C61    C     0.38162   0.74186   0.52675   0.00000  Uiso   1.00
C62    C     0.35306   0.74732   0.60391   0.00000  Uiso   1.00
C63    C     0.32446   0.62277   0.63253   0.00000  Uiso   1.00
C64    C     0.38162   0.88355   0.40107   0.00000  Uiso   1.00
C65    C     0.35309   0.00816   0.37256   0.00000  Uiso   1.00
C66    C     0.32450   0.00291   0.29537   0.00000  Uiso   1.00
C67    C     0.48347   0.81268   0.46391   0.00000  Uiso   1.00
C68    C     0.54057   0.87772   0.48821   0.00000  Uiso   1.00
C69    C     0.59773   0.81282   0.46390   0.00000  Uiso   1.00
H70    H     0.41556   0.53690   0.36073   0.00000  Uiso   1.00
H71    H     0.35305   0.39483   0.47201   0.00000  Uiso   1.00
H72    H     0.35308   0.65563   0.24069   0.00000  Uiso   1.00
H73    H     0.54053   0.52521   0.35632   0.00000  Uiso   1.00
H74    H     0.28373   0.29264   0.61606   0.00000  Uiso   1.00
H75    H     0.28382   0.84257   0.12829   0.00000  Uiso   1.00
H76    H     0.67909   0.56756   0.37213   0.00000  Uiso   1.00
H77    H     0.41558   0.96308   0.52017   0.00000  Uiso   1.00
H78    H     0.35307   0.84439   0.64021   0.00000  Uiso   1.00
H79    H     0.35310   0.10519   0.40888   0.00000  Uiso   1.00
H80    H     0.54055   0.97477   0.52452   0.00000  Uiso   1.00
H81    H     0.28374   0.65752   0.75257   0.00000  Uiso   1.00
H82    H     0.28383   0.20745   0.26480   0.00000  Uiso   1.00
H83    H     0.67911   0.93244   0.50865   0.00000  Uiso   1.00
O84    O     0.24260   0.38932   0.76039   0.00000  Uiso   1.00
O85    O     0.24273   0.11082   0.12045   0.00000  Uiso   1.00
O86    O     0.76132   0.75000   0.44037   0.00000  Uiso   1.00
N87    N     0.29232   0.39479   0.63172   0.00000  Uiso   1.00
N88    N     0.29239   0.90894   0.17570   0.00000  Uiso   1.00
N89    N     0.66194   0.65185   0.40364   0.00000  Uiso   1.00
N90    N     0.29233   0.59113   0.70518   0.00000  Uiso   1.00
N91    N     0.29240   0.10528   0.24915   0.00000  Uiso   1.00
N92    N     0.66195   0.84818   0.47710   0.00000  Uiso   1.00
C93    C     0.08444   0.63453   0.89726   0.00000  Uiso   1.00
C94    C     0.11839   0.61644   0.97983   0.00000  Uiso   1.00
C95    C     0.14695   0.49186   0.00834   0.00000  Uiso   1.00
C96    C     0.17555   0.49713   0.08552   0.00000  Uiso   1.00
C97    C     0.22830   0.44997   0.20658   0.00000  Uiso   1.00
C98    C     0.11838   0.75814   0.85415   0.00000  Uiso   1.00
C99    C     0.14693   0.75270   0.77698   0.00000  Uiso   1.00
C100   C     0.17550   0.87726   0.74837   0.00000  Uiso   1.00
C101   C     0.22820   0.05012   0.67428   0.00000  Uiso   1.00
C102   C     0.01654   0.68727   0.91699   0.00000  Uiso   1.00
C103   C     0.95944   0.62226   0.89263   0.00000  Uiso   1.00
C104   C     0.90227   0.68718   0.91690   0.00000  Uiso   1.00
C105   C     0.79684   0.75000   0.94037   0.00000  Uiso   1.00
C106   C     0.08442   0.86543   0.98364   0.00000  Uiso   1.00
C107   C     0.11838   0.74186   0.02675   0.00000  Uiso   1.00
C108   C     0.14694   0.74732   0.10391   0.00000  Uiso   1.00
C109   C     0.17554   0.62277   0.13253   0.00000  Uiso   1.00
C110   C     0.11838   0.88355   0.90107   0.00000  Uiso   1.00
C111   C     0.14691   0.00816   0.87256   0.00000  Uiso   1.00
C112   C     0.17550   0.00291   0.79537   0.00000  Uiso   1.00
C113   C     0.01653   0.81268   0.96391   0.00000  Uiso   1.00
C114   C     0.95943   0.87772   0.98821   0.00000  Uiso   1.00
C115   C     0.90227   0.81282   0.96390   0.00000  Uiso   1.00
H116   H     0.08444   0.53690   0.86073   0.00000  Uiso   1.00
H117   H     0.14695   0.39483   0.97201   0.00000  Uiso   1.00
H118   H     0.14692   0.65563   0.74069   0.00000  Uiso   1.00
H119   H     0.95947   0.52521   0.85632   0.00000  Uiso   1.00
H120   H     0.21627   0.29264   0.11606   0.00000  Uiso   1.00
H121   H     0.21618   0.84257   0.62829   0.00000  Uiso   1.00
H122   H     0.82091   0.56756   0.87213   0.00000  Uiso   1.00
H123   H     0.08442   0.96308   0.02017   0.00000  Uiso   1.00
H124   H     0.14693   0.84439   0.14021   0.00000  Uiso   1.00
H125   H     0.14690   0.10519   0.90888   0.00000  Uiso   1.00
H126   H     0.95945   0.97477   0.02452   0.00000  Uiso   1.00
H127   H     0.21626   0.65752   0.25257   0.00000  Uiso   1.00
H128   H     0.21617   0.20745   0.76480   0.00000  Uiso   1.00
H129   H     0.82089   0.93244   0.00865   0.00000  Uiso   1.00
O130   O     0.25740   0.38932   0.26039   0.00000  Uiso   1.00
O131   O     0.25727   0.11082   0.62045   0.00000  Uiso   1.00
O132   O     0.73868   0.75000   0.94037   0.00000  Uiso   1.00
N133   N     0.20768   0.39479   0.13172   0.00000  Uiso   1.00
N134   N     0.20761   0.90894   0.67570   0.00000  Uiso   1.00
N135   N     0.83806   0.65185   0.90364   0.00000  Uiso   1.00
N136   N     0.20767   0.59113   0.20518   0.00000  Uiso   1.00
N137   N     0.20760   0.10528   0.74915   0.00000  Uiso   1.00
N138   N     0.83805   0.84818   0.97710   0.00000  Uiso   1.00
C139   C     0.91556   0.36547   0.39726   0.00000  Uiso   1.00
C140   C     0.88161   0.38356   0.47983   0.00000  Uiso   1.00
C141   C     0.85305   0.50814   0.50834   0.00000  Uiso   1.00
C142   C     0.82445   0.50287   0.58552   0.00000  Uiso   1.00
C143   C     0.77170   0.55003   0.70658   0.00000  Uiso   1.00
C144   C     0.88162   0.24186   0.35415   0.00000  Uiso   1.00
C145   C     0.85307   0.24730   0.27698   0.00000  Uiso   1.00
C146   C     0.82450   0.12274   0.24837   0.00000  Uiso   1.00
C147   C     0.77180   0.94988   0.17428   0.00000  Uiso   1.00
C148   C     0.98346   0.31273   0.41699   0.00000  Uiso   1.00
C149   C     0.04056   0.37774   0.39263   0.00000  Uiso   1.00
C150   C     0.09773   0.31282   0.41690   0.00000  Uiso   1.00
C151   C     0.20316   0.25000   0.44037   0.00000  Uiso   1.00
C152   C     0.91558   0.13457   0.48364   0.00000  Uiso   1.00
C153   C     0.88162   0.25814   0.52675   0.00000  Uiso   1.00
C154   C     0.85306   0.25268   0.60391   0.00000  Uiso   1.00
C155   C     0.82446   0.37723   0.63253   0.00000  Uiso   1.00
C156   C     0.88162   0.11645   0.40107   0.00000  Uiso   1.00
C157   C     0.85309   0.99184   0.37256   0.00000  Uiso   1.00
C158   C     0.82450   0.99709   0.29537   0.00000  Uiso   1.00
C159   C     0.98347   0.18732   0.46391   0.00000  Uiso   1.00
C160   C     0.04057   0.12228   0.48821   0.00000  Uiso   1.00
C161   C     0.09773   0.18718   0.46390   0.00000  Uiso   1.00
H162   H     0.91556   0.46310   0.36073   0.00000  Uiso   1.00
H163   H     0.85305   0.60517   0.47201   0.00000  Uiso   1.00
H164   H     0.85308   0.34437   0.24069   0.00000  Uiso   1.00
H165   H     0.04053   0.47479   0.35632   0.00000  Uiso   1.00
H166   H     0.78373   0.70736   0.61606   0.00000  Uiso   1.00
H167   H     0.78382   0.15743   0.12829   0.00000  Uiso   1.00
H168   H     0.17909   0.43244   0.37213   0.00000  Uiso   1.00
H169   H     0.91558   0.03692   0.52017   0.00000  Uiso   1.00
H170   H     0.85307   0.15561   0.64021   0.00000  Uiso   1.00
H171   H     0.85310   0.89481   0.40888   0.00000  Uiso   1.00
H172   H     0.04055   0.02523   0.52452   0.00000  Uiso   1.00
H173   H     0.78374   0.34248   0.75257   0.00000  Uiso   1.00
H174   H     0.78383   0.79255   0.26480   0.00000  Uiso   1.00
H175   H     0.17911   0.06756   0.50865   0.00000  Uiso   1.00
O176   O     0.74260   0.61068   0.76039   0.00000  Uiso   1.00
O177   O     0.74273   0.88918   0.12045   0.00000  Uiso   1.00
O178   O     0.26132   0.25000   0.44037   0.00000  Uiso   1.00
N179   N     0.79232   0.60521   0.63172   0.00000  Uiso   1.00
N180   N     0.79239   0.09106   0.17570   0.00000  Uiso   1.00
N181   N     0.16194   0.34815   0.40364   0.00000  Uiso   1.00
N182   N     0.79233   0.40887   0.70518   0.00000  Uiso   1.00
N183   N     0.79240   0.89472   0.24915   0.00000  Uiso   1.00
N184   N     0.16195   0.15182   0.47710   0.00000  Uiso   1.00
