data_job_01026
_audit_creation_date              2018-12-19
_audit_creation_method            'Materials Studio'
_symmetry_space_group_name_H-M    'P1'
_symmetry_Int_Tables_number       1
_symmetry_cell_setting            triclinic
loop_
_symmetry_equiv_pos_as_xyz
  x,y,z
_cell_length_a                    21.4117
_cell_length_b                    12.1170
_cell_length_c                    23.7244
_cell_angle_alpha                 90.0000
_cell_angle_beta                  90.0000
_cell_angle_gamma                 90.0000
loop_
_atom_site_label
_atom_site_type_symbol
_atom_site_fract_x
_atom_site_fract_y
_atom_site_fract_z
_atom_site_U_iso_or_equiv
_atom_site_adp_type
_atom_site_occupancy
C1     C     0.22661   0.89016   0.43085   0.00000  Uiso   1.00
C2     C     0.22494   0.95286   0.37514   0.00000  Uiso   1.00
C3     C     0.26097   0.92956   0.32800   0.00000  Uiso   1.00
C4     C     0.25255   0.99661   0.28116   0.00000  Uiso   1.00
C5     C     0.25650   0.08075   0.19461   0.00000  Uiso   1.00
C6     C     0.24088   0.97583   0.47614   0.00000  Uiso   1.00
C7     C     0.29031   0.97183   0.51392   0.00000  Uiso   1.00
C8     C     0.29530   0.05822   0.55211   0.00000  Uiso   1.00
C9     C     0.32397   0.17798   0.62239   0.00000  Uiso   1.00
C10    C     0.15987   0.85178   0.44172   0.00000  Uiso   1.00
C11    C     0.14118   0.74349   0.45057   0.00000  Uiso   1.00
C12    C     0.07797   0.72544   0.45978   0.00000  Uiso   1.00
C13    C     0.98086   0.65259   0.47662   0.00000  Uiso   1.00
C14    C     0.14757   0.05067   0.43149   0.00000  Uiso   1.00
C15    C     0.18200   0.04005   0.37549   0.00000  Uiso   1.00
C16    C     0.17352   0.10715   0.32871   0.00000  Uiso   1.00
C17    C     0.20954   0.08395   0.28151   0.00000  Uiso   1.00
C18    C     0.19795   0.06302   0.47649   0.00000  Uiso   1.00
C19    C     0.20286   0.14943   0.51463   0.00000  Uiso   1.00
C20    C     0.25229   0.14556   0.55246   0.00000  Uiso   1.00
C21    C     0.11693   0.93897   0.44206   0.00000  Uiso   1.00
C22    C     0.05373   0.92108   0.45127   0.00000  Uiso   1.00
C23    C     0.03496   0.81278   0.46013   0.00000  Uiso   1.00
H24    H     0.26004   0.82228   0.43059   0.00000  Uiso   1.00
H25    H     0.29420   0.86209   0.32775   0.00000  Uiso   1.00
H26    H     0.32353   0.90435   0.51365   0.00000  Uiso   1.00
H27    H     0.17442   0.67604   0.45030   0.00000  Uiso   1.00
H28    H     0.31315   0.94469   0.21390   0.00000  Uiso   1.00
H29    H     0.37498   0.03378   0.60588   0.00000  Uiso   1.00
H30    H     0.06056   0.55235   0.47230   0.00000  Uiso   1.00
H31    H     0.11414   0.11855   0.43177   0.00000  Uiso   1.00
H32    H     0.14029   0.17462   0.32899   0.00000  Uiso   1.00
H33    H     0.16962   0.21688   0.51489   0.00000  Uiso   1.00
H34    H     0.02052   0.98857   0.45154   0.00000  Uiso   1.00
H35    H     0.18824   0.19836   0.21491   0.00000  Uiso   1.00
H36    H     0.25007   0.28744   0.60690   0.00000  Uiso   1.00
H37    H     0.93565   0.80601   0.47331   0.00000  Uiso   1.00
O38    O     0.27054   0.10308   0.14678   0.00000  Uiso   1.00
O39    O     0.35165   0.21995   0.66106   0.00000  Uiso   1.00
O40    O     0.93915   0.58832   0.48580   0.00000  Uiso   1.00
N41    N     0.28015   0.99669   0.22824   0.00000  Uiso   1.00
N42    N     0.33797   0.07999   0.59471   0.00000  Uiso   1.00
N43    N     0.04402   0.62989   0.46984   0.00000  Uiso   1.00
N44    N     0.21294   0.13318   0.22878   0.00000  Uiso   1.00
N45    N     0.27075   0.21648   0.59526   0.00000  Uiso   1.00
N46    N     0.97680   0.76639   0.47038   0.00000  Uiso   1.00
C47    C     0.27339   0.60984   0.93085   0.00000  Uiso   1.00
C48    C     0.27506   0.54714   0.87514   0.00000  Uiso   1.00
C49    C     0.23903   0.57044   0.82800   0.00000  Uiso   1.00
C50    C     0.24745   0.50339   0.78116   0.00000  Uiso   1.00
C51    C     0.24350   0.41925   0.69461   0.00000  Uiso   1.00
C52    C     0.25912   0.52417   0.97614   0.00000  Uiso   1.00
C53    C     0.20969   0.52817   0.01392   0.00000  Uiso   1.00
C54    C     0.20470   0.44178   0.05211   0.00000  Uiso   1.00
C55    C     0.17603   0.32202   0.12239   0.00000  Uiso   1.00
C56    C     0.34013   0.64822   0.94172   0.00000  Uiso   1.00
C57    C     0.35882   0.75651   0.95057   0.00000  Uiso   1.00
C58    C     0.42203   0.77456   0.95978   0.00000  Uiso   1.00
C59    C     0.51914   0.84741   0.97662   0.00000  Uiso   1.00
C60    C     0.35243   0.44933   0.93149   0.00000  Uiso   1.00
C61    C     0.31800   0.45995   0.87549   0.00000  Uiso   1.00
C62    C     0.32648   0.39285   0.82871   0.00000  Uiso   1.00
C63    C     0.29046   0.41605   0.78151   0.00000  Uiso   1.00
C64    C     0.30205   0.43698   0.97649   0.00000  Uiso   1.00
C65    C     0.29714   0.35057   0.01463   0.00000  Uiso   1.00
C66    C     0.24771   0.35444   0.05246   0.00000  Uiso   1.00
C67    C     0.38307   0.56103   0.94206   0.00000  Uiso   1.00
C68    C     0.44627   0.57892   0.95127   0.00000  Uiso   1.00
C69    C     0.46504   0.68722   0.96013   0.00000  Uiso   1.00
H70    H     0.23996   0.67772   0.93059   0.00000  Uiso   1.00
H71    H     0.20580   0.63791   0.82775   0.00000  Uiso   1.00
H72    H     0.17647   0.59565   0.01365   0.00000  Uiso   1.00
H73    H     0.32558   0.82396   0.95030   0.00000  Uiso   1.00
H74    H     0.18685   0.55531   0.71390   0.00000  Uiso   1.00
H75    H     0.12502   0.46622   0.10588   0.00000  Uiso   1.00
H76    H     0.43944   0.94765   0.97230   0.00000  Uiso   1.00
H77    H     0.38586   0.38145   0.93177   0.00000  Uiso   1.00
H78    H     0.35971   0.32538   0.82899   0.00000  Uiso   1.00
H79    H     0.33038   0.28312   0.01489   0.00000  Uiso   1.00
H80    H     0.47948   0.51143   0.95154   0.00000  Uiso   1.00
H81    H     0.31176   0.30164   0.71491   0.00000  Uiso   1.00
H82    H     0.24993   0.21256   0.10690   0.00000  Uiso   1.00
H83    H     0.56435   0.69399   0.97331   0.00000  Uiso   1.00
O84    O     0.22946   0.39692   0.64678   0.00000  Uiso   1.00
O85    O     0.14835   0.28005   0.16106   0.00000  Uiso   1.00
O86    O     0.56085   0.91168   0.98580   0.00000  Uiso   1.00
N87    N     0.21985   0.50331   0.72824   0.00000  Uiso   1.00
N88    N     0.16203   0.42001   0.09471   0.00000  Uiso   1.00
N89    N     0.45598   0.87011   0.96984   0.00000  Uiso   1.00
N90    N     0.28706   0.36682   0.72878   0.00000  Uiso   1.00
N91    N     0.22925   0.28352   0.09526   0.00000  Uiso   1.00
N92    N     0.52320   0.73361   0.97038   0.00000  Uiso   1.00
C93    C     0.77339   0.89016   0.06915   0.00000  Uiso   1.00
C94    C     0.77506   0.95286   0.12486   0.00000  Uiso   1.00
C95    C     0.73903   0.92956   0.17200   0.00000  Uiso   1.00
C96    C     0.74745   0.99661   0.21884   0.00000  Uiso   1.00
C97    C     0.74350   0.08075   0.30539   0.00000  Uiso   1.00
C98    C     0.75912   0.97583   0.02386   0.00000  Uiso   1.00
C99    C     0.70969   0.97183   0.98608   0.00000  Uiso   1.00
C100   C     0.70470   0.05822   0.94789   0.00000  Uiso   1.00
C101   C     0.67603   0.17798   0.87761   0.00000  Uiso   1.00
C102   C     0.84013   0.85178   0.05828   0.00000  Uiso   1.00
C103   C     0.85882   0.74349   0.04943   0.00000  Uiso   1.00
C104   C     0.92203   0.72544   0.04022   0.00000  Uiso   1.00
C105   C     0.01914   0.65259   0.02338   0.00000  Uiso   1.00
C106   C     0.85243   0.05067   0.06851   0.00000  Uiso   1.00
C107   C     0.81800   0.04005   0.12451   0.00000  Uiso   1.00
C108   C     0.82648   0.10715   0.17129   0.00000  Uiso   1.00
C109   C     0.79046   0.08395   0.21849   0.00000  Uiso   1.00
C110   C     0.80205   0.06302   0.02351   0.00000  Uiso   1.00
C111   C     0.79714   0.14943   0.98537   0.00000  Uiso   1.00
C112   C     0.74771   0.14556   0.94754   0.00000  Uiso   1.00
C113   C     0.88307   0.93897   0.05794   0.00000  Uiso   1.00
C114   C     0.94627   0.92108   0.04873   0.00000  Uiso   1.00
C115   C     0.96504   0.81278   0.03987   0.00000  Uiso   1.00
H116   H     0.73996   0.82228   0.06941   0.00000  Uiso   1.00
H117   H     0.70580   0.86209   0.17225   0.00000  Uiso   1.00
H118   H     0.67647   0.90435   0.98635   0.00000  Uiso   1.00
H119   H     0.82558   0.67604   0.04970   0.00000  Uiso   1.00
H120   H     0.68685   0.94469   0.28610   0.00000  Uiso   1.00
H121   H     0.62502   0.03378   0.89412   0.00000  Uiso   1.00
H122   H     0.93944   0.55235   0.02770   0.00000  Uiso   1.00
H123   H     0.88586   0.11855   0.06823   0.00000  Uiso   1.00
H124   H     0.85971   0.17462   0.17101   0.00000  Uiso   1.00
H125   H     0.83038   0.21688   0.98511   0.00000  Uiso   1.00
H126   H     0.97948   0.98857   0.04846   0.00000  Uiso   1.00
H127   H     0.81176   0.19836   0.28509   0.00000  Uiso   1.00
H128   H     0.74993   0.28744   0.89310   0.00000  Uiso   1.00
H129   H     0.06435   0.80601   0.02669   0.00000  Uiso   1.00
O130   O     0.72946   0.10308   0.35322   0.00000  Uiso   1.00
O131   O     0.64835   0.21995   0.83894   0.00000  Uiso   1.00
O132   O     0.06085   0.58832   0.01420   0.00000  Uiso   1.00
N133   N     0.71985   0.99669   0.27176   0.00000  Uiso   1.00
N134   N     0.66203   0.07999   0.90529   0.00000  Uiso   1.00
N135   N     0.95598   0.62989   0.03016   0.00000  Uiso   1.00
N136   N     0.78706   0.13318   0.27122   0.00000  Uiso   1.00
N137   N     0.72925   0.21648   0.90474   0.00000  Uiso   1.00
N138   N     0.02320   0.76639   0.02962   0.00000  Uiso   1.00
C139   C     0.72661   0.60984   0.56915   0.00000  Uiso   1.00
C140   C     0.72494   0.54714   0.62486   0.00000  Uiso   1.00
C141   C     0.76097   0.57044   0.67200   0.00000  Uiso   1.00
C142   C     0.75255   0.50339   0.71884   0.00000  Uiso   1.00
C143   C     0.75650   0.41925   0.80539   0.00000  Uiso   1.00
C144   C     0.74088   0.52417   0.52386   0.00000  Uiso   1.00
C145   C     0.79031   0.52817   0.48608   0.00000  Uiso   1.00
C146   C     0.79530   0.44178   0.44789   0.00000  Uiso   1.00
C147   C     0.82397   0.32202   0.37761   0.00000  Uiso   1.00
C148   C     0.65987   0.64822   0.55828   0.00000  Uiso   1.00
C149   C     0.64118   0.75651   0.54943   0.00000  Uiso   1.00
C150   C     0.57797   0.77456   0.54022   0.00000  Uiso   1.00
C151   C     0.48086   0.84741   0.52338   0.00000  Uiso   1.00
C152   C     0.64757   0.44933   0.56851   0.00000  Uiso   1.00
C153   C     0.68200   0.45995   0.62451   0.00000  Uiso   1.00
C154   C     0.67352   0.39285   0.67129   0.00000  Uiso   1.00
C155   C     0.70954   0.41605   0.71849   0.00000  Uiso   1.00
C156   C     0.69795   0.43698   0.52351   0.00000  Uiso   1.00
C157   C     0.70286   0.35057   0.48537   0.00000  Uiso   1.00
C158   C     0.75229   0.35444   0.44754   0.00000  Uiso   1.00
C159   C     0.61693   0.56103   0.55794   0.00000  Uiso   1.00
C160   C     0.55373   0.57892   0.54873   0.00000  Uiso   1.00
C161   C     0.53496   0.68722   0.53987   0.00000  Uiso   1.00
H162   H     0.76004   0.67772   0.56941   0.00000  Uiso   1.00
H163   H     0.79420   0.63791   0.67225   0.00000  Uiso   1.00
H164   H     0.82353   0.59565   0.48635   0.00000  Uiso   1.00
H165   H     0.67442   0.82396   0.54970   0.00000  Uiso   1.00
H166   H     0.81315   0.55531   0.78610   0.00000  Uiso   1.00
H167   H     0.87498   0.46622   0.39412   0.00000  Uiso   1.00
H168   H     0.56056   0.94765   0.52770   0.00000  Uiso   1.00
H169   H     0.61414   0.38145   0.56823   0.00000  Uiso   1.00
H170   H     0.64029   0.32538   0.67101   0.00000  Uiso   1.00
H171   H     0.66962   0.28312   0.48511   0.00000  Uiso   1.00
H172   H     0.52052   0.51143   0.54846   0.00000  Uiso   1.00
H173   H     0.68824   0.30164   0.78509   0.00000  Uiso   1.00
H174   H     0.75007   0.21256   0.39310   0.00000  Uiso   1.00
H175   H     0.43565   0.69399   0.52669   0.00000  Uiso   1.00
O176   O     0.77054   0.39692   0.85322   0.00000  Uiso   1.00
O177   O     0.85165   0.28005   0.33894   0.00000  Uiso   1.00
O178   O     0.43915   0.91168   0.51420   0.00000  Uiso   1.00
N179   N     0.78015   0.50331   0.77176   0.00000  Uiso   1.00
N180   N     0.83797   0.42001   0.40529   0.00000  Uiso   1.00
N181   N     0.54402   0.87011   0.53016   0.00000  Uiso   1.00
N182   N     0.71294   0.36682   0.77122   0.00000  Uiso   1.00
N183   N     0.77075   0.28352   0.40474   0.00000  Uiso   1.00
N184   N     0.47680   0.73361   0.52962   0.00000  Uiso   1.00
C185   C     0.77339   0.10984   0.56915   0.00000  Uiso   1.00
C186   C     0.77506   0.04714   0.62486   0.00000  Uiso   1.00
C187   C     0.73903   0.07044   0.67200   0.00000  Uiso   1.00
C188   C     0.74745   0.00339   0.71884   0.00000  Uiso   1.00
C189   C     0.74350   0.91925   0.80539   0.00000  Uiso   1.00
C190   C     0.75912   0.02417   0.52386   0.00000  Uiso   1.00
C191   C     0.70969   0.02817   0.48608   0.00000  Uiso   1.00
C192   C     0.70470   0.94178   0.44789   0.00000  Uiso   1.00
C193   C     0.67603   0.82202   0.37761   0.00000  Uiso   1.00
C194   C     0.84013   0.14822   0.55828   0.00000  Uiso   1.00
C195   C     0.85882   0.25651   0.54943   0.00000  Uiso   1.00
C196   C     0.92203   0.27456   0.54022   0.00000  Uiso   1.00
C197   C     0.01914   0.34741   0.52338   0.00000  Uiso   1.00
C198   C     0.85243   0.94933   0.56851   0.00000  Uiso   1.00
C199   C     0.81800   0.95995   0.62451   0.00000  Uiso   1.00
C200   C     0.82648   0.89285   0.67129   0.00000  Uiso   1.00
C201   C     0.79046   0.91605   0.71849   0.00000  Uiso   1.00
C202   C     0.80205   0.93698   0.52351   0.00000  Uiso   1.00
C203   C     0.79714   0.85057   0.48537   0.00000  Uiso   1.00
C204   C     0.74771   0.85444   0.44754   0.00000  Uiso   1.00
C205   C     0.88307   0.06103   0.55794   0.00000  Uiso   1.00
C206   C     0.94627   0.07892   0.54873   0.00000  Uiso   1.00
C207   C     0.96504   0.18722   0.53987   0.00000  Uiso   1.00
H208   H     0.73996   0.17772   0.56941   0.00000  Uiso   1.00
H209   H     0.70580   0.13791   0.67225   0.00000  Uiso   1.00
H210   H     0.67647   0.09565   0.48635   0.00000  Uiso   1.00
H211   H     0.82558   0.32396   0.54970   0.00000  Uiso   1.00
H212   H     0.68685   0.05531   0.78610   0.00000  Uiso   1.00
H213   H     0.62502   0.96622   0.39412   0.00000  Uiso   1.00
H214   H     0.93944   0.44765   0.52770   0.00000  Uiso   1.00
H215   H     0.88586   0.88145   0.56823   0.00000  Uiso   1.00
H216   H     0.85971   0.82538   0.67101   0.00000  Uiso   1.00
H217   H     0.83038   0.78312   0.48511   0.00000  Uiso   1.00
H218   H     0.97948   0.01143   0.54846   0.00000  Uiso   1.00
H219   H     0.81176   0.80164   0.78509   0.00000  Uiso   1.00
H220   H     0.74993   0.71256   0.39310   0.00000  Uiso   1.00
H221   H     0.06435   0.19399   0.52669   0.00000  Uiso   1.00
O222   O     0.72946   0.89692   0.85322   0.00000  Uiso   1.00
O223   O     0.64835   0.78005   0.33894   0.00000  Uiso   1.00
O224   O     0.06085   0.41168   0.51420   0.00000  Uiso   1.00
N225   N     0.71985   0.00331   0.77176   0.00000  Uiso   1.00
N226   N     0.66203   0.92001   0.40529   0.00000  Uiso   1.00
N227   N     0.95598   0.37011   0.53016   0.00000  Uiso   1.00
N228   N     0.78706   0.86682   0.77122   0.00000  Uiso   1.00
N229   N     0.72925   0.78352   0.40474   0.00000  Uiso   1.00
N230   N     0.02320   0.23361   0.52962   0.00000  Uiso   1.00
C231   C     0.72661   0.39016   0.06915   0.00000  Uiso   1.00
C232   C     0.72494   0.45286   0.12486   0.00000  Uiso   1.00
C233   C     0.76097   0.42956   0.17200   0.00000  Uiso   1.00
C234   C     0.75255   0.49661   0.21884   0.00000  Uiso   1.00
C235   C     0.75650   0.58075   0.30539   0.00000  Uiso   1.00
C236   C     0.74088   0.47583   0.02386   0.00000  Uiso   1.00
C237   C     0.79031   0.47183   0.98608   0.00000  Uiso   1.00
C238   C     0.79530   0.55822   0.94789   0.00000  Uiso   1.00
C239   C     0.82397   0.67798   0.87761   0.00000  Uiso   1.00
C240   C     0.65987   0.35178   0.05828   0.00000  Uiso   1.00
C241   C     0.64118   0.24349   0.04943   0.00000  Uiso   1.00
C242   C     0.57797   0.22544   0.04022   0.00000  Uiso   1.00
C243   C     0.48086   0.15259   0.02338   0.00000  Uiso   1.00
C244   C     0.64757   0.55067   0.06851   0.00000  Uiso   1.00
C245   C     0.68200   0.54005   0.12451   0.00000  Uiso   1.00
C246   C     0.67352   0.60715   0.17129   0.00000  Uiso   1.00
C247   C     0.70954   0.58395   0.21849   0.00000  Uiso   1.00
C248   C     0.69795   0.56302   0.02351   0.00000  Uiso   1.00
C249   C     0.70286   0.64943   0.98537   0.00000  Uiso   1.00
C250   C     0.75229   0.64556   0.94754   0.00000  Uiso   1.00
C251   C     0.61693   0.43897   0.05794   0.00000  Uiso   1.00
C252   C     0.55373   0.42108   0.04873   0.00000  Uiso   1.00
C253   C     0.53496   0.31278   0.03987   0.00000  Uiso   1.00
H254   H     0.76004   0.32228   0.06941   0.00000  Uiso   1.00
H255   H     0.79420   0.36209   0.17225   0.00000  Uiso   1.00
H256   H     0.82353   0.40435   0.98635   0.00000  Uiso   1.00
H257   H     0.67442   0.17604   0.04970   0.00000  Uiso   1.00
H258   H     0.81315   0.44469   0.28610   0.00000  Uiso   1.00
H259   H     0.87498   0.53378   0.89412   0.00000  Uiso   1.00
H260   H     0.56056   0.05235   0.02770   0.00000  Uiso   1.00
H261   H     0.61414   0.61855   0.06823   0.00000  Uiso   1.00
H262   H     0.64029   0.67462   0.17101   0.00000  Uiso   1.00
H263   H     0.66962   0.71688   0.98511   0.00000  Uiso   1.00
H264   H     0.52052   0.48857   0.04846   0.00000  Uiso   1.00
H265   H     0.68824   0.69836   0.28509   0.00000  Uiso   1.00
H266   H     0.75007   0.78744   0.89310   0.00000  Uiso   1.00
H267   H     0.43565   0.30601   0.02669   0.00000  Uiso   1.00
O268   O     0.77054   0.60308   0.35322   0.00000  Uiso   1.00
O269   O     0.85165   0.71995   0.83894   0.00000  Uiso   1.00
O270   O     0.43915   0.08832   0.01420   0.00000  Uiso   1.00
N271   N     0.78015   0.49669   0.27176   0.00000  Uiso   1.00
N272   N     0.83797   0.57999   0.90529   0.00000  Uiso   1.00
N273   N     0.54402   0.12989   0.03016   0.00000  Uiso   1.00
N274   N     0.71294   0.63318   0.27122   0.00000  Uiso   1.00
N275   N     0.77075   0.71648   0.90474   0.00000  Uiso   1.00
N276   N     0.47680   0.26639   0.02962   0.00000  Uiso   1.00
C277   C     0.22661   0.10984   0.93085   0.00000  Uiso   1.00
C278   C     0.22494   0.04714   0.87514   0.00000  Uiso   1.00
C279   C     0.26097   0.07044   0.82800   0.00000  Uiso   1.00
C280   C     0.25255   0.00339   0.78116   0.00000  Uiso   1.00
C281   C     0.25650   0.91925   0.69461   0.00000  Uiso   1.00
C282   C     0.24088   0.02417   0.97614   0.00000  Uiso   1.00
C283   C     0.29031   0.02817   0.01392   0.00000  Uiso   1.00
C284   C     0.29530   0.94178   0.05211   0.00000  Uiso   1.00
C285   C     0.32397   0.82202   0.12239   0.00000  Uiso   1.00
C286   C     0.15987   0.14822   0.94172   0.00000  Uiso   1.00
C287   C     0.14118   0.25651   0.95057   0.00000  Uiso   1.00
C288   C     0.07797   0.27456   0.95978   0.00000  Uiso   1.00
C289   C     0.98086   0.34741   0.97662   0.00000  Uiso   1.00
C290   C     0.14757   0.94933   0.93149   0.00000  Uiso   1.00
C291   C     0.18200   0.95995   0.87549   0.00000  Uiso   1.00
C292   C     0.17352   0.89285   0.82871   0.00000  Uiso   1.00
C293   C     0.20954   0.91605   0.78151   0.00000  Uiso   1.00
C294   C     0.19795   0.93698   0.97649   0.00000  Uiso   1.00
C295   C     0.20286   0.85057   0.01463   0.00000  Uiso   1.00
C296   C     0.25229   0.85444   0.05246   0.00000  Uiso   1.00
C297   C     0.11693   0.06103   0.94206   0.00000  Uiso   1.00
C298   C     0.05373   0.07892   0.95127   0.00000  Uiso   1.00
C299   C     0.03496   0.18722   0.96013   0.00000  Uiso   1.00
H300   H     0.26004   0.17772   0.93059   0.00000  Uiso   1.00
H301   H     0.29420   0.13791   0.82775   0.00000  Uiso   1.00
H302   H     0.32353   0.09565   0.01365   0.00000  Uiso   1.00
H303   H     0.17442   0.32396   0.95030   0.00000  Uiso   1.00
H304   H     0.31315   0.05531   0.71390   0.00000  Uiso   1.00
H305   H     0.37498   0.96622   0.10588   0.00000  Uiso   1.00
H306   H     0.06056   0.44765   0.97230   0.00000  Uiso   1.00
H307   H     0.11414   0.88145   0.93177   0.00000  Uiso   1.00
H308   H     0.14029   0.82538   0.82899   0.00000  Uiso   1.00
H309   H     0.16962   0.78312   0.01489   0.00000  Uiso   1.00
H310   H     0.02052   0.01143   0.95154   0.00000  Uiso   1.00
H311   H     0.18824   0.80164   0.71491   0.00000  Uiso   1.00
H312   H     0.25007   0.71256   0.10690   0.00000  Uiso   1.00
H313   H     0.93565   0.19399   0.97331   0.00000  Uiso   1.00
O314   O     0.27054   0.89692   0.64678   0.00000  Uiso   1.00
O315   O     0.35165   0.78005   0.16106   0.00000  Uiso   1.00
O316   O     0.93915   0.41168   0.98580   0.00000  Uiso   1.00
N317   N     0.28015   0.00331   0.72824   0.00000  Uiso   1.00
N318   N     0.33797   0.92001   0.09471   0.00000  Uiso   1.00
N319   N     0.04402   0.37011   0.96984   0.00000  Uiso   1.00
N320   N     0.21294   0.86682   0.72878   0.00000  Uiso   1.00
N321   N     0.27075   0.78352   0.09526   0.00000  Uiso   1.00
N322   N     0.97680   0.23361   0.97038   0.00000  Uiso   1.00
C323   C     0.27339   0.39016   0.43085   0.00000  Uiso   1.00
C324   C     0.27506   0.45286   0.37514   0.00000  Uiso   1.00
C325   C     0.23903   0.42956   0.32800   0.00000  Uiso   1.00
C326   C     0.24745   0.49661   0.28116   0.00000  Uiso   1.00
C327   C     0.24350   0.58075   0.19461   0.00000  Uiso   1.00
C328   C     0.25912   0.47583   0.47614   0.00000  Uiso   1.00
C329   C     0.20969   0.47183   0.51392   0.00000  Uiso   1.00
C330   C     0.20470   0.55822   0.55211   0.00000  Uiso   1.00
C331   C     0.17603   0.67798   0.62239   0.00000  Uiso   1.00
C332   C     0.34013   0.35178   0.44172   0.00000  Uiso   1.00
C333   C     0.35882   0.24349   0.45057   0.00000  Uiso   1.00
C334   C     0.42203   0.22544   0.45978   0.00000  Uiso   1.00
C335   C     0.51914   0.15259   0.47662   0.00000  Uiso   1.00
C336   C     0.35243   0.55067   0.43149   0.00000  Uiso   1.00
C337   C     0.31800   0.54005   0.37549   0.00000  Uiso   1.00
C338   C     0.32648   0.60715   0.32871   0.00000  Uiso   1.00
C339   C     0.29046   0.58395   0.28151   0.00000  Uiso   1.00
C340   C     0.30205   0.56302   0.47649   0.00000  Uiso   1.00
C341   C     0.29714   0.64943   0.51463   0.00000  Uiso   1.00
C342   C     0.24771   0.64556   0.55246   0.00000  Uiso   1.00
C343   C     0.38307   0.43897   0.44206   0.00000  Uiso   1.00
C344   C     0.44627   0.42108   0.45127   0.00000  Uiso   1.00
C345   C     0.46504   0.31278   0.46013   0.00000  Uiso   1.00
H346   H     0.23996   0.32228   0.43059   0.00000  Uiso   1.00
H347   H     0.20580   0.36209   0.32775   0.00000  Uiso   1.00
H348   H     0.17647   0.40435   0.51365   0.00000  Uiso   1.00
H349   H     0.32558   0.17604   0.45030   0.00000  Uiso   1.00
H350   H     0.18685   0.44469   0.21390   0.00000  Uiso   1.00
H351   H     0.12502   0.53378   0.60588   0.00000  Uiso   1.00
H352   H     0.43944   0.05235   0.47230   0.00000  Uiso   1.00
H353   H     0.38586   0.61855   0.43177   0.00000  Uiso   1.00
H354   H     0.35971   0.67462   0.32899   0.00000  Uiso   1.00
H355   H     0.33038   0.71688   0.51489   0.00000  Uiso   1.00
H356   H     0.47948   0.48857   0.45154   0.00000  Uiso   1.00
H357   H     0.31176   0.69836   0.21491   0.00000  Uiso   1.00
H358   H     0.24993   0.78744   0.60690   0.00000  Uiso   1.00
H359   H     0.56435   0.30601   0.47331   0.00000  Uiso   1.00
O360   O     0.22946   0.60308   0.14678   0.00000  Uiso   1.00
O361   O     0.14835   0.71995   0.66106   0.00000  Uiso   1.00
O362   O     0.56085   0.08832   0.48580   0.00000  Uiso   1.00
N363   N     0.21985   0.49669   0.22824   0.00000  Uiso   1.00
N364   N     0.16203   0.57999   0.59471   0.00000  Uiso   1.00
N365   N     0.45598   0.12989   0.46984   0.00000  Uiso   1.00
N366   N     0.28706   0.63318   0.22878   0.00000  Uiso   1.00
N367   N     0.22925   0.71648   0.59526   0.00000  Uiso   1.00
N368   N     0.52320   0.26639   0.47038   0.00000  Uiso   1.00
