data_job_02494
_audit_creation_date              2018-12-19
_audit_creation_method            'Materials Studio'
_symmetry_space_group_name_H-M    'P1'
_symmetry_Int_Tables_number       1
_symmetry_cell_setting            triclinic
loop_
_symmetry_equiv_pos_as_xyz
  x,y,z
_cell_length_a                    20.2626
_cell_length_b                    7.4455
_cell_length_c                    39.0713
_cell_angle_alpha                 90.0000
_cell_angle_beta                  124.2469
_cell_angle_gamma                 90.0000
loop_
_atom_site_label
_atom_site_type_symbol
_atom_site_fract_x
_atom_site_fract_y
_atom_site_fract_z
_atom_site_U_iso_or_equiv
_atom_site_adp_type
_atom_site_occupancy
C1     C     0.03716   0.26993   0.84416   0.00000  Uiso   1.00
C2     C     0.04342   0.29570   0.88461   0.00000  Uiso   1.00
C3     C     0.02400   0.16863   0.90356   0.00000  Uiso   1.00
C4     C     0.03391   0.21819   0.94045   0.00000  Uiso   1.00
C5     C     0.03936   0.23222   0.00064   0.00000  Uiso   1.00
C6     C     0.12015   0.30826   0.85409   0.00000  Uiso   1.00
C7     C     0.16525   0.19176   0.84737   0.00000  Uiso   1.00
C8     C     0.23974   0.25191   0.85856   0.00000  Uiso   1.00
C9     C     0.36429   0.28550   0.87133   0.00000  Uiso   1.00
C10    C     0.98365   0.42100   0.81558   0.00000  Uiso   1.00
C11    C     0.91397   0.39930   0.77647   0.00000  Uiso   1.00
C12    C     0.87355   0.55438   0.75522   0.00000  Uiso   1.00
C13    C     0.78615   0.76301   0.70821   0.00000  Uiso   1.00
C14    C     0.08929   0.58391   0.87597   0.00000  Uiso   1.00
C15    C     0.07173   0.46624   0.90189   0.00000  Uiso   1.00
C16    C     0.08167   0.51601   0.93875   0.00000  Uiso   1.00
C17    C     0.06227   0.38904   0.95775   0.00000  Uiso   1.00
C18    C     0.14847   0.47879   0.87137   0.00000  Uiso   1.00
C19    C     0.22291   0.53914   0.88256   0.00000  Uiso   1.00
C20    C     0.26811   0.42276   0.87586   0.00000  Uiso   1.00
C21    C     0.01195   0.59155   0.83285   0.00000  Uiso   1.00
C22    C     0.97164   0.74669   0.81166   0.00000  Uiso   1.00
C23    C     0.90191   0.72523   0.77253   0.00000  Uiso   1.00
H24    H     0.01513   0.13715   0.83071   0.00000  Uiso   1.00
H25    H     0.00210   0.03665   0.89018   0.00000  Uiso   1.00
H26    H     0.14332   0.05979   0.83400   0.00000  Uiso   1.00
H27    H     0.89208   0.26731   0.76311   0.00000  Uiso   1.00
H28    H     0.00017   0.00042   0.96375   0.00000  Uiso   1.00
H29    H     0.29792   0.04923   0.84526   0.00000  Uiso   1.00
H30    H     0.76814   0.48681   0.69578   0.00000  Uiso   1.00
H31    H     0.11133   0.71669   0.88942   0.00000  Uiso   1.00
H32    H     0.10358   0.64800   0.95211   0.00000  Uiso   1.00
H33    H     0.24480   0.67113   0.89593   0.00000  Uiso   1.00
H34    H     0.99356   0.87864   0.82504   0.00000  Uiso   1.00
H35    H     0.08254   0.49660   0.01401   0.00000  Uiso   1.00
H36    H     0.38029   0.54541   0.89553   0.00000  Uiso   1.00
H37    H     0.85051   0.98299   0.74605   0.00000  Uiso   1.00
O38    O     0.03455   0.19284   0.02907   0.00000  Uiso   1.00
O39    O     0.42518   0.25689   0.87361   0.00000  Uiso   1.00
O40    O     0.73011   0.83098   0.67750   0.00000  Uiso   1.00
N41    N     0.02061   0.12664   0.96697   0.00000  Uiso   1.00
N42    N     0.29899   0.17226   0.85620   0.00000  Uiso   1.00
N43    N     0.80370   0.58136   0.71644   0.00000  Uiso   1.00
N44    N     0.06493   0.39363   0.99402   0.00000  Uiso   1.00
N45    N     0.34331   0.43925   0.88325   0.00000  Uiso   1.00
N46    N     0.84802   0.84835   0.74349   0.00000  Uiso   1.00
C47    C     0.53716   0.76993   0.84416   0.00000  Uiso   1.00
C48    C     0.54342   0.79570   0.88461   0.00000  Uiso   1.00
C49    C     0.52400   0.66863   0.90356   0.00000  Uiso   1.00
C50    C     0.53391   0.71819   0.94045   0.00000  Uiso   1.00
C51    C     0.53936   0.73222   0.00064   0.00000  Uiso   1.00
C52    C     0.62015   0.80826   0.85409   0.00000  Uiso   1.00
C53    C     0.66525   0.69176   0.84737   0.00000  Uiso   1.00
C54    C     0.73974   0.75191   0.85856   0.00000  Uiso   1.00
C55    C     0.86429   0.78550   0.87133   0.00000  Uiso   1.00
C56    C     0.48365   0.92100   0.81558   0.00000  Uiso   1.00
C57    C     0.41397   0.89930   0.77647   0.00000  Uiso   1.00
C58    C     0.37355   0.05438   0.75522   0.00000  Uiso   1.00
C59    C     0.28615   0.26301   0.70821   0.00000  Uiso   1.00
C60    C     0.58929   0.08391   0.87597   0.00000  Uiso   1.00
C61    C     0.57173   0.96624   0.90189   0.00000  Uiso   1.00
C62    C     0.58167   0.01601   0.93875   0.00000  Uiso   1.00
C63    C     0.56227   0.88904   0.95775   0.00000  Uiso   1.00
C64    C     0.64847   0.97879   0.87137   0.00000  Uiso   1.00
C65    C     0.72291   0.03914   0.88256   0.00000  Uiso   1.00
C66    C     0.76811   0.92276   0.87586   0.00000  Uiso   1.00
C67    C     0.51195   0.09155   0.83285   0.00000  Uiso   1.00
C68    C     0.47164   0.24669   0.81166   0.00000  Uiso   1.00
C69    C     0.40191   0.22523   0.77253   0.00000  Uiso   1.00
H70    H     0.51513   0.63715   0.83071   0.00000  Uiso   1.00
H71    H     0.50210   0.53665   0.89018   0.00000  Uiso   1.00
H72    H     0.64332   0.55979   0.83400   0.00000  Uiso   1.00
H73    H     0.39208   0.76731   0.76311   0.00000  Uiso   1.00
H74    H     0.50017   0.50042   0.96375   0.00000  Uiso   1.00
H75    H     0.79792   0.54923   0.84526   0.00000  Uiso   1.00
H76    H     0.26814   0.98681   0.69578   0.00000  Uiso   1.00
H77    H     0.61133   0.21669   0.88942   0.00000  Uiso   1.00
H78    H     0.60358   0.14800   0.95211   0.00000  Uiso   1.00
H79    H     0.74480   0.17113   0.89593   0.00000  Uiso   1.00
H80    H     0.49356   0.37864   0.82504   0.00000  Uiso   1.00
H81    H     0.58254   0.99660   0.01401   0.00000  Uiso   1.00
H82    H     0.88029   0.04541   0.89553   0.00000  Uiso   1.00
H83    H     0.35051   0.48299   0.74605   0.00000  Uiso   1.00
O84    O     0.53455   0.69284   0.02907   0.00000  Uiso   1.00
O85    O     0.92518   0.75689   0.87361   0.00000  Uiso   1.00
O86    O     0.23011   0.33098   0.67750   0.00000  Uiso   1.00
N87    N     0.52061   0.62664   0.96697   0.00000  Uiso   1.00
N88    N     0.79899   0.67226   0.85620   0.00000  Uiso   1.00
N89    N     0.30370   0.08136   0.71644   0.00000  Uiso   1.00
N90    N     0.56493   0.89363   0.99402   0.00000  Uiso   1.00
N91    N     0.84331   0.93925   0.88325   0.00000  Uiso   1.00
N92    N     0.34802   0.34835   0.74349   0.00000  Uiso   1.00
C93    C     0.96284   0.26993   0.65584   0.00000  Uiso   1.00
C94    C     0.95658   0.29570   0.61539   0.00000  Uiso   1.00
C95    C     0.97600   0.16863   0.59644   0.00000  Uiso   1.00
C96    C     0.96609   0.21819   0.55955   0.00000  Uiso   1.00
C97    C     0.96064   0.23222   0.49936   0.00000  Uiso   1.00
C98    C     0.87985   0.30826   0.64591   0.00000  Uiso   1.00
C99    C     0.83475   0.19176   0.65263   0.00000  Uiso   1.00
C100   C     0.76026   0.25191   0.64144   0.00000  Uiso   1.00
C101   C     0.63571   0.28550   0.62867   0.00000  Uiso   1.00
C102   C     0.01635   0.42100   0.68442   0.00000  Uiso   1.00
C103   C     0.08603   0.39930   0.72353   0.00000  Uiso   1.00
C104   C     0.12645   0.55438   0.74478   0.00000  Uiso   1.00
C105   C     0.21385   0.76301   0.79179   0.00000  Uiso   1.00
C106   C     0.91071   0.58391   0.62403   0.00000  Uiso   1.00
C107   C     0.92827   0.46624   0.59811   0.00000  Uiso   1.00
C108   C     0.91833   0.51601   0.56125   0.00000  Uiso   1.00
C109   C     0.93773   0.38904   0.54225   0.00000  Uiso   1.00
C110   C     0.85153   0.47879   0.62863   0.00000  Uiso   1.00
C111   C     0.77709   0.53914   0.61744   0.00000  Uiso   1.00
C112   C     0.73189   0.42276   0.62414   0.00000  Uiso   1.00
C113   C     0.98805   0.59155   0.66715   0.00000  Uiso   1.00
C114   C     0.02836   0.74669   0.68834   0.00000  Uiso   1.00
C115   C     0.09809   0.72523   0.72747   0.00000  Uiso   1.00
H116   H     0.98487   0.13715   0.66929   0.00000  Uiso   1.00
H117   H     0.99790   0.03665   0.60982   0.00000  Uiso   1.00
H118   H     0.85668   0.05979   0.66600   0.00000  Uiso   1.00
H119   H     0.10792   0.26731   0.73689   0.00000  Uiso   1.00
H120   H     0.99983   0.00042   0.53625   0.00000  Uiso   1.00
H121   H     0.70208   0.04923   0.65474   0.00000  Uiso   1.00
H122   H     0.23186   0.48681   0.80422   0.00000  Uiso   1.00
H123   H     0.88867   0.71669   0.61058   0.00000  Uiso   1.00
H124   H     0.89642   0.64800   0.54789   0.00000  Uiso   1.00
H125   H     0.75520   0.67113   0.60407   0.00000  Uiso   1.00
H126   H     0.00644   0.87864   0.67496   0.00000  Uiso   1.00
H127   H     0.91746   0.49660   0.48599   0.00000  Uiso   1.00
H128   H     0.61971   0.54541   0.60447   0.00000  Uiso   1.00
H129   H     0.14949   0.98299   0.75395   0.00000  Uiso   1.00
O130   O     0.96545   0.19284   0.47093   0.00000  Uiso   1.00
O131   O     0.57482   0.25689   0.62639   0.00000  Uiso   1.00
O132   O     0.26989   0.83098   0.82250   0.00000  Uiso   1.00
N133   N     0.97939   0.12664   0.53303   0.00000  Uiso   1.00
N134   N     0.70101   0.17226   0.64380   0.00000  Uiso   1.00
N135   N     0.19630   0.58136   0.78356   0.00000  Uiso   1.00
N136   N     0.93507   0.39363   0.50598   0.00000  Uiso   1.00
N137   N     0.65669   0.43925   0.61675   0.00000  Uiso   1.00
N138   N     0.15198   0.84835   0.75651   0.00000  Uiso   1.00
C139   C     0.46284   0.76993   0.65584   0.00000  Uiso   1.00
C140   C     0.45658   0.79570   0.61539   0.00000  Uiso   1.00
C141   C     0.47600   0.66863   0.59644   0.00000  Uiso   1.00
C142   C     0.46609   0.71819   0.55955   0.00000  Uiso   1.00
C143   C     0.46064   0.73222   0.49936   0.00000  Uiso   1.00
C144   C     0.37985   0.80826   0.64591   0.00000  Uiso   1.00
C145   C     0.33475   0.69176   0.65263   0.00000  Uiso   1.00
C146   C     0.26026   0.75191   0.64144   0.00000  Uiso   1.00
C147   C     0.13571   0.78550   0.62867   0.00000  Uiso   1.00
C148   C     0.51635   0.92100   0.68442   0.00000  Uiso   1.00
C149   C     0.58603   0.89930   0.72353   0.00000  Uiso   1.00
C150   C     0.62645   0.05438   0.74478   0.00000  Uiso   1.00
C151   C     0.71385   0.26301   0.79179   0.00000  Uiso   1.00
C152   C     0.41071   0.08391   0.62403   0.00000  Uiso   1.00
C153   C     0.42827   0.96624   0.59811   0.00000  Uiso   1.00
C154   C     0.41833   0.01601   0.56125   0.00000  Uiso   1.00
C155   C     0.43773   0.88904   0.54225   0.00000  Uiso   1.00
C156   C     0.35153   0.97879   0.62863   0.00000  Uiso   1.00
C157   C     0.27709   0.03914   0.61744   0.00000  Uiso   1.00
C158   C     0.23189   0.92276   0.62414   0.00000  Uiso   1.00
C159   C     0.48805   0.09155   0.66715   0.00000  Uiso   1.00
C160   C     0.52836   0.24669   0.68834   0.00000  Uiso   1.00
C161   C     0.59809   0.22523   0.72747   0.00000  Uiso   1.00
H162   H     0.48487   0.63715   0.66929   0.00000  Uiso   1.00
H163   H     0.49790   0.53665   0.60982   0.00000  Uiso   1.00
H164   H     0.35668   0.55979   0.66600   0.00000  Uiso   1.00
H165   H     0.60792   0.76731   0.73689   0.00000  Uiso   1.00
H166   H     0.49983   0.50042   0.53625   0.00000  Uiso   1.00
H167   H     0.20208   0.54923   0.65474   0.00000  Uiso   1.00
H168   H     0.73186   0.98681   0.80422   0.00000  Uiso   1.00
H169   H     0.38867   0.21669   0.61058   0.00000  Uiso   1.00
H170   H     0.39642   0.14800   0.54789   0.00000  Uiso   1.00
H171   H     0.25520   0.17113   0.60407   0.00000  Uiso   1.00
H172   H     0.50644   0.37864   0.67496   0.00000  Uiso   1.00
H173   H     0.41746   0.99660   0.48599   0.00000  Uiso   1.00
H174   H     0.11971   0.04541   0.60447   0.00000  Uiso   1.00
H175   H     0.64949   0.48299   0.75395   0.00000  Uiso   1.00
O176   O     0.46545   0.69284   0.47093   0.00000  Uiso   1.00
O177   O     0.07482   0.75689   0.62639   0.00000  Uiso   1.00
O178   O     0.76989   0.33098   0.82250   0.00000  Uiso   1.00
N179   N     0.47939   0.62664   0.53303   0.00000  Uiso   1.00
N180   N     0.20101   0.67226   0.64380   0.00000  Uiso   1.00
N181   N     0.69630   0.08136   0.78356   0.00000  Uiso   1.00
N182   N     0.43507   0.89363   0.50598   0.00000  Uiso   1.00
N183   N     0.15669   0.93925   0.61675   0.00000  Uiso   1.00
N184   N     0.65198   0.34835   0.75651   0.00000  Uiso   1.00
C185   C     0.96284   0.73007   0.15584   0.00000  Uiso   1.00
C186   C     0.95658   0.70430   0.11539   0.00000  Uiso   1.00
C187   C     0.97600   0.83137   0.09644   0.00000  Uiso   1.00
C188   C     0.96609   0.78181   0.05955   0.00000  Uiso   1.00
C189   C     0.96064   0.76778   0.99936   0.00000  Uiso   1.00
C190   C     0.87985   0.69174   0.14591   0.00000  Uiso   1.00
C191   C     0.83475   0.80824   0.15263   0.00000  Uiso   1.00
C192   C     0.76026   0.74809   0.14144   0.00000  Uiso   1.00
C193   C     0.63571   0.71450   0.12867   0.00000  Uiso   1.00
C194   C     0.01635   0.57900   0.18442   0.00000  Uiso   1.00
C195   C     0.08603   0.60070   0.22353   0.00000  Uiso   1.00
C196   C     0.12645   0.44562   0.24478   0.00000  Uiso   1.00
C197   C     0.21385   0.23699   0.29179   0.00000  Uiso   1.00
C198   C     0.91071   0.41609   0.12403   0.00000  Uiso   1.00
C199   C     0.92827   0.53376   0.09811   0.00000  Uiso   1.00
C200   C     0.91833   0.48399   0.06125   0.00000  Uiso   1.00
C201   C     0.93773   0.61096   0.04225   0.00000  Uiso   1.00
C202   C     0.85153   0.52121   0.12863   0.00000  Uiso   1.00
C203   C     0.77709   0.46086   0.11744   0.00000  Uiso   1.00
C204   C     0.73189   0.57724   0.12414   0.00000  Uiso   1.00
C205   C     0.98805   0.40845   0.16715   0.00000  Uiso   1.00
C206   C     0.02836   0.25331   0.18834   0.00000  Uiso   1.00
C207   C     0.09809   0.27477   0.22747   0.00000  Uiso   1.00
H208   H     0.98487   0.86285   0.16929   0.00000  Uiso   1.00
H209   H     0.99790   0.96335   0.10982   0.00000  Uiso   1.00
H210   H     0.85668   0.94021   0.16600   0.00000  Uiso   1.00
H211   H     0.10792   0.73269   0.23689   0.00000  Uiso   1.00
H212   H     0.99983   0.99958   0.03625   0.00000  Uiso   1.00
H213   H     0.70208   0.95077   0.15474   0.00000  Uiso   1.00
H214   H     0.23186   0.51319   0.30422   0.00000  Uiso   1.00
H215   H     0.88867   0.28331   0.11058   0.00000  Uiso   1.00
H216   H     0.89642   0.35200   0.04789   0.00000  Uiso   1.00
H217   H     0.75520   0.32887   0.10407   0.00000  Uiso   1.00
H218   H     0.00644   0.12136   0.17496   0.00000  Uiso   1.00
H219   H     0.91746   0.50340   0.98599   0.00000  Uiso   1.00
H220   H     0.61971   0.45459   0.10447   0.00000  Uiso   1.00
H221   H     0.14949   0.01701   0.25395   0.00000  Uiso   1.00
O222   O     0.96545   0.80716   0.97093   0.00000  Uiso   1.00
O223   O     0.57482   0.74311   0.12639   0.00000  Uiso   1.00
O224   O     0.26989   0.16902   0.32250   0.00000  Uiso   1.00
N225   N     0.97939   0.87336   0.03303   0.00000  Uiso   1.00
N226   N     0.70101   0.82774   0.14380   0.00000  Uiso   1.00
N227   N     0.19630   0.41864   0.28356   0.00000  Uiso   1.00
N228   N     0.93507   0.60637   0.00598   0.00000  Uiso   1.00
N229   N     0.65669   0.56075   0.11675   0.00000  Uiso   1.00
N230   N     0.15198   0.15165   0.25651   0.00000  Uiso   1.00
C231   C     0.46284   0.23007   0.15584   0.00000  Uiso   1.00
C232   C     0.45658   0.20430   0.11539   0.00000  Uiso   1.00
C233   C     0.47600   0.33137   0.09644   0.00000  Uiso   1.00
C234   C     0.46609   0.28181   0.05955   0.00000  Uiso   1.00
C235   C     0.46064   0.26778   0.99936   0.00000  Uiso   1.00
C236   C     0.37985   0.19174   0.14591   0.00000  Uiso   1.00
C237   C     0.33475   0.30824   0.15263   0.00000  Uiso   1.00
C238   C     0.26026   0.24809   0.14144   0.00000  Uiso   1.00
C239   C     0.13571   0.21450   0.12867   0.00000  Uiso   1.00
C240   C     0.51635   0.07900   0.18442   0.00000  Uiso   1.00
C241   C     0.58603   0.10070   0.22353   0.00000  Uiso   1.00
C242   C     0.62645   0.94562   0.24478   0.00000  Uiso   1.00
C243   C     0.71385   0.73699   0.29179   0.00000  Uiso   1.00
C244   C     0.41071   0.91609   0.12403   0.00000  Uiso   1.00
C245   C     0.42827   0.03376   0.09811   0.00000  Uiso   1.00
C246   C     0.41833   0.98399   0.06125   0.00000  Uiso   1.00
C247   C     0.43773   0.11096   0.04225   0.00000  Uiso   1.00
C248   C     0.35153   0.02121   0.12863   0.00000  Uiso   1.00
C249   C     0.27709   0.96086   0.11744   0.00000  Uiso   1.00
C250   C     0.23189   0.07724   0.12414   0.00000  Uiso   1.00
C251   C     0.48805   0.90845   0.16715   0.00000  Uiso   1.00
C252   C     0.52836   0.75331   0.18834   0.00000  Uiso   1.00
C253   C     0.59809   0.77477   0.22747   0.00000  Uiso   1.00
H254   H     0.48487   0.36285   0.16929   0.00000  Uiso   1.00
H255   H     0.49790   0.46335   0.10982   0.00000  Uiso   1.00
H256   H     0.35668   0.44021   0.16600   0.00000  Uiso   1.00
H257   H     0.60792   0.23269   0.23689   0.00000  Uiso   1.00
H258   H     0.49983   0.49958   0.03625   0.00000  Uiso   1.00
H259   H     0.20208   0.45077   0.15474   0.00000  Uiso   1.00
H260   H     0.73186   0.01319   0.30422   0.00000  Uiso   1.00
H261   H     0.38867   0.78331   0.11058   0.00000  Uiso   1.00
H262   H     0.39642   0.85200   0.04789   0.00000  Uiso   1.00
H263   H     0.25520   0.82887   0.10407   0.00000  Uiso   1.00
H264   H     0.50644   0.62136   0.17496   0.00000  Uiso   1.00
H265   H     0.41746   0.00340   0.98599   0.00000  Uiso   1.00
H266   H     0.11971   0.95459   0.10447   0.00000  Uiso   1.00
H267   H     0.64949   0.51701   0.25395   0.00000  Uiso   1.00
O268   O     0.46545   0.30716   0.97093   0.00000  Uiso   1.00
O269   O     0.07482   0.24311   0.12639   0.00000  Uiso   1.00
O270   O     0.76989   0.66902   0.32250   0.00000  Uiso   1.00
N271   N     0.47939   0.37336   0.03303   0.00000  Uiso   1.00
N272   N     0.20101   0.32774   0.14380   0.00000  Uiso   1.00
N273   N     0.69630   0.91864   0.28356   0.00000  Uiso   1.00
N274   N     0.43507   0.10637   0.00598   0.00000  Uiso   1.00
N275   N     0.15669   0.06075   0.11675   0.00000  Uiso   1.00
N276   N     0.65198   0.65165   0.25651   0.00000  Uiso   1.00
C277   C     0.03716   0.73007   0.34416   0.00000  Uiso   1.00
C278   C     0.04342   0.70430   0.38461   0.00000  Uiso   1.00
C279   C     0.02400   0.83137   0.40356   0.00000  Uiso   1.00
C280   C     0.03391   0.78181   0.44045   0.00000  Uiso   1.00
C281   C     0.03936   0.76778   0.50064   0.00000  Uiso   1.00
C282   C     0.12015   0.69174   0.35409   0.00000  Uiso   1.00
C283   C     0.16525   0.80824   0.34737   0.00000  Uiso   1.00
C284   C     0.23974   0.74809   0.35856   0.00000  Uiso   1.00
C285   C     0.36429   0.71450   0.37133   0.00000  Uiso   1.00
C286   C     0.98365   0.57900   0.31558   0.00000  Uiso   1.00
C287   C     0.91397   0.60070   0.27647   0.00000  Uiso   1.00
C288   C     0.87355   0.44562   0.25522   0.00000  Uiso   1.00
C289   C     0.78615   0.23699   0.20821   0.00000  Uiso   1.00
C290   C     0.08929   0.41609   0.37597   0.00000  Uiso   1.00
C291   C     0.07173   0.53376   0.40189   0.00000  Uiso   1.00
C292   C     0.08167   0.48399   0.43875   0.00000  Uiso   1.00
C293   C     0.06227   0.61096   0.45775   0.00000  Uiso   1.00
C294   C     0.14847   0.52121   0.37137   0.00000  Uiso   1.00
C295   C     0.22291   0.46086   0.38256   0.00000  Uiso   1.00
C296   C     0.26811   0.57724   0.37586   0.00000  Uiso   1.00
C297   C     0.01195   0.40845   0.33285   0.00000  Uiso   1.00
C298   C     0.97164   0.25331   0.31166   0.00000  Uiso   1.00
C299   C     0.90191   0.27477   0.27253   0.00000  Uiso   1.00
H300   H     0.01513   0.86285   0.33071   0.00000  Uiso   1.00
H301   H     0.00210   0.96335   0.39018   0.00000  Uiso   1.00
H302   H     0.14332   0.94021   0.33400   0.00000  Uiso   1.00
H303   H     0.89208   0.73269   0.26311   0.00000  Uiso   1.00
H304   H     0.00017   0.99958   0.46375   0.00000  Uiso   1.00
H305   H     0.29792   0.95077   0.34526   0.00000  Uiso   1.00
H306   H     0.76814   0.51319   0.19578   0.00000  Uiso   1.00
H307   H     0.11133   0.28331   0.38942   0.00000  Uiso   1.00
H308   H     0.10358   0.35200   0.45211   0.00000  Uiso   1.00
H309   H     0.24480   0.32887   0.39593   0.00000  Uiso   1.00
H310   H     0.99356   0.12136   0.32504   0.00000  Uiso   1.00
H311   H     0.08254   0.50340   0.51401   0.00000  Uiso   1.00
H312   H     0.38029   0.45459   0.39553   0.00000  Uiso   1.00
H313   H     0.85051   0.01701   0.24605   0.00000  Uiso   1.00
O314   O     0.03455   0.80716   0.52907   0.00000  Uiso   1.00
O315   O     0.42518   0.74311   0.37361   0.00000  Uiso   1.00
O316   O     0.73011   0.16902   0.17750   0.00000  Uiso   1.00
N317   N     0.02061   0.87336   0.46697   0.00000  Uiso   1.00
N318   N     0.29899   0.82774   0.35620   0.00000  Uiso   1.00
N319   N     0.80370   0.41864   0.21644   0.00000  Uiso   1.00
N320   N     0.06493   0.60637   0.49402   0.00000  Uiso   1.00
N321   N     0.34331   0.56075   0.38325   0.00000  Uiso   1.00
N322   N     0.84802   0.15165   0.24349   0.00000  Uiso   1.00
C323   C     0.53716   0.23007   0.34416   0.00000  Uiso   1.00
C324   C     0.54342   0.20430   0.38461   0.00000  Uiso   1.00
C325   C     0.52400   0.33137   0.40356   0.00000  Uiso   1.00
C326   C     0.53391   0.28181   0.44045   0.00000  Uiso   1.00
C327   C     0.53936   0.26778   0.50064   0.00000  Uiso   1.00
C328   C     0.62015   0.19174   0.35409   0.00000  Uiso   1.00
C329   C     0.66525   0.30824   0.34737   0.00000  Uiso   1.00
C330   C     0.73974   0.24809   0.35856   0.00000  Uiso   1.00
C331   C     0.86429   0.21450   0.37133   0.00000  Uiso   1.00
C332   C     0.48365   0.07900   0.31558   0.00000  Uiso   1.00
C333   C     0.41397   0.10070   0.27647   0.00000  Uiso   1.00
C334   C     0.37355   0.94562   0.25522   0.00000  Uiso   1.00
C335   C     0.28615   0.73699   0.20821   0.00000  Uiso   1.00
C336   C     0.58929   0.91609   0.37597   0.00000  Uiso   1.00
C337   C     0.57173   0.03376   0.40189   0.00000  Uiso   1.00
C338   C     0.58167   0.98399   0.43875   0.00000  Uiso   1.00
C339   C     0.56227   0.11096   0.45775   0.00000  Uiso   1.00
C340   C     0.64847   0.02121   0.37137   0.00000  Uiso   1.00
C341   C     0.72291   0.96086   0.38256   0.00000  Uiso   1.00
C342   C     0.76811   0.07724   0.37586   0.00000  Uiso   1.00
C343   C     0.51195   0.90845   0.33285   0.00000  Uiso   1.00
C344   C     0.47164   0.75331   0.31166   0.00000  Uiso   1.00
C345   C     0.40191   0.77477   0.27253   0.00000  Uiso   1.00
H346   H     0.51513   0.36285   0.33071   0.00000  Uiso   1.00
H347   H     0.50210   0.46335   0.39018   0.00000  Uiso   1.00
H348   H     0.64332   0.44021   0.33400   0.00000  Uiso   1.00
H349   H     0.39208   0.23269   0.26311   0.00000  Uiso   1.00
H350   H     0.50017   0.49958   0.46375   0.00000  Uiso   1.00
H351   H     0.79792   0.45077   0.34526   0.00000  Uiso   1.00
H352   H     0.26814   0.01319   0.19578   0.00000  Uiso   1.00
H353   H     0.61133   0.78331   0.38942   0.00000  Uiso   1.00
H354   H     0.60358   0.85200   0.45211   0.00000  Uiso   1.00
H355   H     0.74480   0.82887   0.39593   0.00000  Uiso   1.00
H356   H     0.49356   0.62136   0.32504   0.00000  Uiso   1.00
H357   H     0.58254   0.00340   0.51401   0.00000  Uiso   1.00
H358   H     0.88029   0.95459   0.39553   0.00000  Uiso   1.00
H359   H     0.35051   0.51701   0.24605   0.00000  Uiso   1.00
O360   O     0.53455   0.30716   0.52907   0.00000  Uiso   1.00
O361   O     0.92518   0.24311   0.37361   0.00000  Uiso   1.00
O362   O     0.23011   0.66902   0.17750   0.00000  Uiso   1.00
N363   N     0.52061   0.37336   0.46697   0.00000  Uiso   1.00
N364   N     0.79899   0.32774   0.35620   0.00000  Uiso   1.00
N365   N     0.30370   0.91864   0.21644   0.00000  Uiso   1.00
N366   N     0.56493   0.10637   0.49402   0.00000  Uiso   1.00
N367   N     0.84331   0.06075   0.38325   0.00000  Uiso   1.00
N368   N     0.34802   0.65165   0.24349   0.00000  Uiso   1.00
