data_job_06982
_audit_creation_date              2018-12-19
_audit_creation_method            'Materials Studio'
_symmetry_space_group_name_H-M    'P1'
_symmetry_Int_Tables_number       1
_symmetry_cell_setting            triclinic
loop_
_symmetry_equiv_pos_as_xyz
  x,y,z
_cell_length_a                    24.3692
_cell_length_b                    24.1580
_cell_length_c                    25.1937
_cell_angle_alpha                 62.3933
_cell_angle_beta                  77.2108
_cell_angle_gamma                 64.1957
loop_
_atom_site_label
_atom_site_type_symbol
_atom_site_fract_x
_atom_site_fract_y
_atom_site_fract_z
_atom_site_U_iso_or_equiv
_atom_site_adp_type
_atom_site_occupancy
C1     C     0.90536   0.33268   0.33076   0.00000  Uiso   1.00
C2     C     0.95223   0.26218   0.36470   0.00000  Uiso   1.00
C3     C     0.98329   0.24228   0.41455   0.00000  Uiso   1.00
C4     C     0.02432   0.17555   0.43912   0.00000  Uiso   1.00
C5     C     0.09565   0.07296   0.49551   0.00000  Uiso   1.00
C6     C     0.92846   0.35585   0.26581   0.00000  Uiso   1.00
C7     C     0.93952   0.41470   0.23252   0.00000  Uiso   1.00
C8     C     0.96054   0.42682   0.17384   0.00000  Uiso   1.00
C9     C     0.99493   0.46967   0.07670   0.00000  Uiso   1.00
C10    C     0.84749   0.32306   0.33092   0.00000  Uiso   1.00
C11    C     0.79046   0.35436   0.35236   0.00000  Uiso   1.00
C12    C     0.74330   0.33889   0.34848   0.00000  Uiso   1.00
C13    C     0.65197   0.33083   0.35242   0.00000  Uiso   1.00
C14    C     0.92300   0.24956   0.28574   0.00000  Uiso   1.00
C15    C     0.96181   0.21704   0.34024   0.00000  Uiso   1.00
C16    C     0.00280   0.15031   0.36474   0.00000  Uiso   1.00
C17    C     0.03391   0.13032   0.41462   0.00000  Uiso   1.00
C18    C     0.93804   0.31070   0.24135   0.00000  Uiso   1.00
C19    C     0.95904   0.32274   0.18271   0.00000  Uiso   1.00
C20    C     0.97014   0.38159   0.14934   0.00000  Uiso   1.00
C21    C     0.85707   0.27791   0.30646   0.00000  Uiso   1.00
C22    C     0.80998   0.26239   0.30254   0.00000  Uiso   1.00
C23    C     0.75290   0.29366   0.32398   0.00000  Uiso   1.00
H24    H     0.89790   0.36784   0.34980   0.00000  Uiso   1.00
H25    H     0.97586   0.27724   0.43346   0.00000  Uiso   1.00
H26    H     0.93210   0.44963   0.25146   0.00000  Uiso   1.00
H27    H     0.78307   0.38930   0.37128   0.00000  Uiso   1.00
H28    H     0.06654   0.15689   0.51542   0.00000  Uiso   1.00
H29    H     0.97424   0.52041   0.13165   0.00000  Uiso   1.00
H30    H     0.65997   0.39318   0.38431   0.00000  Uiso   1.00
H31    H     0.93046   0.21441   0.26669   0.00000  Uiso   1.00
H32    H     0.01021   0.11539   0.34580   0.00000  Uiso   1.00
H33    H     0.96645   0.28779   0.16380   0.00000  Uiso   1.00
H34    H     0.81741   0.22745   0.28362   0.00000  Uiso   1.00
H35    H     0.09441   0.02553   0.44427   0.00000  Uiso   1.00
H36    H     0.00212   0.38905   0.06050   0.00000  Uiso   1.00
H37    H     0.68785   0.26182   0.31316   0.00000  Uiso   1.00
O38    O     0.13236   0.02884   0.53337   0.00000  Uiso   1.00
O39    O     0.01126   0.50577   0.02988   0.00000  Uiso   1.00
O40    O     0.59895   0.33885   0.36137   0.00000  Uiso   1.00
N41    N     0.06214   0.13956   0.48782   0.00000  Uiso   1.00
N42    N     0.97586   0.47942   0.12903   0.00000  Uiso   1.00
N43    N     0.68205   0.36049   0.36523   0.00000  Uiso   1.00
N44    N     0.07714   0.06887   0.44954   0.00000  Uiso   1.00
N45    N     0.99086   0.40874   0.09074   0.00000  Uiso   1.00
N46    N     0.69705   0.28980   0.32694   0.00000  Uiso   1.00
C47    C     0.56400   0.98463   0.23051   0.00000  Uiso   1.00
C48    C     0.55388   0.01386   0.16366   0.00000  Uiso   1.00
C49    C     0.56594   0.06910   0.11951   0.00000  Uiso   1.00
C50    C     0.55356   0.08797   0.06098   0.00000  Uiso   1.00
C51    C     0.54141   0.13872   0.95930   0.00000  Uiso   1.00
C52    C     0.50256   0.98542   0.26161   0.00000  Uiso   1.00
C53    C     0.47148   0.01675   0.29981   0.00000  Uiso   1.00
C54    C     0.41590   0.01168   0.32373   0.00000  Uiso   1.00
C55    C     0.32409   0.01825   0.37414   0.00000  Uiso   1.00
C56    C     0.60577   0.91024   0.24882   0.00000  Uiso   1.00
C57    C     0.66147   0.87835   0.27629   0.00000  Uiso   1.00
C58    C     0.69278   0.80997   0.28946   0.00000  Uiso   1.00
C59    C     0.76122   0.69981   0.32002   0.00000  Uiso   1.00
C60    C     0.52055   0.91989   0.20508   0.00000  Uiso   1.00
C61    C     0.53028   0.97869   0.14985   0.00000  Uiso   1.00
C62    C     0.51787   0.99748   0.09137   0.00000  Uiso   1.00
C63    C     0.52992   0.05274   0.04714   0.00000  Uiso   1.00
C64    C     0.47896   0.95026   0.24780   0.00000  Uiso   1.00
C65    C     0.42341   0.94513   0.27167   0.00000  Uiso   1.00
C66    C     0.39225   0.97645   0.30990   0.00000  Uiso   1.00
C67    C     0.58217   0.87508   0.23501   0.00000  Uiso   1.00
C68    C     0.61340   0.80673   0.24815   0.00000  Uiso   1.00
C69    C     0.66913   0.77475   0.27563   0.00000  Uiso   1.00
H70    H     0.58236   0.01200   0.24126   0.00000  Uiso   1.00
H71    H     0.58420   0.09630   0.13022   0.00000  Uiso   1.00
H72    H     0.48976   0.04395   0.31049   0.00000  Uiso   1.00
H73    H     0.67971   0.90558   0.28697   0.00000  Uiso   1.00
H74    H     0.57581   0.17427   0.00102   0.00000  Uiso   1.00
H75    H     0.37668   0.06388   0.38115   0.00000  Uiso   1.00
H76    H     0.77724   0.77208   0.33155   0.00000  Uiso   1.00
H77    H     0.50217   0.89251   0.19432   0.00000  Uiso   1.00
H78    H     0.49961   0.97026   0.08070   0.00000  Uiso   1.00
H79    H     0.40516   0.91792   0.26098   0.00000  Uiso   1.00
H80    H     0.59512   0.77954   0.23745   0.00000  Uiso   1.00
H81    H     0.50715   0.07198   0.96083   0.00000  Uiso   1.00
H82    H     0.30802   0.96158   0.34097   0.00000  Uiso   1.00
H83    H     0.70858   0.66979   0.29136   0.00000  Uiso   1.00
O84    O     0.54122   0.17644   0.90703   0.00000  Uiso   1.00
O85    O     0.27997   0.03159   0.40576   0.00000  Uiso   1.00
O86    O     0.80550   0.64877   0.34068   0.00000  Uiso   1.00
N87    N     0.56001   0.13952   0.00715   0.00000  Uiso   1.00
N88    N     0.37383   0.03632   0.36255   0.00000  Uiso   1.00
N89    N     0.74832   0.76351   0.31619   0.00000  Uiso   1.00
N90    N     0.52307   0.08447   0.98552   0.00000  Uiso   1.00
N91    N     0.33689   0.98127   0.34092   0.00000  Uiso   1.00
N92    N     0.71137   0.70846   0.29456   0.00000  Uiso   1.00
C93    C     0.21841   0.52803   0.79700   0.00000  Uiso   1.00
C94    C     0.17962   0.48632   0.83222   0.00000  Uiso   1.00
C95    C     0.13579   0.49719   0.87594   0.00000  Uiso   1.00
C96    C     0.10525   0.45346   0.90295   0.00000  Uiso   1.00
C97    C     0.04308   0.39669   0.96012   0.00000  Uiso   1.00
C98    C     0.28457   0.47804   0.80736   0.00000  Uiso   1.00
C99    C     0.32900   0.48195   0.83017   0.00000  Uiso   1.00
C100   C     0.38680   0.43125   0.83624   0.00000  Uiso   1.00
C101   C     0.48759   0.36164   0.85477   0.00000  Uiso   1.00
C102   C     0.20726   0.55326   0.73102   0.00000  Uiso   1.00
C103   C     0.18669   0.62042   0.68964   0.00000  Uiso   1.00
C104   C     0.17942   0.63305   0.63144   0.00000  Uiso   1.00
C105   C     0.16017   0.68024   0.53144   0.00000  Uiso   1.00
C106   C     0.24208   0.43104   0.76722   0.00000  Uiso   1.00
C107   C     0.19248   0.43364   0.81604   0.00000  Uiso   1.00
C108   C     0.16199   0.38988   0.84299   0.00000  Uiso   1.00
C109   C     0.11813   0.40068   0.88674   0.00000  Uiso   1.00
C110   C     0.29743   0.42536   0.79118   0.00000  Uiso   1.00
C111   C     0.35519   0.37464   0.79722   0.00000  Uiso   1.00
C112   C     0.39969   0.37847   0.82004   0.00000  Uiso   1.00
C113   C     0.22012   0.50058   0.71484   0.00000  Uiso   1.00
C114   C     0.21288   0.51310   0.65669   0.00000  Uiso   1.00
C115   C     0.19230   0.58027   0.61523   0.00000  Uiso   1.00
H116   H     0.20840   0.56905   0.80959   0.00000  Uiso   1.00
H117   H     0.12586   0.53797   0.88845   0.00000  Uiso   1.00
H118   H     0.31903   0.52273   0.84268   0.00000  Uiso   1.00
H119   H     0.17675   0.66118   0.70217   0.00000  Uiso   1.00
H120   H     0.04004   0.48026   0.96876   0.00000  Uiso   1.00
H121   H     0.44736   0.44815   0.87223   0.00000  Uiso   1.00
H122   H     0.14732   0.74009   0.57595   0.00000  Uiso   1.00
H123   H     0.25209   0.39002   0.75462   0.00000  Uiso   1.00
H124   H     0.17195   0.34911   0.83046   0.00000  Uiso   1.00
H125   H     0.36512   0.33388   0.78469   0.00000  Uiso   1.00
H126   H     0.22284   0.47232   0.64419   0.00000  Uiso   1.00
H127   H     0.07745   0.32697   0.92170   0.00000  Uiso   1.00
H128   H     0.48477   0.29486   0.82516   0.00000  Uiso   1.00
H129   H     0.18473   0.58680   0.52889   0.00000  Uiso   1.00
O130   O     0.00525   0.37992   0.99612   0.00000  Uiso   1.00
O131   O     0.53963   0.33780   0.86947   0.00000  Uiso   1.00
O132   O     0.14599   0.72082   0.48076   0.00000  Uiso   1.00
N133   N     0.05983   0.44980   0.94727   0.00000  Uiso   1.00
N134   N     0.44065   0.41978   0.85702   0.00000  Uiso   1.00
N135   N     0.16016   0.69271   0.58002   0.00000  Uiso   1.00
N136   N     0.07996   0.36732   0.92194   0.00000  Uiso   1.00
N137   N     0.46078   0.33730   0.83170   0.00000  Uiso   1.00
N138   N     0.18028   0.61023   0.55470   0.00000  Uiso   1.00
C139   C     0.42289   0.01658   0.60713   0.00000  Uiso   1.00
C140   C     0.45823   0.99479   0.55743   0.00000  Uiso   1.00
C141   C     0.49801   0.02166   0.51587   0.00000  Uiso   1.00
C142   C     0.52588   0.99484   0.47399   0.00000  Uiso   1.00
C143   C     0.58253   0.96887   0.39687   0.00000  Uiso   1.00
C144   C     0.44005   0.95271   0.66550   0.00000  Uiso   1.00
C145   C     0.46453   0.94421   0.71480   0.00000  Uiso   1.00
C146   C     0.47709   0.88196   0.76390   0.00000  Uiso   1.00
C147   C     0.50547   0.79069   0.85458   0.00000  Uiso   1.00
C148   C     0.35584   0.03684   0.59815   0.00000  Uiso   1.00
C149   C     0.30952   0.09906   0.59084   0.00000  Uiso   1.00
C150   C     0.25118   0.10765   0.58325   0.00000  Uiso   1.00
C151   C     0.14882   0.14699   0.56935   0.00000  Uiso   1.00
C152   C     0.40165   0.92117   0.60666   0.00000  Uiso   1.00
C153   C     0.44669   0.94296   0.55718   0.00000  Uiso   1.00
C154   C     0.47451   0.91610   0.51535   0.00000  Uiso   1.00
C155   C     0.51432   0.94292   0.47373   0.00000  Uiso   1.00
C156   C     0.42851   0.90089   0.66524   0.00000  Uiso   1.00
C157   C     0.44103   0.83865   0.71428   0.00000  Uiso   1.00
C158   C     0.46554   0.83005   0.76364   0.00000  Uiso   1.00
C159   C     0.34430   0.98502   0.59789   0.00000  Uiso   1.00
C160   C     0.28602   0.99350   0.59031   0.00000  Uiso   1.00
C161   C     0.23962   0.05573   0.58299   0.00000  Uiso   1.00
H162   H     0.43187   0.05692   0.60734   0.00000  Uiso   1.00
H163   H     0.50693   0.06176   0.51609   0.00000  Uiso   1.00
H164   H     0.47345   0.98432   0.71499   0.00000  Uiso   1.00
H165   H     0.31846   0.13915   0.59104   0.00000  Uiso   1.00
H166   H     0.58507   0.04425   0.41482   0.00000  Uiso   1.00
H167   H     0.51446   0.88098   0.83423   0.00000  Uiso   1.00
H168   H     0.18764   0.20748   0.57286   0.00000  Uiso   1.00
H169   H     0.39267   0.88082   0.60646   0.00000  Uiso   1.00
H170   H     0.46557   0.87599   0.51516   0.00000  Uiso   1.00
H171   H     0.43210   0.79856   0.71406   0.00000  Uiso   1.00
H172   H     0.27711   0.95339   0.59011   0.00000  Uiso   1.00
H173   H     0.55151   0.89348   0.41407   0.00000  Uiso   1.00
H174   H     0.48090   0.73020   0.83348   0.00000  Uiso   1.00
H175   H     0.15408   0.05670   0.57211   0.00000  Uiso   1.00
O176   O     0.61698   0.96885   0.35441   0.00000  Uiso   1.00
O177   O     0.52432   0.75465   0.90466   0.00000  Uiso   1.00
O178   O     0.09555   0.18301   0.56175   0.00000  Uiso   1.00
N179   N     0.56716   0.00944   0.42717   0.00000  Uiso   1.00
N180   N     0.50115   0.85678   0.81928   0.00000  Uiso   1.00
N181   N     0.19560   0.16202   0.57494   0.00000  Uiso   1.00
N182   N     0.54910   0.92831   0.42676   0.00000  Uiso   1.00
N183   N     0.48309   0.77565   0.81888   0.00000  Uiso   1.00
N184   N     0.17754   0.08089   0.57454   0.00000  Uiso   1.00
C185   C     0.96364   0.78858   0.42393   0.00000  Uiso   1.00
C186   C     0.96292   0.71834   0.46363   0.00000  Uiso   1.00
C187   C     0.99209   0.67400   0.51778   0.00000  Uiso   1.00
C188   C     0.98589   0.61211   0.54733   0.00000  Uiso   1.00
C189   C     0.98993   0.50563   0.61262   0.00000  Uiso   1.00
C190   C     0.89704   0.83746   0.41544   0.00000  Uiso   1.00
C191   C     0.87083   0.89328   0.42907   0.00000  Uiso   1.00
C192   C     0.80917   0.93168   0.41803   0.00000  Uiso   1.00
C193   C     0.71095   0.01016   0.40847   0.00000  Uiso   1.00
C194   C     0.98787   0.78866   0.36267   0.00000  Uiso   1.00
C195   C     0.03802   0.80347   0.33191   0.00000  Uiso   1.00
C196   C     0.05283   0.80079   0.27643   0.00000  Uiso   1.00
C197   C     0.09564   0.80350   0.18493   0.00000  Uiso   1.00
C198   C     0.90077   0.75753   0.38010   0.00000  Uiso   1.00
C199   C     0.92876   0.70148   0.43983   0.00000  Uiso   1.00
C200   C     0.92252   0.63964   0.46929   0.00000  Uiso   1.00
C201   C     0.95167   0.59521   0.52348   0.00000  Uiso   1.00
C202   C     0.86289   0.82060   0.39164   0.00000  Uiso   1.00
C203   C     0.80126   0.85892   0.38058   0.00000  Uiso   1.00
C204   C     0.77496   0.91478   0.39419   0.00000  Uiso   1.00
C205   C     0.95372   0.77179   0.33886   0.00000  Uiso   1.00
C206   C     0.96845   0.76910   0.28342   0.00000  Uiso   1.00
C207   C     0.01861   0.78389   0.25258   0.00000  Uiso   1.00
H208   H     0.99023   0.80172   0.44246   0.00000  Uiso   1.00
H209   H     0.01851   0.68707   0.53619   0.00000  Uiso   1.00
H210   H     0.89727   0.90632   0.44748   0.00000  Uiso   1.00
H211   H     0.06444   0.81652   0.35034   0.00000  Uiso   1.00
H212   H     0.03478   0.55254   0.62963   0.00000  Uiso   1.00
H213   H     0.77915   0.01486   0.44256   0.00000  Uiso   1.00
H214   H     0.13165   0.82548   0.23772   0.00000  Uiso   1.00
H215   H     0.87417   0.74440   0.36156   0.00000  Uiso   1.00
H216   H     0.89609   0.62660   0.45086   0.00000  Uiso   1.00
H217   H     0.77485   0.84586   0.36215   0.00000  Uiso   1.00
H218   H     0.94201   0.75605   0.26501   0.00000  Uiso   1.00
H219   H     0.93541   0.50346   0.56037   0.00000  Uiso   1.00
H220   H     0.67978   0.96578   0.37330   0.00000  Uiso   1.00
H221   H     0.03228   0.77640   0.16846   0.00000  Uiso   1.00
O222   O     0.00159   0.45156   0.65522   0.00000  Uiso   1.00
O223   O     0.66621   0.05810   0.40978   0.00000  Uiso   1.00
O224   O     0.12869   0.80964   0.14103   0.00000  Uiso   1.00
N225   N     0.00840   0.55715   0.60107   0.00000  Uiso   1.00
N226   N     0.76939   0.98938   0.42618   0.00000  Uiso   1.00
N227   N     0.09894   0.81235   0.23466   0.00000  Uiso   1.00
N228   N     0.95493   0.53074   0.56380   0.00000  Uiso   1.00
N229   N     0.71593   0.96297   0.38891   0.00000  Uiso   1.00
N230   N     0.04548   0.78594   0.19740   0.00000  Uiso   1.00
C231   C     0.80967   0.48312   0.94897   0.00000  Uiso   1.00
C232   C     0.74839   0.50553   0.92373   0.00000  Uiso   1.00
C233   C     0.69649   0.56146   0.92304   0.00000  Uiso   1.00
C234   C     0.64497   0.57337   0.89794   0.00000  Uiso   1.00
C235   C     0.54975   0.61465   0.86231   0.00000  Uiso   1.00
C236   C     0.85643   0.47994   0.89791   0.00000  Uiso   1.00
C237   C     0.89539   0.51436   0.87551   0.00000  Uiso   1.00
C238   C     0.93482   0.50473   0.82868   0.00000  Uiso   1.00
C239   C     0.00738   0.50624   0.75299   0.00000  Uiso   1.00
C240   C     0.82474   0.41024   0.99555   0.00000  Uiso   1.00
C241   C     0.83706   0.38605   0.05524   0.00000  Uiso   1.00
C242   C     0.84982   0.31772   0.09061   0.00000  Uiso   1.00
C243   C     0.87316   0.21101   0.16652   0.00000  Uiso   1.00
C244   C     0.81045   0.40480   0.90562   0.00000  Uiso   1.00
C245   C     0.74881   0.46298   0.90019   0.00000  Uiso   1.00
C246   C     0.69735   0.47481   0.87509   0.00000  Uiso   1.00
C247   C     0.64539   0.53075   0.87436   0.00000  Uiso   1.00
C248   C     0.85686   0.43740   0.87437   0.00000  Uiso   1.00
C249   C     0.89625   0.42771   0.82756   0.00000  Uiso   1.00
C250   C     0.93525   0.46211   0.80509   0.00000  Uiso   1.00
C251   C     0.82516   0.36769   0.97201   0.00000  Uiso   1.00
C252   C     0.83791   0.29939   0.00729   0.00000  Uiso   1.00
C253   C     0.85025   0.27510   0.06702   0.00000  Uiso   1.00
H254   H     0.80935   0.51625   0.96729   0.00000  Uiso   1.00
H255   H     0.69618   0.59438   0.94126   0.00000  Uiso   1.00
H256   H     0.89505   0.54728   0.89374   0.00000  Uiso   1.00
H257   H     0.83673   0.41898   0.07345   0.00000  Uiso   1.00
H258   H     0.57091   0.66226   0.90200   0.00000  Uiso   1.00
H259   H     0.99025   0.56292   0.80182   0.00000  Uiso   1.00
H260   H     0.86726   0.29239   0.18075   0.00000  Uiso   1.00
H261   H     0.81078   0.37168   0.88729   0.00000  Uiso   1.00
H262   H     0.69769   0.44188   0.85687   0.00000  Uiso   1.00
H263   H     0.89656   0.39478   0.80935   0.00000  Uiso   1.00
H264   H     0.83824   0.26648   0.98905   0.00000  Uiso   1.00
H265   H     0.57214   0.53848   0.83350   0.00000  Uiso   1.00
H266   H     0.99148   0.43915   0.73332   0.00000  Uiso   1.00
H267   H     0.86849   0.16861   0.11226   0.00000  Uiso   1.00
O268   O     0.49712   0.64917   0.84916   0.00000  Uiso   1.00
O269   O     0.04728   0.51884   0.71774   0.00000  Uiso   1.00
O270   O     0.88592   0.16391   0.21489   0.00000  Uiso   1.00
N271   N     0.58672   0.62348   0.89006   0.00000  Uiso   1.00
N272   N     0.97877   0.53062   0.79639   0.00000  Uiso   1.00
N273   N     0.86380   0.27769   0.15066   0.00000  Uiso   1.00
N274   N     0.58738   0.55688   0.85320   0.00000  Uiso   1.00
N275   N     0.97943   0.46402   0.75954   0.00000  Uiso   1.00
N276   N     0.86446   0.21109   0.11381   0.00000  Uiso   1.00
C277   C     0.01056   0.89116   0.51223   0.00000  Uiso   1.00
C278   C     0.97323   0.96039   0.51310   0.00000  Uiso   1.00
C279   C     0.91897   0.00679   0.48376   0.00000  Uiso   1.00
C280   C     0.89183   0.06728   0.49014   0.00000  Uiso   1.00
C281   C     0.82986   0.17270   0.48626   0.00000  Uiso   1.00
C282   C     0.01730   0.83988   0.57759   0.00000  Uiso   1.00
C283   C     0.00009   0.78496   0.60247   0.00000  Uiso   1.00
C284   C     0.01006   0.74399   0.66314   0.00000  Uiso   1.00
C285   C     0.01655   0.66229   0.75939   0.00000  Uiso   1.00
C286   C     0.07424   0.89028   0.48952   0.00000  Uiso   1.00
C287   C     0.10492   0.87772   0.44035   0.00000  Uiso   1.00
C288   C     0.16282   0.87917   0.42688   0.00000  Uiso   1.00
C289   C     0.25772   0.87572   0.38637   0.00000  Uiso   1.00
C290   C     0.05885   0.91606   0.57573   0.00000  Uiso   1.00
C291   C     0.99946   0.97391   0.54759   0.00000  Uiso   1.00
C292   C     0.97240   0.03434   0.55401   0.00000  Uiso   1.00
C293   C     0.91810   0.08083   0.52469   0.00000  Uiso   1.00
C294   C     0.04353   0.85340   0.61208   0.00000  Uiso   1.00
C295   C     0.05352   0.81250   0.67273   0.00000  Uiso   1.00
C296   C     0.03633   0.75754   0.69770   0.00000  Uiso   1.00
C297   C     0.10047   0.90380   0.52401   0.00000  Uiso   1.00
C298   C     0.15834   0.90527   0.51061   0.00000  Uiso   1.00
C299   C     0.18910   0.89272   0.46143   0.00000  Uiso   1.00
H300   H     0.99014   0.88063   0.48538   0.00000  Uiso   1.00
H301   H     0.89868   0.99631   0.45707   0.00000  Uiso   1.00
H302   H     0.97980   0.77450   0.57577   0.00000  Uiso   1.00
H303   H     0.08460   0.86725   0.41367   0.00000  Uiso   1.00
H304   H     0.80884   0.13051   0.44092   0.00000  Uiso   1.00
H305   H     0.97991   0.66281   0.69119   0.00000  Uiso   1.00
H306   H     0.20090   0.85839   0.34938   0.00000  Uiso   1.00
H307   H     0.07927   0.92659   0.60258   0.00000  Uiso   1.00
H308   H     0.99271   0.04479   0.58071   0.00000  Uiso   1.00
H309   H     0.07382   0.82298   0.69940   0.00000  Uiso   1.00
H310   H     0.17862   0.91573   0.53731   0.00000  Uiso   1.00
H311   H     0.88515   0.16986   0.54127   0.00000  Uiso   1.00
H312   H     0.05622   0.70216   0.79154   0.00000  Uiso   1.00
H313   H     0.27721   0.89774   0.44973   0.00000  Uiso   1.00
O314   O     0.78843   0.22710   0.47461   0.00000  Uiso   1.00
O315   O     0.01287   0.61349   0.80295   0.00000  Uiso   1.00
O316   O     0.30281   0.87009   0.35450   0.00000  Uiso   1.00
N317   N     0.83869   0.12355   0.46753   0.00000  Uiso   1.00
N318   N     0.99861   0.68629   0.70152   0.00000  Uiso   1.00
N319   N     0.20523   0.86912   0.38197   0.00000  Uiso   1.00
N320   N     0.87975   0.14473   0.52153   0.00000  Uiso   1.00
N321   N     0.03968   0.70746   0.75552   0.00000  Uiso   1.00
N322   N     0.24630   0.89030   0.43596   0.00000  Uiso   1.00
C323   C     0.46576   0.19904   0.60343   0.00000  Uiso   1.00
C324   C     0.47886   0.17584   0.66847   0.00000  Uiso   1.00
C325   C     0.46825   0.12242   0.71736   0.00000  Uiso   1.00
C326   C     0.48335   0.10924   0.77319   0.00000  Uiso   1.00
C327   C     0.49996   0.06728   0.87316   0.00000  Uiso   1.00
C328   C     0.52598   0.19665   0.56877   0.00000  Uiso   1.00
C329   C     0.55498   0.16072   0.53383   0.00000  Uiso   1.00
C330   C     0.60974   0.16506   0.50573   0.00000  Uiso   1.00
C331   C     0.69947   0.15544   0.45088   0.00000  Uiso   1.00
C332   C     0.42374   0.27370   0.58143   0.00000  Uiso   1.00
C333   C     0.36678   0.30256   0.55713   0.00000  Uiso   1.00
C334   C     0.33547   0.37178   0.53968   0.00000  Uiso   1.00
C335   C     0.26646   0.48178   0.50450   0.00000  Uiso   1.00
C336   C     0.51145   0.27063   0.61565   0.00000  Uiso   1.00
C337   C     0.50368   0.21473   0.67510   0.00000  Uiso   1.00
C338   C     0.51880   0.20163   0.73088   0.00000  Uiso   1.00
C339   C     0.50821   0.14820   0.77984   0.00000  Uiso   1.00
C340   C     0.55080   0.23553   0.57541   0.00000  Uiso   1.00
C341   C     0.60553   0.23993   0.54735   0.00000  Uiso   1.00
C342   C     0.63460   0.20402   0.51238   0.00000  Uiso   1.00
C343   C     0.44856   0.31258   0.58807   0.00000  Uiso   1.00
C344   C     0.41733   0.38177   0.57065   0.00000  Uiso   1.00
C345   C     0.36033   0.41073   0.54633   0.00000  Uiso   1.00
H346   H     0.44644   0.16877   0.59826   0.00000  Uiso   1.00
H347   H     0.44905   0.09234   0.71220   0.00000  Uiso   1.00
H348   H     0.53576   0.13064   0.52870   0.00000  Uiso   1.00
H349   H     0.34759   0.27246   0.55200   0.00000  Uiso   1.00
H350   H     0.46291   0.02473   0.84144   0.00000  Uiso   1.00
H351   H     0.64573   0.10551   0.45450   0.00000  Uiso   1.00
H352   H     0.24894   0.40456   0.50364   0.00000  Uiso   1.00
H353   H     0.53077   0.30091   0.62082   0.00000  Uiso   1.00
H354   H     0.53801   0.23173   0.73600   0.00000  Uiso   1.00
H355   H     0.62472   0.27003   0.55249   0.00000  Uiso   1.00
H356   H     0.43655   0.41184   0.57580   0.00000  Uiso   1.00
H357   H     0.53512   0.13786   0.86076   0.00000  Uiso   1.00
H358   H     0.71794   0.21864   0.47382   0.00000  Uiso   1.00
H359   H     0.32115   0.51769   0.52295   0.00000  Uiso   1.00
O360   O     0.50227   0.03339   0.92646   0.00000  Uiso   1.00
O361   O     0.74212   0.13938   0.41880   0.00000  Uiso   1.00
O362   O     0.22154   0.53172   0.48327   0.00000  Uiso   1.00
N363   N     0.47890   0.06086   0.83019   0.00000  Uiso   1.00
N364   N     0.64983   0.13637   0.46843   0.00000  Uiso   1.00
N365   N     0.27887   0.41596   0.51435   0.00000  Uiso   1.00
N366   N     0.51775   0.12174   0.84058   0.00000  Uiso   1.00
N367   N     0.68868   0.19725   0.47882   0.00000  Uiso   1.00
N368   N     0.31772   0.47684   0.52474   0.00000  Uiso   1.00
C369   C     0.78821   0.65224   0.02987   0.00000  Uiso   1.00
C370   C     0.84044   0.67534   0.99810   0.00000  Uiso   1.00
C371   C     0.88490   0.64982   0.96111   0.00000  Uiso   1.00
C372   C     0.92876   0.67770   0.93627   0.00000  Uiso   1.00
C373   C     0.00993   0.70576   0.88511   0.00000  Uiso   1.00
C374   C     0.72980   0.71551   0.01002   0.00000  Uiso   1.00
C375   C     0.68123   0.72377   0.98307   0.00000  Uiso   1.00
C376   C     0.63195   0.78547   0.96828   0.00000  Uiso   1.00
C377   C     0.54133   0.87587   0.93568   0.00000  Uiso   1.00
C378   C     0.79359   0.63089   0.09634   0.00000  Uiso   1.00
C379   C     0.79865   0.56800   0.14198   0.00000  Uiso   1.00
C380   C     0.80306   0.55846   0.19987   0.00000  Uiso   1.00
C381   C     0.81149   0.51748   0.30129   0.00000  Uiso   1.00
C382   C     0.78704   0.74712   0.05153   0.00000  Uiso   1.00
C383   C     0.83980   0.72688   0.00986   0.00000  Uiso   1.00
C384   C     0.88360   0.75480   0.98507   0.00000  Uiso   1.00
C385   C     0.92812   0.72933   0.94805   0.00000  Uiso   1.00
C386   C     0.72916   0.76705   0.02178   0.00000  Uiso   1.00
C387   C     0.67993   0.82875   0.00703   0.00000  Uiso   1.00
C388   C     0.63131   0.83710   0.98006   0.00000  Uiso   1.00
C389   C     0.79296   0.68243   0.10810   0.00000  Uiso   1.00
C390   C     0.79736   0.67298   0.16593   0.00000  Uiso   1.00
C391   C     0.80242   0.61009   0.21165   0.00000  Uiso   1.00
H392   H     0.78870   0.61212   0.02072   0.00000  Uiso   1.00
H393   H     0.88537   0.60994   0.95202   0.00000  Uiso   1.00
H394   H     0.68173   0.68388   0.97398   0.00000  Uiso   1.00
H395   H     0.79914   0.52814   0.13286   0.00000  Uiso   1.00
H396   H     0.99226   0.63028   0.88102   0.00000  Uiso   1.00
H397   H     0.56286   0.78616   0.92735   0.00000  Uiso   1.00
H398   H     0.81043   0.45775   0.26238   0.00000  Uiso   1.00
H399   H     0.78654   0.78725   0.06068   0.00000  Uiso   1.00
H400   H     0.88310   0.79469   0.99418   0.00000  Uiso   1.00
H401   H     0.67946   0.86862   0.01614   0.00000  Uiso   1.00
H402   H     0.79686   0.71288   0.17502   0.00000  Uiso   1.00
H403   H     0.99041   0.78023   0.91523   0.00000  Uiso   1.00
H404   H     0.56101   0.93611   0.96157   0.00000  Uiso   1.00
H405   H     0.80858   0.60770   0.29659   0.00000  Uiso   1.00
O406   O     0.05488   0.70700   0.85364   0.00000  Uiso   1.00
O407   O     0.49152   0.91150   0.91443   0.00000  Uiso   1.00
O408   O     0.81633   0.48064   0.35398   0.00000  Uiso   1.00
N409   N     0.97858   0.66454   0.89821   0.00000  Uiso   1.00
N410   N     0.57712   0.81028   0.94152   0.00000  Uiso   1.00
N411   N     0.80856   0.50325   0.25474   0.00000  Uiso   1.00
N412   N     0.97759   0.74522   0.91662   0.00000  Uiso   1.00
N413   N     0.57613   0.89097   0.95993   0.00000  Uiso   1.00
N414   N     0.80757   0.58394   0.27315   0.00000  Uiso   1.00
C415   C     0.58417   0.16960   0.21046   0.00000  Uiso   1.00
C416   C     0.55510   0.18701   0.26377   0.00000  Uiso   1.00
C417   C     0.51357   0.16295   0.30492   0.00000  Uiso   1.00
C418   C     0.49229   0.18486   0.35049   0.00000  Uiso   1.00
C419   C     0.44415   0.20516   0.43261   0.00000  Uiso   1.00
C420   C     0.56921   0.23697   0.15526   0.00000  Uiso   1.00
C421   C     0.53956   0.25491   0.10518   0.00000  Uiso   1.00
C422   C     0.53017   0.31887   0.05940   0.00000  Uiso   1.00
C423   C     0.50398   0.41671   0.97304   0.00000  Uiso   1.00
C424   C     0.65290   0.14083   0.21764   0.00000  Uiso   1.00
C425   C     0.69362   0.07795   0.21999   0.00000  Uiso   1.00
C426   C     0.75469   0.06099   0.22671   0.00000  Uiso   1.00
C427   C     0.85843   0.00957   0.23721   0.00000  Uiso   1.00
C428   C     0.62023   0.25130   0.21820   0.00000  Uiso   1.00
C429   C     0.57468   0.23138   0.26797   0.00000  Uiso   1.00
C430   C     0.55347   0.25334   0.31349   0.00000  Uiso   1.00
C431   C     0.51192   0.22932   0.35470   0.00000  Uiso   1.00
C432   C     0.58880   0.28134   0.15946   0.00000  Uiso   1.00
C433   C     0.57945   0.34529   0.11374   0.00000  Uiso   1.00
C434   C     0.54979   0.36333   0.06361   0.00000  Uiso   1.00
C435   C     0.67249   0.18521   0.22184   0.00000  Uiso   1.00
C436   C     0.73351   0.16834   0.22856   0.00000  Uiso   1.00
C437   C     0.77431   0.10545   0.23092   0.00000  Uiso   1.00
H438   H     0.56892   0.13506   0.20718   0.00000  Uiso   1.00
H439   H     0.49842   0.12861   0.30165   0.00000  Uiso   1.00
H440   H     0.52441   0.22055   0.10194   0.00000  Uiso   1.00
H441   H     0.67844   0.04363   0.21673   0.00000  Uiso   1.00
H442   H     0.42888   0.14106   0.40823   0.00000  Uiso   1.00
H443   H     0.48371   0.33490   0.98712   0.00000  Uiso   1.00
H444   H     0.80851   0.96182   0.22918   0.00000  Uiso   1.00
H445   H     0.63547   0.28585   0.22147   0.00000  Uiso   1.00
H446   H     0.56863   0.28768   0.31673   0.00000  Uiso   1.00
H447   H     0.59462   0.37962   0.11701   0.00000  Uiso   1.00
H448   H     0.74865   0.20269   0.23181   0.00000  Uiso   1.00
H449   H     0.48586   0.27016   0.42047   0.00000  Uiso   1.00
H450   H     0.54069   0.46401   0.99935   0.00000  Uiso   1.00
H451   H     0.86549   0.09093   0.24142   0.00000  Uiso   1.00
O452   O     0.41218   0.20411   0.47674   0.00000  Uiso   1.00
O453   O     0.48412   0.45842   0.92425   0.00000  Uiso   1.00
O454   O     0.91025   0.96895   0.24184   0.00000  Uiso   1.00
N455   N     0.45148   0.17118   0.39805   0.00000  Uiso   1.00
N456   N     0.50272   0.35242   0.00433   0.00000  Uiso   1.00
N457   N     0.80639   0.00363   0.23063   0.00000  Uiso   1.00
N458   N     0.48214   0.24065   0.40463   0.00000  Uiso   1.00
N459   N     0.53338   0.42189   0.01092   0.00000  Uiso   1.00
N460   N     0.83705   0.07310   0.23721   0.00000  Uiso   1.00
C461   C     0.06099   0.35319   0.41953   0.00000  Uiso   1.00
C462   C     0.05617   0.42552   0.37940   0.00000  Uiso   1.00
C463   C     0.02509   0.46760   0.32608   0.00000  Uiso   1.00
C464   C     0.02612   0.53199   0.29596   0.00000  Uiso   1.00
C465   C     0.01395   0.64101   0.23021   0.00000  Uiso   1.00
C466   C     0.12898   0.30940   0.42627   0.00000  Uiso   1.00
C467   C     0.15911   0.25386   0.41237   0.00000  Uiso   1.00
C468   C     0.22142   0.22050   0.42171   0.00000  Uiso   1.00
C469   C     0.32228   0.14923   0.42877   0.00000  Uiso   1.00
C470   C     0.03694   0.35174   0.48124   0.00000  Uiso   1.00
C471   C     0.98969   0.33177   0.51357   0.00000  Uiso   1.00
C472   C     0.97452   0.33405   0.56919   0.00000  Uiso   1.00
C473   C     0.93246   0.32850   0.66160   0.00000  Uiso   1.00
C474   C     0.11808   0.39271   0.46084   0.00000  Uiso   1.00
C475   C     0.08718   0.44698   0.40184   0.00000  Uiso   1.00
C476   C     0.08825   0.51132   0.37179   0.00000  Uiso   1.00
C477   C     0.05718   0.55350   0.31844   0.00000  Uiso   1.00
C478   C     0.15999   0.33086   0.44871   0.00000  Uiso   1.00
C479   C     0.22227   0.29758   0.45807   0.00000  Uiso   1.00
C480   C     0.25249   0.24200   0.44419   0.00000  Uiso   1.00
C481   C     0.06795   0.37320   0.50368   0.00000  Uiso   1.00
C482   C     0.05285   0.37550   0.55926   0.00000  Uiso   1.00
C483   C     0.00558   0.35555   0.59167   0.00000  Uiso   1.00
H484   H     0.03685   0.33648   0.40207   0.00000  Uiso   1.00
H485   H     0.00111   0.45097   0.30873   0.00000  Uiso   1.00
H486   H     0.13510   0.23726   0.39501   0.00000  Uiso   1.00
H487   H     0.96570   0.31517   0.49619   0.00000  Uiso   1.00
H488   H     0.97517   0.58736   0.21514   0.00000  Uiso   1.00
H489   H     0.25770   0.13673   0.39708   0.00000  Uiso   1.00
H490   H     0.90049   0.30101   0.61043   0.00000  Uiso   1.00
H491   H     0.14222   0.40942   0.47831   0.00000  Uiso   1.00
H492   H     0.11225   0.52792   0.38916   0.00000  Uiso   1.00
H493   H     0.24625   0.31420   0.47544   0.00000  Uiso   1.00
H494   H     0.07685   0.39211   0.57661   0.00000  Uiso   1.00
H495   H     0.06538   0.64981   0.28041   0.00000  Uiso   1.00
H496   H     0.34792   0.19917   0.46236   0.00000  Uiso   1.00
H497   H     0.99071   0.36345   0.67571   0.00000  Uiso   1.00
O498   O     0.99868   0.69521   0.18774   0.00000  Uiso   1.00
O499   O     0.36935   0.10399   0.42646   0.00000  Uiso   1.00
O500   O     0.90070   0.31952   0.70637   0.00000  Uiso   1.00
N501   N     0.00050   0.58580   0.24274   0.00000  Uiso   1.00
N502   N     0.26466   0.16449   0.41284   0.00000  Uiso   1.00
N503   N     0.93071   0.31806   0.61231   0.00000  Uiso   1.00
N504   N     0.04905   0.61941   0.27787   0.00000  Uiso   1.00
N505   N     0.31320   0.19809   0.44797   0.00000  Uiso   1.00
N506   N     0.97925   0.35166   0.64744   0.00000  Uiso   1.00
C507   C     0.19721   0.68555   0.90056   0.00000  Uiso   1.00
C508   C     0.25618   0.66910   0.92643   0.00000  Uiso   1.00
C509   C     0.31282   0.62106   0.92176   0.00000  Uiso   1.00
C510   C     0.36114   0.61362   0.94850   0.00000  Uiso   1.00
C511   C     0.45393   0.58210   0.98408   0.00000  Uiso   1.00
C512   C     0.15179   0.67581   0.95317   0.00000  Uiso   1.00
C513   C     0.12065   0.63342   0.97097   0.00000  Uiso   1.00
C514   C     0.08109   0.63163   0.02022   0.00000  Uiso   1.00
C515   C     0.01178   0.61056   0.09729   0.00000  Uiso   1.00
C516   C     0.17345   0.76121   0.86033   0.00000  Uiso   1.00
C517   C     0.16051   0.79063   0.80008   0.00000  Uiso   1.00
C518   C     0.13917   0.86076   0.77116   0.00000  Uiso   1.00
C519   C     0.10348   0.97228   0.70408   0.00000  Uiso   1.00
C520   C     0.18231   0.75777   0.95636   0.00000  Uiso   1.00
C521   C     0.24809   0.70833   0.95674   0.00000  Uiso   1.00
C522   C     0.29634   0.70097   0.98349   0.00000  Uiso   1.00
C523   C     0.35304   0.65292   0.97886   0.00000  Uiso   1.00
C524   C     0.14370   0.71504   0.98348   0.00000  Uiso   1.00
C525   C     0.10417   0.71332   0.03271   0.00000  Uiso   1.00
C526   C     0.07298   0.67093   0.05058   0.00000  Uiso   1.00
C527   C     0.16536   0.80044   0.89064   0.00000  Uiso   1.00
C528   C     0.14403   0.87053   0.86181   0.00000  Uiso   1.00
C529   C     0.13106   0.90005   0.80153   0.00000  Uiso   1.00
H530   H     0.20351   0.65501   0.87697   0.00000  Uiso   1.00
H531   H     0.31906   0.59071   0.89830   0.00000  Uiso   1.00
H532   H     0.12692   0.60307   0.94751   0.00000  Uiso   1.00
H533   H     0.16677   0.76026   0.77664   0.00000  Uiso   1.00
H534   H     0.44360   0.53671   0.93534   0.00000  Uiso   1.00
H535   H     0.03844   0.56279   0.03908   0.00000  Uiso   1.00
H536   H     0.12248   0.89425   0.67876   0.00000  Uiso   1.00
H537   H     0.17601   0.78831   0.97996   0.00000  Uiso   1.00
H538   H     0.29006   0.73133   0.00695   0.00000  Uiso   1.00
H539   H     0.09792   0.74368   0.05615   0.00000  Uiso   1.00
H540   H     0.13777   0.90087   0.88528   0.00000  Uiso   1.00
H541   H     0.42006   0.65084   0.02352   0.00000  Uiso   1.00
H542   H     0.01490   0.67691   0.12726   0.00000  Uiso   1.00
H543   H     0.09894   0.00838   0.76695   0.00000  Uiso   1.00
O544   O     0.50735   0.55387   0.99534   0.00000  Uiso   1.00
O545   O     0.97578   0.58809   0.13143   0.00000  Uiso   1.00
O546   O     0.08605   0.02296   0.65871   0.00000  Uiso   1.00
N547   N     0.42241   0.57140   0.95238   0.00000  Uiso   1.00
N548   N     0.04362   0.59577   0.04937   0.00000  Uiso   1.00
N549   N     0.12217   0.90567   0.71252   0.00000  Uiso   1.00
N550   N     0.40975   0.63281   0.99983   0.00000  Uiso   1.00
N551   N     0.03095   0.65718   0.09682   0.00000  Uiso   1.00
N552   N     0.10951   0.96708   0.75996   0.00000  Uiso   1.00
