data_job_07050
_audit_creation_date              2018-12-19
_audit_creation_method            'Materials Studio'
_symmetry_space_group_name_H-M    'P1'
_symmetry_Int_Tables_number       1
_symmetry_cell_setting            triclinic
loop_
_symmetry_equiv_pos_as_xyz
  x,y,z
_cell_length_a                    19.5312
_cell_length_b                    21.6954
_cell_length_c                    24.4804
_cell_angle_alpha                 95.5360
_cell_angle_beta                  107.2650
_cell_angle_gamma                 103.5100
loop_
_atom_site_label
_atom_site_type_symbol
_atom_site_fract_x
_atom_site_fract_y
_atom_site_fract_z
_atom_site_U_iso_or_equiv
_atom_site_adp_type
_atom_site_occupancy
C1     C     0.37209   0.45115   0.24131   0.00000  Uiso   1.00
C2     C     0.44449   0.50526   0.26658   0.00000  Uiso   1.00
C3     C     0.45454   0.56246   0.30251   0.00000  Uiso   1.00
C4     C     0.52502   0.60583   0.32102   0.00000  Uiso   1.00
C5     C     0.62856   0.69190   0.36279   0.00000  Uiso   1.00
C6     C     0.35456   0.44073   0.17556   0.00000  Uiso   1.00
C7     C     0.28900   0.44367   0.13498   0.00000  Uiso   1.00
C8     C     0.28377   0.43270   0.07687   0.00000  Uiso   1.00
C9     C     0.24768   0.41855   0.97734   0.00000  Uiso   1.00
C10    C     0.39074   0.39052   0.26051   0.00000  Uiso   1.00
C11    C     0.35558   0.35123   0.29135   0.00000  Uiso   1.00
C12    C     0.38080   0.29799   0.30475   0.00000  Uiso   1.00
C13    C     0.40087   0.20588   0.33712   0.00000  Uiso   1.00
C14    C     0.47938   0.42643   0.21027   0.00000  Uiso   1.00
C15    C     0.50276   0.49183   0.24971   0.00000  Uiso   1.00
C16    C     0.57325   0.53512   0.26817   0.00000  Uiso   1.00
C17    C     0.58340   0.59238   0.30413   0.00000  Uiso   1.00
C18    C     0.41284   0.42730   0.15870   0.00000  Uiso   1.00
C19    C     0.40770   0.41632   0.10064   0.00000  Uiso   1.00
C20    C     0.34215   0.41925   0.05998   0.00000  Uiso   1.00
C21    C     0.44902   0.37709   0.24366   0.00000  Uiso   1.00
C22    C     0.47429   0.32389   0.25701   0.00000  Uiso   1.00
C23    C     0.43918   0.28454   0.28786   0.00000  Uiso   1.00
H24    H     0.32672   0.46160   0.25443   0.00000  Uiso   1.00
H25    H     0.40942   0.57284   0.31555   0.00000  Uiso   1.00
H26    H     0.24391   0.45405   0.14804   0.00000  Uiso   1.00
H27    H     0.31048   0.36164   0.30439   0.00000  Uiso   1.00
H28    H     0.52682   0.69026   0.37585   0.00000  Uiso   1.00
H29    H     0.17781   0.43977   0.02265   0.00000  Uiso   1.00
H30    H     0.31819   0.24490   0.35234   0.00000  Uiso   1.00
H31    H     0.52475   0.41598   0.19714   0.00000  Uiso   1.00
H32    H     0.61833   0.52472   0.25512   0.00000  Uiso   1.00
H33    H     0.45281   0.40593   0.08761   0.00000  Uiso   1.00
H34    H     0.51939   0.31352   0.24396   0.00000  Uiso   1.00
H35    H     0.69637   0.65120   0.32680   0.00000  Uiso   1.00
H36    H     0.34736   0.40071   0.97360   0.00000  Uiso   1.00
H37    H     0.48774   0.20584   0.30329   0.00000  Uiso   1.00
O38    O     0.66957   0.74310   0.39048   0.00000  Uiso   1.00
O39    O     0.21168   0.41446   0.92710   0.00000  Uiso   1.00
O40    O     0.39586   0.15879   0.35964   0.00000  Uiso   1.00
N41    N     0.55388   0.66614   0.35636   0.00000  Uiso   1.00
N42    N     0.22758   0.43196   0.02614   0.00000  Uiso   1.00
N43    N     0.35881   0.24976   0.33436   0.00000  Uiso   1.00
N44    N     0.64512   0.64512   0.32997   0.00000  Uiso   1.00
N45    N     0.31882   0.41094   0.99975   0.00000  Uiso   1.00
N46    N     0.45005   0.22874   0.30797   0.00000  Uiso   1.00
C47    C     0.28300   0.36008   0.59416   0.00000  Uiso   1.00
C48    C     0.33702   0.42553   0.62537   0.00000  Uiso   1.00
C49    C     0.41188   0.44527   0.63044   0.00000  Uiso   1.00
C50    C     0.45184   0.50698   0.66070   0.00000  Uiso   1.00
C51    C     0.54086   0.60244   0.70551   0.00000  Uiso   1.00
C52    C     0.25099   0.33175   0.63890   0.00000  Uiso   1.00
C53    C     0.25350   0.27264   0.65534   0.00000  Uiso   1.00
C54    C     0.22103   0.25540   0.69698   0.00000  Uiso   1.00
C55    C     0.17644   0.20525   0.76275   0.00000  Uiso   1.00
C56    C     0.21841   0.37400   0.54885   0.00000  Uiso   1.00
C57    C     0.19351   0.35041   0.48957   0.00000  Uiso   1.00
C58    C     0.13360   0.36874   0.45539   0.00000  Uiso   1.00
C59    C     0.03842   0.38419   0.38135   0.00000  Uiso   1.00
C60    C     0.22086   0.43457   0.63888   0.00000  Uiso   1.00
C61    C     0.30326   0.46598   0.64967   0.00000  Uiso   1.00
C62    C     0.34312   0.52768   0.67993   0.00000  Uiso   1.00
C63    C     0.41803   0.54751   0.68504   0.00000  Uiso   1.00
C64    C     0.21724   0.37221   0.66319   0.00000  Uiso   1.00
C65    C     0.18475   0.35505   0.70482   0.00000  Uiso   1.00
C66    C     0.18722   0.29594   0.72132   0.00000  Uiso   1.00
C67    C     0.18465   0.41446   0.57314   0.00000  Uiso   1.00
C68    C     0.12476   0.43283   0.53905   0.00000  Uiso   1.00
C69    C     0.09978   0.40927   0.47973   0.00000  Uiso   1.00
H70    H     0.30928   0.32858   0.57524   0.00000  Uiso   1.00
H71    H     0.43798   0.41394   0.61164   0.00000  Uiso   1.00
H72    H     0.27962   0.24134   0.63653   0.00000  Uiso   1.00
H73    H     0.21965   0.31910   0.47078   0.00000  Uiso   1.00
H74    H     0.56579   0.52642   0.66272   0.00000  Uiso   1.00
H75    H     0.23187   0.16246   0.71518   0.00000  Uiso   1.00
H76    H     0.10539   0.32644   0.36568   0.00000  Uiso   1.00
H77    H     0.19458   0.46607   0.65780   0.00000  Uiso   1.00
H78    H     0.31699   0.55898   0.69872   0.00000  Uiso   1.00
H79    H     0.15863   0.38637   0.72361   0.00000  Uiso   1.00
H80    H     0.09865   0.46414   0.55787   0.00000  Uiso   1.00
H81    H     0.46759   0.64414   0.73340   0.00000  Uiso   1.00
H82    H     0.13366   0.28018   0.78586   0.00000  Uiso   1.00
H83    H     0.00719   0.44416   0.43636   0.00000  Uiso   1.00
O84    O     0.59929   0.64391   0.72351   0.00000  Uiso   1.00
O85    O     0.16118   0.16641   0.79233   0.00000  Uiso   1.00
O86    O     0.99525   0.38154   0.33379   0.00000  Uiso   1.00
N87    N     0.52588   0.54137   0.67373   0.00000  Uiso   1.00
N88    N     0.21369   0.20110   0.72278   0.00000  Uiso   1.00
N89    N     0.09543   0.35439   0.39603   0.00000  Uiso   1.00
N90    N     0.47304   0.60472   0.71176   0.00000  Uiso   1.00
N91    N     0.16084   0.26445   0.76082   0.00000  Uiso   1.00
N92    N     0.04259   0.41774   0.43406   0.00000  Uiso   1.00
C93    C     0.39995   0.17061   0.57537   0.00000  Uiso   1.00
C94    C     0.46293   0.19723   0.63316   0.00000  Uiso   1.00
C95    C     0.49906   0.26189   0.65551   0.00000  Uiso   1.00
C96    C     0.55525   0.27637   0.70907   0.00000  Uiso   1.00
C97    C     0.65014   0.32508   0.79421   0.00000  Uiso   1.00
C98    C     0.42622   0.12395   0.54112   0.00000  Uiso   1.00
C99    C     0.43147   0.12701   0.48608   0.00000  Uiso   1.00
C100   C     0.45674   0.07980   0.46216   0.00000  Uiso   1.00
C101   C     0.49457   0.01471   0.40439   0.00000  Uiso   1.00
C102   C     0.33505   0.12947   0.58978   0.00000  Uiso   1.00
C103   C     0.26364   0.13715   0.57565   0.00000  Uiso   1.00
C104   C     0.21216   0.09457   0.59269   0.00000  Uiso   1.00
C105   C     0.10844   0.03806   0.61048   0.00000  Uiso   1.00
C106   C     0.43548   0.08133   0.63074   0.00000  Uiso   1.00
C107   C     0.48223   0.14873   0.66323   0.00000  Uiso   1.00
C108   C     0.53838   0.16311   0.71677   0.00000  Uiso   1.00
C109   C     0.57459   0.22779   0.73920   0.00000  Uiso   1.00
C110   C     0.44552   0.07546   0.57119   0.00000  Uiso   1.00
C111   C     0.47078   0.02823   0.54734   0.00000  Uiso   1.00
C112   C     0.47608   0.03121   0.49229   0.00000  Uiso   1.00
C113   C     0.35435   0.08097   0.61986   0.00000  Uiso   1.00
C114   C     0.30296   0.03837   0.63692   0.00000  Uiso   1.00
C115   C     0.23149   0.04599   0.62282   0.00000  Uiso   1.00
H116   H     0.38492   0.20837   0.55195   0.00000  Uiso   1.00
H117   H     0.48411   0.29941   0.63222   0.00000  Uiso   1.00
H118   H     0.41652   0.16454   0.46282   0.00000  Uiso   1.00
H119   H     0.24873   0.17468   0.55238   0.00000  Uiso   1.00
H120   H     0.60262   0.37896   0.73446   0.00000  Uiso   1.00
H121   H     0.46007   0.09457   0.37726   0.00000  Uiso   1.00
H122   H     0.10624   0.11596   0.56611   0.00000  Uiso   1.00
H123   H     0.45051   0.04357   0.65416   0.00000  Uiso   1.00
H124   H     0.55331   0.12557   0.74004   0.00000  Uiso   1.00
H125   H     0.48571   0.99070   0.57063   0.00000  Uiso   1.00
H126   H     0.31792   0.00085   0.66019   0.00000  Uiso   1.00
H127   H     0.65878   0.23787   0.82197   0.00000  Uiso   1.00
H128   H     0.51623   0.95348   0.46476   0.00000  Uiso   1.00
H129   H     0.16240   0.97487   0.65362   0.00000  Uiso   1.00
O130   O     0.69715   0.36533   0.83286   0.00000  Uiso   1.00
O131   O     0.51012   0.99222   0.36421   0.00000  Uiso   1.00
O132   O     0.04591   0.02028   0.61199   0.00000  Uiso   1.00
N133   N     0.60172   0.33450   0.74328   0.00000  Uiso   1.00
N134   N     0.46845   0.06862   0.40932   0.00000  Uiso   1.00
N135   N     0.13765   0.08861   0.58586   0.00000  Uiso   1.00
N136   N     0.63194   0.25858   0.79037   0.00000  Uiso   1.00
N137   N     0.49867   0.99270   0.45640   0.00000  Uiso   1.00
N138   N     0.16787   0.01269   0.63295   0.00000  Uiso   1.00
C139   C     0.74546   0.90460   0.10879   0.00000  Uiso   1.00
C140   C     0.82597   0.92456   0.14966   0.00000  Uiso   1.00
C141   C     0.87299   0.98682   0.16621   0.00000  Uiso   1.00
C142   C     0.94463   0.99510   0.20396   0.00000  Uiso   1.00
C143   C     0.06602   0.03403   0.26433   0.00000  Uiso   1.00
C144   C     0.69871   0.87014   0.14258   0.00000  Uiso   1.00
C145   C     0.63872   0.88663   0.15316   0.00000  Uiso   1.00
C146   C     0.60324   0.84909   0.18494   0.00000  Uiso   1.00
C147   C     0.52702   0.80350   0.23428   0.00000  Uiso   1.00
C148   C     0.74161   0.85331   0.05993   0.00000  Uiso   1.00
C149   C     0.71767   0.85565   0.00102   0.00000  Uiso   1.00
C150   C     0.71829   0.80394   0.96322   0.00000  Uiso   1.00
C151   C     0.70869   0.73222   0.88424   0.00000  Uiso   1.00
C152   C     0.78911   0.80859   0.14642   0.00000  Uiso   1.00
C153   C     0.84967   0.87241   0.17010   0.00000  Uiso   1.00
C154   C     0.92127   0.88060   0.20784   0.00000  Uiso   1.00
C155   C     0.96839   0.94286   0.22444   0.00000  Uiso   1.00
C156   C     0.72242   0.81799   0.16302   0.00000  Uiso   1.00
C157   C     0.68701   0.78041   0.19479   0.00000  Uiso   1.00
C158   C     0.62699   0.79685   0.20542   0.00000  Uiso   1.00
C159   C     0.76532   0.80116   0.08037   0.00000  Uiso   1.00
C160   C     0.76597   0.74943   0.04266   0.00000  Uiso   1.00
C161   C     0.74204   0.75169   0.98370   0.00000  Uiso   1.00
H162   H     0.72701   0.94520   0.09288   0.00000  Uiso   1.00
H163   H     0.85462   0.02717   0.15038   0.00000  Uiso   1.00
H164   H     0.62039   0.92699   0.13733   0.00000  Uiso   1.00
H165   H     0.69934   0.89601   0.98522   0.00000  Uiso   1.00
H166   H     0.00654   0.09505   0.22316   0.00000  Uiso   1.00
H167   H     0.51264   0.88380   0.19562   0.00000  Uiso   1.00
H168   H     0.67911   0.81849   0.87487   0.00000  Uiso   1.00
H169   H     0.80756   0.76799   0.16234   0.00000  Uiso   1.00
H170   H     0.93960   0.84023   0.22365   0.00000  Uiso   1.00
H171   H     0.70537   0.74006   0.21060   0.00000  Uiso   1.00
H172   H     0.78431   0.70908   0.05849   0.00000  Uiso   1.00
H173   H     0.07552   0.94333   0.28263   0.00000  Uiso   1.00
H174   H     0.58161   0.73208   0.25509   0.00000  Uiso   1.00
H175   H     0.74809   0.66677   0.93434   0.00000  Uiso   1.00
O176   O     0.12643   0.06991   0.29199   0.00000  Uiso   1.00
O177   O     0.47844   0.79276   0.25585   0.00000  Uiso   1.00
O178   O     0.69685   0.70707   0.83503   0.00000  Uiso   1.00
N179   N     0.00466   0.04942   0.22874   0.00000  Uiso   1.00
N180   N     0.54290   0.85193   0.20299   0.00000  Uiso   1.00
N181   N     0.69852   0.79086   0.90312   0.00000  Uiso   1.00
N182   N     0.04178   0.96778   0.26074   0.00000  Uiso   1.00
N183   N     0.58001   0.77029   0.23499   0.00000  Uiso   1.00
N184   N     0.73563   0.70922   0.93511   0.00000  Uiso   1.00
C185   C     0.49845   0.90244   0.94091   0.00000  Uiso   1.00
C186   C     0.55240   0.96484   0.97925   0.00000  Uiso   1.00
C187   C     0.62398   0.99200   0.97886   0.00000  Uiso   1.00
C188   C     0.66448   0.04928   0.01726   0.00000  Uiso   1.00
C189   C     0.75281   0.14178   0.07109   0.00000  Uiso   1.00
C190   C     0.42788   0.91985   0.90843   0.00000  Uiso   1.00
C191   C     0.39475   0.90916   0.84849   0.00000  Uiso   1.00
C192   C     0.33042   0.92856   0.82726   0.00000  Uiso   1.00
C193   C     0.22539   0.95115   0.77113   0.00000  Uiso   1.00
C194   C     0.47713   0.85926   0.98224   0.00000  Uiso   1.00
C195   C     0.48541   0.79763   0.98435   0.00000  Uiso   1.00
C196   C     0.46253   0.76602   0.02526   0.00000  Uiso   1.00
C197   C     0.43398   0.69455   0.08373   0.00000  Uiso   1.00
C198   C     0.44308   0.95588   0.00978   0.00000  Uiso   1.00
C199   C     0.52232   0.99387   0.01666   0.00000  Uiso   1.00
C200   C     0.56273   0.05113   0.05507   0.00000  Uiso   1.00
C201   C     0.63435   0.07836   0.05474   0.00000  Uiso   1.00
C202   C     0.39780   0.94887   0.94584   0.00000  Uiso   1.00
C203   C     0.33350   0.96829   0.92469   0.00000  Uiso   1.00
C204   C     0.30029   0.95764   0.86474   0.00000  Uiso   1.00
C205   C     0.44706   0.88829   0.01965   0.00000  Uiso   1.00
C206   C     0.42416   0.85677   0.06056   0.00000  Uiso   1.00
C207   C     0.43240   0.79510   0.06273   0.00000  Uiso   1.00
H208   H     0.52186   0.87984   0.91178   0.00000  Uiso   1.00
H209   H     0.64723   0.96952   0.94990   0.00000  Uiso   1.00
H210   H     0.41804   0.88669   0.81955   0.00000  Uiso   1.00
H211   H     0.50868   0.77518   0.95539   0.00000  Uiso   1.00
H212   H     0.77296   0.08176   0.00865   0.00000  Uiso   1.00
H213   H     0.28967   0.90709   0.73380   0.00000  Uiso   1.00
H214   H     0.48081   0.67195   0.02025   0.00000  Uiso   1.00
H215   H     0.41967   0.97849   0.03891   0.00000  Uiso   1.00
H216   H     0.53944   0.07358   0.08401   0.00000  Uiso   1.00
H217   H     0.31024   0.99075   0.95366   0.00000  Uiso   1.00
H218   H     0.40089   0.87924   0.08950   0.00000  Uiso   1.00
H219   H     0.68547   0.16622   0.11750   0.00000  Uiso   1.00
H220   H     0.20218   0.99154   0.84264   0.00000  Uiso   1.00
H221   H     0.39332   0.75641   0.12909   0.00000  Uiso   1.00
O222   O     0.80983   0.18478   0.09044   0.00000  Uiso   1.00
O223   O     0.17578   0.95560   0.72984   0.00000  Uiso   1.00
O224   O     0.42655   0.64711   0.10565   0.00000  Uiso   1.00
N225   N     0.73593   0.08858   0.02809   0.00000  Uiso   1.00
N226   N     0.28410   0.92528   0.77111   0.00000  Uiso   1.00
N227   N     0.46278   0.70544   0.03891   0.00000  Uiso   1.00
N228   N     0.68886   0.13403   0.08666   0.00000  Uiso   1.00
N229   N     0.23702   0.97073   0.82968   0.00000  Uiso   1.00
N230   N     0.41570   0.75089   0.09748   0.00000  Uiso   1.00
C231   C     0.79909   0.94302   0.63854   0.00000  Uiso   1.00
C232   C     0.83530   0.01223   0.67098   0.00000  Uiso   1.00
C233   C     0.90986   0.03786   0.70441   0.00000  Uiso   1.00
C234   C     0.93207   0.10223   0.73055   0.00000  Uiso   1.00
C235   C     0.99600   0.20402   0.78197   0.00000  Uiso   1.00
C236   C     0.76335   0.94756   0.57512   0.00000  Uiso   1.00
C237   C     0.77740   0.91882   0.52796   0.00000  Uiso   1.00
C238   C     0.73904   0.92875   0.47342   0.00000  Uiso   1.00
C239   C     0.69121   0.93010   0.37602   0.00000  Uiso   1.00
C240   C     0.73481   0.91638   0.66059   0.00000  Uiso   1.00
C241   C     0.72486   0.86140   0.68528   0.00000  Uiso   1.00
C242   C     0.66246   0.84506   0.70268   0.00000  Uiso   1.00
C243   C     0.57033   0.79800   0.73799   0.00000  Uiso   1.00
C244   C     0.70597   0.01175   0.62552   0.00000  Uiso   1.00
C245   C     0.78472   0.04956   0.66390   0.00000  Uiso   1.00
C246   C     0.80682   0.11390   0.69001   0.00000  Uiso   1.00
C247   C     0.88140   0.13963   0.72347   0.00000  Uiso   1.00
C248   C     0.71277   0.98489   0.56805   0.00000  Uiso   1.00
C249   C     0.67437   0.99486   0.51357   0.00000  Uiso   1.00
C250   C     0.68836   0.96615   0.46634   0.00000  Uiso   1.00
C251   C     0.68423   0.95371   0.65352   0.00000  Uiso   1.00
C252   C     0.62183   0.93744   0.67088   0.00000  Uiso   1.00
C253   C     0.61179   0.88246   0.69560   0.00000  Uiso   1.00
H254   H     0.83847   0.91396   0.64404   0.00000  Uiso   1.00
H255   H     0.94898   0.00896   0.70986   0.00000  Uiso   1.00
H256   H     0.81654   0.88993   0.53345   0.00000  Uiso   1.00
H257   H     0.76401   0.83253   0.69074   0.00000  Uiso   1.00
H258   H     0.04921   0.13075   0.77971   0.00000  Uiso   1.00
H259   H     0.76993   0.87976   0.40773   0.00000  Uiso   1.00
H260   H     0.65916   0.75871   0.73941   0.00000  Uiso   1.00
H261   H     0.66658   0.04081   0.62002   0.00000  Uiso   1.00
H262   H     0.76767   0.14278   0.68453   0.00000  Uiso   1.00
H263   H     0.63523   0.02375   0.50811   0.00000  Uiso   1.00
H264   H     0.58270   0.96634   0.66541   0.00000  Uiso   1.00
H265   H     0.90205   0.23936   0.75914   0.00000  Uiso   1.00
H266   H     0.62277   0.98837   0.38716   0.00000  Uiso   1.00
H267   H     0.51200   0.86732   0.71885   0.00000  Uiso   1.00
O268   O     0.04523   0.24985   0.81228   0.00000  Uiso   1.00
O269   O     0.67882   0.92054   0.32425   0.00000  Uiso   1.00
O270   O     0.53349   0.76173   0.75942   0.00000  Uiso   1.00
N271   N     0.00070   0.14232   0.76602   0.00000  Uiso   1.00
N272   N     0.73960   0.90766   0.41824   0.00000  Uiso   1.00
N273   N     0.63603   0.79448   0.72833   0.00000  Uiso   1.00
N274   N     0.92151   0.20076   0.75496   0.00000  Uiso   1.00
N275   N     0.66041   0.96610   0.40718   0.00000  Uiso   1.00
N276   N     0.55684   0.85292   0.71726   0.00000  Uiso   1.00
C277   C     0.53319   0.56304   0.90100   0.00000  Uiso   1.00
C278   C     0.49214   0.49226   0.87617   0.00000  Uiso   1.00
C279   C     0.51514   0.45014   0.84386   0.00000  Uiso   1.00
C280   C     0.46981   0.38729   0.82511   0.00000  Uiso   1.00
C281   C     0.41612   0.28042   0.78459   0.00000  Uiso   1.00
C282   C     0.54666   0.57087   0.96623   0.00000  Uiso   1.00
C283   C     0.61550   0.59485   0.00964   0.00000  Uiso   1.00
C284   C     0.61605   0.59818   0.06670   0.00000  Uiso   1.00
C285   C     0.64700   0.61339   0.16599   0.00000  Uiso   1.00
C286   C     0.47756   0.60083   0.87715   0.00000  Uiso   1.00
C287   C     0.48832   0.65001   0.84568   0.00000  Uiso   1.00
C288   C     0.43071   0.67858   0.82775   0.00000  Uiso   1.00
C289   C     0.35439   0.74030   0.78875   0.00000  Uiso   1.00
C290   C     0.41177   0.52634   0.92515   0.00000  Uiso   1.00
C291   C     0.42619   0.47233   0.88929   0.00000  Uiso   1.00
C292   C     0.38081   0.40953   0.87058   0.00000  Uiso   1.00
C293   C     0.40374   0.36732   0.83825   0.00000  Uiso   1.00
C294   C     0.48071   0.55094   0.97934   0.00000  Uiso   1.00
C295   C     0.48117   0.55424   0.03635   0.00000  Uiso   1.00
C296   C     0.54999   0.57821   0.07984   0.00000  Uiso   1.00
C297   C     0.41162   0.58089   0.89027   0.00000  Uiso   1.00
C298   C     0.35399   0.60940   0.87239   0.00000  Uiso   1.00
C299   C     0.36465   0.65861   0.84090   0.00000  Uiso   1.00
H300   H     0.58453   0.57856   0.89079   0.00000  Uiso   1.00
H301   H     0.56618   0.46558   0.83372   0.00000  Uiso   1.00
H302   H     0.66652   0.61027   0.99947   0.00000  Uiso   1.00
H303   H     0.53936   0.66542   0.83553   0.00000  Uiso   1.00
H304   H     0.51677   0.33153   0.77626   0.00000  Uiso   1.00
H305   H     0.72834   0.63664   0.12575   0.00000  Uiso   1.00
H306   H     0.46020   0.75293   0.78006   0.00000  Uiso   1.00
H307   H     0.36043   0.51082   0.93536   0.00000  Uiso   1.00
H308   H     0.32978   0.39412   0.88074   0.00000  Uiso   1.00
H309   H     0.43012   0.53881   0.04649   0.00000  Uiso   1.00
H310   H     0.30296   0.59396   0.88255   0.00000  Uiso   1.00
H311   H     0.32490   0.27352   0.81442   0.00000  Uiso   1.00
H312   H     0.53647   0.57864   0.16391   0.00000  Uiso   1.00
H313   H     0.26832   0.69493   0.81822   0.00000  Uiso   1.00
O314   O     0.40473   0.22697   0.75862   0.00000  Uiso   1.00
O315   O     0.68230   0.62728   0.21714   0.00000  Uiso   1.00
O316   O     0.33050   0.77985   0.76360   0.00000  Uiso   1.00
N317   N     0.47581   0.33389   0.79273   0.00000  Uiso   1.00
N318   N     0.67362   0.61915   0.11948   0.00000  Uiso   1.00
N319   N     0.42293   0.72788   0.79630   0.00000  Uiso   1.00
N320   N     0.37257   0.30268   0.81326   0.00000  Uiso   1.00
N321   N     0.57037   0.58794   0.14001   0.00000  Uiso   1.00
N322   N     0.31969   0.69667   0.81684   0.00000  Uiso   1.00
C323   C     0.67841   0.52379   0.59087   0.00000  Uiso   1.00
C324   C     0.60857   0.46832   0.56004   0.00000  Uiso   1.00
C325   C     0.54204   0.47369   0.52261   0.00000  Uiso   1.00
C326   C     0.48471   0.41724   0.49880   0.00000  Uiso   1.00
C327   C     0.37491   0.34017   0.44890   0.00000  Uiso   1.00
C328   C     0.74118   0.50609   0.57360   0.00000  Uiso   1.00
C329   C     0.78615   0.54322   0.54758   0.00000  Uiso   1.00
C330   C     0.84046   0.51857   0.53519   0.00000  Uiso   1.00
C331   C     0.93657   0.50017   0.50638   0.00000  Uiso   1.00
C332   C     0.69680   0.52173   0.65560   0.00000  Uiso   1.00
C333   C     0.70447   0.57200   0.69854   0.00000  Uiso   1.00
C334   C     0.72143   0.56051   0.75519   0.00000  Uiso   1.00
C335   C     0.74863   0.56638   0.85370   0.00000  Uiso   1.00
C336   C     0.69490   0.41400   0.61513   0.00000  Uiso   1.00
C337   C     0.61753   0.40869   0.57321   0.00000  Uiso   1.00
C338   C     0.56028   0.35222   0.54945   0.00000  Uiso   1.00
C339   C     0.49368   0.35750   0.51200   0.00000  Uiso   1.00
C340   C     0.75014   0.44646   0.58677   0.00000  Uiso   1.00
C341   C     0.80439   0.42175   0.57442   0.00000  Uiso   1.00
C342   C     0.84943   0.45883   0.54839   0.00000  Uiso   1.00
C343   C     0.70575   0.46209   0.66877   0.00000  Uiso   1.00
C344   C     0.72271   0.45053   0.72537   0.00000  Uiso   1.00
C345   C     0.73040   0.50077   0.76839   0.00000  Uiso   1.00
H346   H     0.67145   0.57022   0.58061   0.00000  Uiso   1.00
H347   H     0.53513   0.51985   0.51243   0.00000  Uiso   1.00
H348   H     0.77921   0.58937   0.53740   0.00000  Uiso   1.00
H349   H     0.69753   0.61814   0.68833   0.00000  Uiso   1.00
H350   H     0.38796   0.43769   0.44262   0.00000  Uiso   1.00
H351   H     0.90263   0.58430   0.49529   0.00000  Uiso   1.00
H352   H     0.73041   0.64497   0.81356   0.00000  Uiso   1.00
H353   H     0.70188   0.36758   0.62538   0.00000  Uiso   1.00
H354   H     0.56723   0.30608   0.55965   0.00000  Uiso   1.00
H355   H     0.81131   0.37560   0.58462   0.00000  Uiso   1.00
H356   H     0.72963   0.40437   0.73555   0.00000  Uiso   1.00
H357   H     0.41401   0.26419   0.48095   0.00000  Uiso   1.00
H358   H     0.92869   0.41080   0.53362   0.00000  Uiso   1.00
H359   H     0.75646   0.47147   0.85189   0.00000  Uiso   1.00
O360   O     0.31187   0.31414   0.41772   0.00000  Uiso   1.00
O361   O     0.98710   0.50649   0.48684   0.00000  Uiso   1.00
O362   O     0.76115   0.58609   0.90439   0.00000  Uiso   1.00
N363   N     0.41257   0.40530   0.46067   0.00000  Uiso   1.00
N364   N     0.89374   0.54237   0.50991   0.00000  Uiso   1.00
N365   N     0.73275   0.59909   0.80746   0.00000  Uiso   1.00
N366   N     0.42658   0.31194   0.48130   0.00000  Uiso   1.00
N367   N     0.90776   0.44901   0.53053   0.00000  Uiso   1.00
N368   N     0.74677   0.50573   0.82808   0.00000  Uiso   1.00
C369   C     0.44204   0.64995   0.55624   0.00000  Uiso   1.00
C370   C     0.39000   0.61092   0.49727   0.00000  Uiso   1.00
C371   C     0.35154   0.54614   0.48640   0.00000  Uiso   1.00
C372   C     0.30672   0.51928   0.42950   0.00000  Uiso   1.00
C373   C     0.22681   0.45310   0.34469   0.00000  Uiso   1.00
C374   C     0.41175   0.70691   0.56750   0.00000  Uiso   1.00
C375   C     0.39160   0.72284   0.61568   0.00000  Uiso   1.00
C376   C     0.36510   0.77678   0.61790   0.00000  Uiso   1.00
C377   C     0.31901   0.85965   0.64215   0.00000  Uiso   1.00
C378   C     0.51669   0.67827   0.54796   0.00000  Uiso   1.00
C379   C     0.58477   0.67015   0.57971   0.00000  Uiso   1.00
C380   C     0.64662   0.69999   0.56548   0.00000  Uiso   1.00
C381   C     0.76346   0.73841   0.55938   0.00000  Uiso   1.00
C382   C     0.43083   0.71743   0.47452   0.00000  Uiso   1.00
C383   C     0.38391   0.64757   0.45289   0.00000  Uiso   1.00
C384   C     0.33913   0.62079   0.39598   0.00000  Uiso   1.00
C385   C     0.30062   0.55599   0.38503   0.00000  Uiso   1.00
C386   C     0.40566   0.74356   0.52312   0.00000  Uiso   1.00
C387   C     0.37919   0.79749   0.52527   0.00000  Uiso   1.00
C388   C     0.35899   0.81350   0.57344   0.00000  Uiso   1.00
C389   C     0.51060   0.71492   0.50357   0.00000  Uiso   1.00
C390   C     0.57236   0.74479   0.48929   0.00000  Uiso   1.00
C391   C     0.64052   0.73671   0.52102   0.00000  Uiso   1.00
H392   H     0.44678   0.62143   0.59080   0.00000  Uiso   1.00
H393   H     0.35627   0.51780   0.52076   0.00000  Uiso   1.00
H394   H     0.39632   0.69448   0.65003   0.00000  Uiso   1.00
H395   H     0.58946   0.64179   0.61406   0.00000  Uiso   1.00
H396   H     0.25320   0.41908   0.42354   0.00000  Uiso   1.00
H397   H     0.33769   0.79162   0.69611   0.00000  Uiso   1.00
H398   H     0.74496   0.68052   0.62026   0.00000  Uiso   1.00
H399   H     0.42608   0.74596   0.43997   0.00000  Uiso   1.00
H400   H     0.33443   0.64916   0.36164   0.00000  Uiso   1.00
H401   H     0.37449   0.82584   0.49091   0.00000  Uiso   1.00
H402   H     0.56762   0.77315   0.45494   0.00000  Uiso   1.00
H403   H     0.23548   0.52570   0.29439   0.00000  Uiso   1.00
H404   H     0.31997   0.89824   0.56697   0.00000  Uiso   1.00
H405   H     0.72724   0.78714   0.49112   0.00000  Uiso   1.00
O406   O     0.18440   0.40648   0.31017   0.00000  Uiso   1.00
O407   O     0.29526   0.89524   0.66779   0.00000  Uiso   1.00
O408   O     0.82959   0.74947   0.56827   0.00000  Uiso   1.00
N409   N     0.26162   0.45745   0.40389   0.00000  Uiso   1.00
N410   N     0.34060   0.80575   0.65873   0.00000  Uiso   1.00
N411   N     0.72137   0.70189   0.58782   0.00000  Uiso   1.00
N412   N     0.25208   0.51483   0.33440   0.00000  Uiso   1.00
N413   N     0.33106   0.86312   0.58924   0.00000  Uiso   1.00
N414   N     0.71183   0.75926   0.51833   0.00000  Uiso   1.00
C415   C     0.06282   0.10071   0.03841   0.00000  Uiso   1.00
C416   C     0.98123   0.07455   0.00027   0.00000  Uiso   1.00
C417   C     0.94277   0.00996   0.98021   0.00000  Uiso   1.00
C418   C     0.86843   0.99593   0.94584   0.00000  Uiso   1.00
C419   C     0.74700   0.94788   0.88869   0.00000  Uiso   1.00
C420   C     0.10027   0.14620   0.00547   0.00000  Uiso   1.00
C421   C     0.16191   0.14184   0.98979   0.00000  Uiso   1.00
C422   C     0.18778   0.18812   0.95980   0.00000  Uiso   1.00
C423   C     0.25120   0.25133   0.91077   0.00000  Uiso   1.00
C424   C     0.06336   0.14302   0.09211   0.00000  Uiso   1.00
C425   C     0.09398   0.13600   0.14927   0.00000  Uiso   1.00
C426   C     0.08880   0.17962   0.19223   0.00000  Uiso   1.00
C427   C     0.09492   0.23790   0.27771   0.00000  Uiso   1.00
C428   C     0.99919   0.19066   0.01306   0.00000  Uiso   1.00
C429   C     0.94667   0.12342   0.98650   0.00000  Uiso   1.00
C430   C     0.87236   0.10948   0.95216   0.00000  Uiso   1.00
C431   C     0.83380   0.04487   0.93204   0.00000  Uiso   1.00
C432   C     0.06571   0.19505   0.99170   0.00000  Uiso   1.00
C433   C     0.09150   0.24136   0.96174   0.00000  Uiso   1.00
C434   C     0.15316   0.23707   0.94601   0.00000  Uiso   1.00
C435   C     0.02880   0.19188   0.07834   0.00000  Uiso   1.00
C436   C     0.02357   0.23552   0.12122   0.00000  Uiso   1.00
C437   C     0.05417   0.22857   0.17844   0.00000  Uiso   1.00
H438   H     0.08973   0.06267   0.04913   0.00000  Uiso   1.00
H439   H     0.96954   0.97216   0.99087   0.00000  Uiso   1.00
H440   H     0.18864   0.10402   0.00045   0.00000  Uiso   1.00
H441   H     0.12072   0.09819   0.15991   0.00000  Uiso   1.00
H442   H     0.82104   0.89336   0.92018   0.00000  Uiso   1.00
H443   H     0.28306   0.17141   0.94041   0.00000  Uiso   1.00
H444   H     0.13984   0.15911   0.27666   0.00000  Uiso   1.00
H445   H     0.97228   0.22870   0.00234   0.00000  Uiso   1.00
H446   H     0.84563   0.14730   0.94151   0.00000  Uiso   1.00
H447   H     0.06474   0.27916   0.95109   0.00000  Uiso   1.00
H448   H     0.99682   0.27333   0.11055   0.00000  Uiso   1.00
H449   H     0.72048   0.03551   0.88012   0.00000  Uiso   1.00
H450   H     0.18250   0.31356   0.90035   0.00000  Uiso   1.00
H451   H     0.03928   0.30126   0.23660   0.00000  Uiso   1.00
O452   O     0.68958   0.90789   0.86096   0.00000  Uiso   1.00
O453   O     0.29573   0.27269   0.88752   0.00000  Uiso   1.00
O454   O     0.10783   0.25655   0.32866   0.00000  Uiso   1.00
N455   N     0.81475   0.93798   0.91911   0.00000  Uiso   1.00
N456   N     0.24670   0.19794   0.93802   0.00000  Uiso   1.00
N457   N     0.11282   0.18645   0.25238   0.00000  Uiso   1.00
N458   N     0.76064   0.01447   0.89755   0.00000  Uiso   1.00
N459   N     0.19259   0.27443   0.91646   0.00000  Uiso   1.00
N460   N     0.05871   0.26294   0.23082   0.00000  Uiso   1.00
C461   C     0.21553   0.00623   0.18717   0.00000  Uiso   1.00
C462   C     0.15731   0.95977   0.13425   0.00000  Uiso   1.00
C463   C     0.08058   0.94825   0.11969   0.00000  Uiso   1.00
C464   C     0.03677   0.90396   0.06954   0.00000  Uiso   1.00
C465   C     0.94153   0.83660   0.99261   0.00000  Uiso   1.00
C466   C     0.26287   0.96635   0.22030   0.00000  Uiso   1.00
C467   C     0.27491   0.96039   0.27810   0.00000  Uiso   1.00
C468   C     0.31997   0.92165   0.30039   0.00000  Uiso   1.00
C469   C     0.38866   0.86455   0.35707   0.00000  Uiso   1.00
C470   C     0.26659   0.05269   0.16365   0.00000  Uiso   1.00
C471   C     0.28177   0.11932   0.17382   0.00000  Uiso   1.00
C472   C     0.32998   0.15328   0.14842   0.00000  Uiso   1.00
C473   C     0.40443   0.23024   0.11713   0.00000  Uiso   1.00
C474   C     0.27416   0.94805   0.12398   0.00000  Uiso   1.00
C475   C     0.18916   0.92817   0.09993   0.00000  Uiso   1.00
C476   C     0.14545   0.88388   0.04978   0.00000  Uiso   1.00
C477   C     0.06868   0.87230   0.03515   0.00000  Uiso   1.00
C478   C     0.29472   0.93475   0.18599   0.00000  Uiso   1.00
C479   C     0.33978   0.89602   0.20819   0.00000  Uiso   1.00
C480   C     0.35188   0.88999   0.26601   0.00000  Uiso   1.00
C481   C     0.29843   0.02109   0.12932   0.00000  Uiso   1.00
C482   C     0.34664   0.05495   0.10391   0.00000  Uiso   1.00
C483   C     0.36188   0.12162   0.11403   0.00000  Uiso   1.00
H484   H     0.19074   0.03083   0.21389   0.00000  Uiso   1.00
H485   H     0.05596   0.97271   0.14627   0.00000  Uiso   1.00
H486   H     0.25026   0.98485   0.30465   0.00000  Uiso   1.00
H487   H     0.25712   0.14376   0.20038   0.00000  Uiso   1.00
H488   H     0.92057   0.89432   0.05617   0.00000  Uiso   1.00
H489   H     0.33030   0.91994   0.39014   0.00000  Uiso   1.00
H490   H     0.34475   0.25503   0.17027   0.00000  Uiso   1.00
H491   H     0.29896   0.92345   0.09726   0.00000  Uiso   1.00
H492   H     0.17011   0.85943   0.02323   0.00000  Uiso   1.00
H493   H     0.36442   0.87158   0.18162   0.00000  Uiso   1.00
H494   H     0.37127   0.03048   0.07735   0.00000  Uiso   1.00
H495   H     0.01323   0.80238   0.95631   0.00000  Uiso   1.00
H496   H     0.42295   0.82800   0.29028   0.00000  Uiso   1.00
H497   H     0.43740   0.16309   0.07041   0.00000  Uiso   1.00
O498   O     0.88019   0.80817   0.95966   0.00000  Uiso   1.00
O499   O     0.41774   0.84179   0.39782   0.00000  Uiso   1.00
O500   O     0.43670   0.28141   0.10935   0.00000  Uiso   1.00
N501   N     0.96006   0.88148   0.04282   0.00000  Uiso   1.00
N502   N     0.34312   0.90542   0.35506   0.00000  Uiso   1.00
N503   N     0.35665   0.21870   0.14951   0.00000  Uiso   1.00
N504   N     0.00992   0.83201   0.98909   0.00000  Uiso   1.00
N505   N     0.39297   0.85595   0.30133   0.00000  Uiso   1.00
N506   N     0.40650   0.16923   0.09578   0.00000  Uiso   1.00
C507   C     0.03548   0.14807   0.41796   0.00000  Uiso   1.00
C508   C     0.95974   0.11406   0.37251   0.00000  Uiso   1.00
C509   C     0.92948   0.13272   0.32001   0.00000  Uiso   1.00
C510   C     0.85945   0.09523   0.28443   0.00000  Uiso   1.00
C511   C     0.74766   0.05067   0.21138   0.00000  Uiso   1.00
C512   C     0.02019   0.16448   0.47441   0.00000  Uiso   1.00
C513   C     0.04077   0.22554   0.50759   0.00000  Uiso   1.00
C514   C     0.02162   0.23050   0.55779   0.00000  Uiso   1.00
C515   C     0.00373   0.26422   0.64297   0.00000  Uiso   1.00
C516   C     0.07815   0.09732   0.42762   0.00000  Uiso   1.00
C517   C     0.14747   0.10190   0.42149   0.00000  Uiso   1.00
C518   C     0.17714   0.05031   0.43232   0.00000  Uiso   1.00
C519   C     0.24924   0.97975   0.44485   0.00000  Uiso   1.00
C520   C     0.96492   0.04831   0.44811   0.00000  Uiso   1.00
C521   C     0.92141   0.05987   0.38889   0.00000  Uiso   1.00
C522   C     0.85141   0.02234   0.35337   0.00000  Uiso   1.00
C523   C     0.82105   0.04094   0.30084   0.00000  Uiso   1.00
C524   C     0.98186   0.11030   0.49078   0.00000  Uiso   1.00
C525   C     0.96269   0.11516   0.54095   0.00000  Uiso   1.00
C526   C     0.98323   0.17621   0.57420   0.00000  Uiso   1.00
C527   C     0.03982   0.04313   0.44400   0.00000  Uiso   1.00
C528   C     0.06939   0.99152   0.45485   0.00000  Uiso   1.00
C529   C     0.13874   0.99603   0.44873   0.00000  Uiso   1.00
H530   H     0.06532   0.19026   0.40521   0.00000  Uiso   1.00
H531   H     0.95916   0.17466   0.30736   0.00000  Uiso   1.00
H532   H     0.07043   0.26747   0.49491   0.00000  Uiso   1.00
H533   H     0.17712   0.14384   0.40881   0.00000  Uiso   1.00
H534   H     0.82454   0.13347   0.20610   0.00000  Uiso   1.00
H535   H     0.05919   0.32916   0.60158   0.00000  Uiso   1.00
H536   H     0.28416   0.06848   0.42003   0.00000  Uiso   1.00
H537   H     0.93508   0.00612   0.46086   0.00000  Uiso   1.00
H538   H     0.82176   0.98041   0.36606   0.00000  Uiso   1.00
H539   H     0.93303   0.07322   0.55362   0.00000  Uiso   1.00
H540   H     0.03972   0.94960   0.46752   0.00000  Uiso   1.00
H541   H     0.71302   0.97581   0.25375   0.00000  Uiso   1.00
H542   H     0.94767   0.17151   0.64923   0.00000  Uiso   1.00
H543   H     0.17264   0.91082   0.46768   0.00000  Uiso   1.00
O544   O     0.69658   0.04106   0.16657   0.00000  Uiso   1.00
O545   O     0.00444   0.29780   0.68542   0.00000  Uiso   1.00
O546   O     0.29959   0.95579   0.44723   0.00000  Uiso   1.00
N547   N     0.81385   0.09989   0.23032   0.00000  Uiso   1.00
N548   N     0.03322   0.28285   0.60006   0.00000  Uiso   1.00
N549   N     0.24356   0.03914   0.43035   0.00000  Uiso   1.00
N550   N     0.75384   0.01505   0.25596   0.00000  Uiso   1.00
N551   N     0.97322   0.19801   0.62570   0.00000  Uiso   1.00
N552   N     0.18355   0.95431   0.45599   0.00000  Uiso   1.00
