data_job_06523
_audit_creation_date              2018-12-19
_audit_creation_method            'Materials Studio'
_symmetry_space_group_name_H-M    'P1'
_symmetry_Int_Tables_number       1
_symmetry_cell_setting            triclinic
loop_
_symmetry_equiv_pos_as_xyz
  x,y,z
_cell_length_a                    20.5837
_cell_length_b                    21.0602
_cell_length_c                    20.3268
_cell_angle_alpha                 106.4110
_cell_angle_beta                  115.2930
_cell_angle_gamma                 103.9190
loop_
_atom_site_label
_atom_site_type_symbol
_atom_site_fract_x
_atom_site_fract_y
_atom_site_fract_z
_atom_site_U_iso_or_equiv
_atom_site_adp_type
_atom_site_occupancy
C1     C     0.74433   0.29182   0.45960   0.00000  Uiso   1.00
C2     C     0.72998   0.22974   0.48343   0.00000  Uiso   1.00
C3     C     0.78422   0.20189   0.51557   0.00000  Uiso   1.00
C4     C     0.75971   0.14505   0.53335   0.00000  Uiso   1.00
C5     C     0.74897   0.05289   0.57242   0.00000  Uiso   1.00
C6     C     0.67955   0.26155   0.37083   0.00000  Uiso   1.00
C7     C     0.69139   0.26045   0.30830   0.00000  Uiso   1.00
C8     C     0.62442   0.23039   0.23129   0.00000  Uiso   1.00
C9     C     0.53539   0.18765   0.09557   0.00000  Uiso   1.00
C10    C     0.72752   0.34894   0.50700   0.00000  Uiso   1.00
C11    C     0.77969   0.42132   0.55895   0.00000  Uiso   1.00
C12    C     0.75310   0.46485   0.59657   0.00000  Uiso   1.00
C13    C     0.73856   0.55780   0.67227   0.00000  Uiso   1.00
C14    C     0.60433   0.24041   0.43401   0.00000  Uiso   1.00
C15    C     0.65393   0.20182   0.46953   0.00000  Uiso   1.00
C16    C     0.62933   0.14501   0.48727   0.00000  Uiso   1.00
C17    C     0.68353   0.11708   0.51943   0.00000  Uiso   1.00
C18    C     0.60350   0.23363   0.35693   0.00000  Uiso   1.00
C19    C     0.53649   0.20357   0.28000   0.00000  Uiso   1.00
C20    C     0.54823   0.20242   0.21737   0.00000  Uiso   1.00
C21    C     0.65148   0.32102   0.49310   0.00000  Uiso   1.00
C22    C     0.62480   0.36444   0.53065   0.00000  Uiso   1.00
C23    C     0.67692   0.43688   0.58265   0.00000  Uiso   1.00
H24    H     0.80353   0.31356   0.47041   0.00000  Uiso   1.00
H25    H     0.84307   0.22351   0.52631   0.00000  Uiso   1.00
H26    H     0.75025   0.28206   0.31907   0.00000  Uiso   1.00
H27    H     0.83854   0.44291   0.56969   0.00000  Uiso   1.00
H28    H     0.85335   0.11134   0.58212   0.00000  Uiso   1.00
H29    H     0.65764   0.23483   0.14517   0.00000  Uiso   1.00
H30    H     0.84381   0.57401   0.67363   0.00000  Uiso   1.00
H31    H     0.54512   0.21867   0.42319   0.00000  Uiso   1.00
H32    H     0.57047   0.12342   0.47651   0.00000  Uiso   1.00
H33    H     0.47766   0.18197   0.26927   0.00000  Uiso   1.00
H34    H     0.56594   0.34282   0.51988   0.00000  Uiso   1.00
H35    H     0.63210   0.03010   0.54170   0.00000  Uiso   1.00
H36    H     0.43639   0.15360   0.10474   0.00000  Uiso   1.00
H37    H     0.62256   0.49277   0.63320   0.00000  Uiso   1.00
O38    O     0.76406   0.00975   0.59781   0.00000  Uiso   1.00
O39    O     0.50729   0.17179   0.02454   0.00000  Uiso   1.00
O40    O     0.75155   0.61677   0.71787   0.00000  Uiso   1.00
N41    N     0.79781   0.10530   0.56531   0.00000  Uiso   1.00
N42    N     0.61482   0.22075   0.15678   0.00000  Uiso   1.00
N43    N     0.78888   0.53786   0.65083   0.00000  Uiso   1.00
N44    N     0.67875   0.06159   0.54356   0.00000  Uiso   1.00
N45    N     0.49577   0.17704   0.13503   0.00000  Uiso   1.00
N46    N     0.66982   0.49414   0.62908   0.00000  Uiso   1.00
C47    C     0.52672   0.73182   0.25805   0.00000  Uiso   1.00
C48    C     0.52800   0.72654   0.18226   0.00000  Uiso   1.00
C49    C     0.50555   0.76697   0.14038   0.00000  Uiso   1.00
C50    C     0.51103   0.75410   0.07248   0.00000  Uiso   1.00
C51    C     0.50888   0.75371   0.95859   0.00000  Uiso   1.00
C52    C     0.47558   0.65514   0.23800   0.00000  Uiso   1.00
C53    C     0.40906   0.63556   0.24300   0.00000  Uiso   1.00
C54    C     0.37041   0.56259   0.22203   0.00000  Uiso   1.00
C55    C     0.28690   0.45137   0.19473   0.00000  Uiso   1.00
C56    C     0.61059   0.74883   0.32226   0.00000  Uiso   1.00
C57    C     0.65760   0.80800   0.39812   0.00000  Uiso   1.00
C58    C     0.73262   0.81391   0.44809   0.00000  Uiso   1.00
C59    C     0.85875   0.84815   0.55162   0.00000  Uiso   1.00
C60    C     0.57637   0.63707   0.21192   0.00000  Uiso   1.00
C61    C     0.55496   0.67507   0.15720   0.00000  Uiso   1.00
C62    C     0.56048   0.66214   0.08935   0.00000  Uiso   1.00
C63    C     0.53804   0.70255   0.04738   0.00000  Uiso   1.00
C64    C     0.50254   0.60368   0.21294   0.00000  Uiso   1.00
C65    C     0.46398   0.53073   0.19196   0.00000  Uiso   1.00
C66    C     0.39742   0.51103   0.19692   0.00000  Uiso   1.00
C67    C     0.63756   0.69737   0.29720   0.00000  Uiso   1.00
C68    C     0.71252   0.70318   0.34707   0.00000  Uiso   1.00
C69    C     0.75963   0.76235   0.42299   0.00000  Uiso   1.00
H70    H     0.50572   0.77188   0.27755   0.00000  Uiso   1.00
H71    H     0.48468   0.80679   0.15979   0.00000  Uiso   1.00
H72    H     0.38821   0.67539   0.26240   0.00000  Uiso   1.00
H73    H     0.63671   0.84782   0.41749   0.00000  Uiso   1.00
H74    H     0.47321   0.82277   0.01816   0.00000  Uiso   1.00
H75    H     0.26981   0.54573   0.23454   0.00000  Uiso   1.00
H76    H     0.79383   0.90932   0.56158   0.00000  Uiso   1.00
H77    H     0.59736   0.59700   0.19241   0.00000  Uiso   1.00
H78    H     0.58135   0.62231   0.06997   0.00000  Uiso   1.00
H79    H     0.48487   0.49092   0.17258   0.00000  Uiso   1.00
H80    H     0.73337   0.66334   0.32767   0.00000  Uiso   1.00
H81    H     0.55167   0.67305   0.94526   0.00000  Uiso   1.00
H82    H     0.34827   0.39601   0.16165   0.00000  Uiso   1.00
H83    H     0.87228   0.75959   0.48868   0.00000  Uiso   1.00
O84    O     0.50023   0.76770   0.90269   0.00000  Uiso   1.00
O85    O     0.23339   0.40424   0.18659   0.00000  Uiso   1.00
O86    O     0.92088   0.88125   0.61565   0.00000  Uiso   1.00
N87    N     0.49389   0.78407   0.01782   0.00000  Uiso   1.00
N88    N     0.30372   0.52505   0.22011   0.00000  Uiso   1.00
N89    N     0.79362   0.86496   0.52587   0.00000  Uiso   1.00
N90    N     0.53611   0.70350   0.97859   0.00000  Uiso   1.00
N91    N     0.34593   0.44449   0.18088   0.00000  Uiso   1.00
N92    N     0.83583   0.78440   0.48664   0.00000  Uiso   1.00
C93    C     0.34277   0.34735   0.82217   0.00000  Uiso   1.00
C94    C     0.29436   0.38154   0.84665   0.00000  Uiso   1.00
C95    C     0.31128   0.41464   0.92501   0.00000  Uiso   1.00
C96    C     0.25972   0.44260   0.93478   0.00000  Uiso   1.00
C97    C     0.19458   0.49642   0.98285   0.00000  Uiso   1.00
C98    C     0.28578   0.26886   0.76001   0.00000  Uiso   1.00
C99    C     0.29550   0.20721   0.76553   0.00000  Uiso   1.00
C100   C     0.23672   0.14031   0.70236   0.00000  Uiso   1.00
C101   C     0.15829   0.01919   0.61591   0.00000  Uiso   1.00
C102   C     0.36478   0.38534   0.77626   0.00000  Uiso   1.00
C103   C     0.44092   0.42161   0.79541   0.00000  Uiso   1.00
C104   C     0.44865   0.45277   0.74591   0.00000  Uiso   1.00
C105   C     0.49288   0.51250   0.68468   0.00000  Uiso   1.00
C106   C     0.22109   0.33815   0.70018   0.00000  Uiso   1.00
C107   C     0.22827   0.37654   0.78038   0.00000  Uiso   1.00
C108   C     0.17666   0.40446   0.79004   0.00000  Uiso   1.00
C109   C     0.19351   0.43760   0.86840   0.00000  Uiso   1.00
C110   C     0.21969   0.26386   0.69375   0.00000  Uiso   1.00
C111   C     0.16088   0.19704   0.63056   0.00000  Uiso   1.00
C112   C     0.17051   0.13531   0.63598   0.00000  Uiso   1.00
C113   C     0.29869   0.38034   0.70999   0.00000  Uiso   1.00
C114   C     0.30630   0.41144   0.66045   0.00000  Uiso   1.00
C115   C     0.38244   0.44776   0.67953   0.00000  Uiso   1.00
H116   H     0.39422   0.35123   0.87375   0.00000  Uiso   1.00
H117   H     0.36243   0.41849   0.97627   0.00000  Uiso   1.00
H118   H     0.34666   0.21110   0.81681   0.00000  Uiso   1.00
H119   H     0.49205   0.42547   0.84669   0.00000  Uiso   1.00
H120   H     0.29803   0.49082   0.06070   0.00000  Uiso   1.00
H121   H     0.26478   0.05353   0.72446   0.00000  Uiso   1.00
H122   H     0.57137   0.50557   0.78747   0.00000  Uiso   1.00
H123   H     0.16963   0.33426   0.64859   0.00000  Uiso   1.00
H124   H     0.12552   0.40059   0.73875   0.00000  Uiso   1.00
H125   H     0.10975   0.19319   0.57929   0.00000  Uiso   1.00
H126   H     0.25514   0.40756   0.60917   0.00000  Uiso   1.00
H127   H     0.10574   0.47629   0.86792   0.00000  Uiso   1.00
H128   H     0.07249   0.03900   0.53167   0.00000  Uiso   1.00
H129   H     0.37908   0.49104   0.59469   0.00000  Uiso   1.00
O130   O     0.17690   0.52747   0.02768   0.00000  Uiso   1.00
O131   O     0.13329   0.95376   0.58654   0.00000  Uiso   1.00
O132   O     0.53553   0.54683   0.66922   0.00000  Uiso   1.00
N133   N     0.25883   0.47832   0.00295   0.00000  Uiso   1.00
N134   N     0.22774   0.06947   0.68860   0.00000  Uiso   1.00
N135   N     0.51438   0.49207   0.74750   0.00000  Uiso   1.00
N136   N     0.15537   0.47050   0.89922   0.00000  Uiso   1.00
N137   N     0.12427   0.06165   0.58486   0.00000  Uiso   1.00
N138   N     0.41091   0.48425   0.64377   0.00000  Uiso   1.00
C139   C     0.40195   0.84599   0.74488   0.00000  Uiso   1.00
C140   C     0.41106   0.87285   0.68575   0.00000  Uiso   1.00
C141   C     0.48000   0.89666   0.68565   0.00000  Uiso   1.00
C142   C     0.47618   0.91903   0.62655   0.00000  Uiso   1.00
C143   C     0.50100   0.96091   0.54337   0.00000  Uiso   1.00
C144   C     0.33501   0.76977   0.69312   0.00000  Uiso   1.00
C145   C     0.34001   0.70690   0.69922   0.00000  Uiso   1.00
C146   C     0.27216   0.64250   0.64634   0.00000  Uiso   1.00
C147   C     0.17890   0.52435   0.57464   0.00000  Uiso   1.00
C148   C     0.37112   0.89357   0.78397   0.00000  Uiso   1.00
C149   C     0.40646   0.93479   0.86647   0.00000  Uiso   1.00
C150   C     0.36900   0.97460   0.89008   0.00000  Uiso   1.00
C151   C     0.33180   0.04868   0.95945   0.00000  Uiso   1.00
C152   C     0.27257   0.84339   0.64012   0.00000  Uiso   1.00
C153   C     0.34078   0.87143   0.62885   0.00000  Uiso   1.00
C154   C     0.33685   0.89377   0.56974   0.00000  Uiso   1.00
C155   C     0.40578   0.91761   0.56955   0.00000  Uiso   1.00
C156   C     0.26473   0.76835   0.63622   0.00000  Uiso   1.00
C157   C     0.19686   0.70402   0.58332   0.00000  Uiso   1.00
C158   C     0.20175   0.64107   0.58934   0.00000  Uiso   1.00
C159   C     0.30084   0.89216   0.72707   0.00000  Uiso   1.00
C160   C     0.26332   0.93191   0.75056   0.00000  Uiso   1.00
C161   C     0.29860   0.97318   0.83308   0.00000  Uiso   1.00
H162   H     0.45666   0.84709   0.78918   0.00000  Uiso   1.00
H163   H     0.53437   0.89774   0.72969   0.00000  Uiso   1.00
H164   H     0.39440   0.70802   0.74327   0.00000  Uiso   1.00
H165   H     0.46084   0.93587   0.91049   0.00000  Uiso   1.00
H166   H     0.58953   0.95324   0.63862   0.00000  Uiso   1.00
H167   H     0.29438   0.55321   0.66728   0.00000  Uiso   1.00
H168   H     0.43449   0.03368   0.01989   0.00000  Uiso   1.00
H169   H     0.21785   0.84228   0.59582   0.00000  Uiso   1.00
H170   H     0.28246   0.89267   0.52571   0.00000  Uiso   1.00
H171   H     0.14249   0.70294   0.53930   0.00000  Uiso   1.00
H172   H     0.20893   0.93080   0.70651   0.00000  Uiso   1.00
H173   H     0.38507   0.94912   0.47306   0.00000  Uiso   1.00
H174   H     0.08992   0.54908   0.50173   0.00000  Uiso   1.00
H175   H     0.23003   0.02956   0.85433   0.00000  Uiso   1.00
O176   O     0.53411   0.98439   0.51320   0.00000  Uiso   1.00
O177   O     0.14687   0.45956   0.55081   0.00000  Uiso   1.00
O178   O     0.33070   0.08994   0.01343   0.00000  Uiso   1.00
N179   N     0.53255   0.94537   0.60929   0.00000  Uiso   1.00
N180   N     0.25660   0.57136   0.63607   0.00000  Uiso   1.00
N181   N     0.38759   0.02055   0.96574   0.00000  Uiso   1.00
N182   N     0.42253   0.94316   0.52020   0.00000  Uiso   1.00
N183   N     0.14658   0.56914   0.54699   0.00000  Uiso   1.00
N184   N     0.27757   0.01833   0.87665   0.00000  Uiso   1.00
C185   C     0.00966   0.81172   0.17281   0.00000  Uiso   1.00
C186   C     0.04884   0.75887   0.17056   0.00000  Uiso   1.00
C187   C     0.08590   0.74061   0.23289   0.00000  Uiso   1.00
C188   C     0.11809   0.69120   0.21896   0.00000  Uiso   1.00
C189   C     0.17961   0.61369   0.22666   0.00000  Uiso   1.00
C190   C     0.92467   0.76916   0.10064   0.00000  Uiso   1.00
C191   C     0.85733   0.75955   0.10420   0.00000  Uiso   1.00
C192   C     0.78500   0.71881   0.03140   0.00000  Uiso   1.00
C193   C     0.65375   0.65731   0.93055   0.00000  Uiso   1.00
C194   C     0.04949   0.86924   0.15429   0.00000  Uiso   1.00
C195   C     0.08709   0.94380   0.20293   0.00000  Uiso   1.00
C196   C     0.11984   0.98733   0.17529   0.00000  Uiso   1.00
C197   C     0.18239   0.08122   0.15773   0.00000  Uiso   1.00
C198   C     0.00094   0.75646   0.03721   0.00000  Uiso   1.00
C199   C     0.04410   0.72886   0.09691   0.00000  Uiso   1.00
C200   C     0.07625   0.67947   0.08287   0.00000  Uiso   1.00
C201   C     0.11335   0.66114   0.14518   0.00000  Uiso   1.00
C202   C     0.91993   0.73914   0.02700   0.00000  Uiso   1.00
C203   C     0.84768   0.69841   0.95418   0.00000  Uiso   1.00
C204   C     0.78026   0.68874   0.95762   0.00000  Uiso   1.00
C205   C     0.04476   0.83923   0.08064   0.00000  Uiso   1.00
C206   C     0.07744   0.88265   0.05291   0.00000  Uiso   1.00
C207   C     0.11509   0.95726   0.10150   0.00000  Uiso   1.00
H208   H     0.01334   0.83508   0.23014   0.00000  Uiso   1.00
H209   H     0.08955   0.76384   0.28988   0.00000  Uiso   1.00
H210   H     0.86102   0.78279   0.16120   0.00000  Uiso   1.00
H211   H     0.09074   0.96700   0.25992   0.00000  Uiso   1.00
H212   H     0.17191   0.67161   0.32362   0.00000  Uiso   1.00
H213   H     0.69005   0.71158   0.05229   0.00000  Uiso   1.00
H214   H     0.17447   0.10003   0.26046   0.00000  Uiso   1.00
H215   H     0.99725   0.73309   0.97987   0.00000  Uiso   1.00
H216   H     0.07257   0.65625   0.02587   0.00000  Uiso   1.00
H217   H     0.84404   0.67520   0.89719   0.00000  Uiso   1.00
H218   H     0.07377   0.85941   0.99591   0.00000  Uiso   1.00
H219   H     0.15814   0.58428   0.10934   0.00000  Uiso   1.00
H220   H     0.67627   0.62425   0.83801   0.00000  Uiso   1.00
H221   H     0.16069   0.01270   0.04618   0.00000  Uiso   1.00
O222   O     0.21484   0.57922   0.25124   0.00000  Uiso   1.00
O223   O     0.58266   0.63167   0.89528   0.00000  Uiso   1.00
O224   O     0.21820   0.14131   0.16839   0.00000  Uiso   1.00
N225   N     0.15835   0.66161   0.26688   0.00000  Uiso   1.00
N226   N     0.70783   0.69897   0.01321   0.00000  Uiso   1.00
N227   N     0.16071   0.06214   0.20782   0.00000  Uiso   1.00
N228   N     0.15094   0.61462   0.15158   0.00000  Uiso   1.00
N229   N     0.70042   0.65198   0.89791   0.00000  Uiso   1.00
N230   N     0.15329   0.01515   0.09252   0.00000  Uiso   1.00
C231   C     0.86846   0.23742   0.97263   0.00000  Uiso   1.00
C232   C     0.81010   0.26007   0.98957   0.00000  Uiso   1.00
C233   C     0.78886   0.31534   0.97718   0.00000  Uiso   1.00
C234   C     0.73450   0.32761   0.99642   0.00000  Uiso   1.00
C235   C     0.64870   0.36907   0.01804   0.00000  Uiso   1.00
C236   C     0.82366   0.15647   0.91469   0.00000  Uiso   1.00
C237   C     0.81383   0.12463   0.83933   0.00000  Uiso   1.00
C238   C     0.77090   0.04967   0.79554   0.00000  Uiso   1.00
C239   C     0.70621   0.93028   0.70092   0.00000  Uiso   1.00
C240   C     0.93134   0.24330   0.05215   0.00000  Uiso   1.00
C241   C     0.01205   0.28446   0.09238   0.00000  Uiso   1.00
C242   C     0.05978   0.28261   0.16431   0.00000  Uiso   1.00
C243   C     0.16227   0.29805   0.28313   0.00000  Uiso   1.00
C244   C     0.80969   0.16093   0.02884   0.00000  Uiso   1.00
C245   C     0.77818   0.21852   0.02010   0.00000  Uiso   1.00
C246   C     0.72384   0.23071   0.03937   0.00000  Uiso   1.00
C247   C     0.70252   0.28599   0.02701   0.00000  Uiso   1.00
C248   C     0.79174   0.11491   0.94521   0.00000  Uiso   1.00
C249   C     0.74881   0.03999   0.90152   0.00000  Uiso   1.00
C250   C     0.73892   0.00805   0.82612   0.00000  Uiso   1.00
C251   C     0.89942   0.20176   0.08268   0.00000  Uiso   1.00
C252   C     0.94703   0.19983   0.15457   0.00000  Uiso   1.00
C253   C     0.02780   0.24098   0.19490   0.00000  Uiso   1.00
H254   H     0.89331   0.26977   0.94886   0.00000  Uiso   1.00
H255   H     0.81357   0.34748   0.95355   0.00000  Uiso   1.00
H256   H     0.83855   0.15679   0.81573   0.00000  Uiso   1.00
H257   H     0.03673   0.31661   0.06873   0.00000  Uiso   1.00
H258   H     0.71106   0.41530   0.97218   0.00000  Uiso   1.00
H259   H     0.76376   0.01322   0.68159   0.00000  Uiso   1.00
H260   H     0.18167   0.35022   0.21510   0.00000  Uiso   1.00
H261   H     0.78484   0.12857   0.05261   0.00000  Uiso   1.00
H262   H     0.69914   0.19854   0.06299   0.00000  Uiso   1.00
H263   H     0.72412   0.00785   0.92517   0.00000  Uiso   1.00
H264   H     0.92231   0.16767   0.17817   0.00000  Uiso   1.00
H265   H     0.61819   0.29441   0.06100   0.00000  Uiso   1.00
H266   H     0.67088   0.89233   0.77042   0.00000  Uiso   1.00
H267   H     0.08880   0.22934   0.30393   0.00000  Uiso   1.00
O268   O     0.61019   0.40342   0.02152   0.00000  Uiso   1.00
O269   O     0.67934   0.87591   0.64029   0.00000  Uiso   1.00
O270   O     0.22763   0.31805   0.34024   0.00000  Uiso   1.00
N271   N     0.70098   0.37726   0.99167   0.00000  Uiso   1.00
N272   N     0.75023   0.00134   0.71999   0.00000  Uiso   1.00
N273   N     0.14095   0.31639   0.21876   0.00000  Uiso   1.00
N274   N     0.65100   0.31221   0.03947   0.00000  Uiso   1.00
N275   N     0.70026   0.93629   0.76778   0.00000  Uiso   1.00
N276   N     0.09097   0.25135   0.26656   0.00000  Uiso   1.00
C277   C     0.41956   0.63097   0.51363   0.00000  Uiso   1.00
C278   C     0.42255   0.68276   0.47450   0.00000  Uiso   1.00
C279   C     0.36317   0.70459   0.43932   0.00000  Uiso   1.00
C280   C     0.37730   0.75227   0.40682   0.00000  Uiso   1.00
C281   C     0.37117   0.82892   0.34570   0.00000  Uiso   1.00
C282   C     0.49166   0.67227   0.59984   0.00000  Uiso   1.00
C283   C     0.49039   0.68528   0.67003   0.00000  Uiso   1.00
C284   C     0.56270   0.72412   0.74305   0.00000  Uiso   1.00
C285   C     0.66386   0.78444   0.87652   0.00000  Uiso   1.00
C286   C     0.43402   0.56932   0.46988   0.00000  Uiso   1.00
C287   C     0.38429   0.49575   0.43082   0.00000  Uiso   1.00
C288   C     0.40808   0.44791   0.39443   0.00000  Uiso   1.00
C289   C     0.41974   0.34838   0.32611   0.00000  Uiso   1.00
C290   C     0.55024   0.67682   0.51848   0.00000  Uiso   1.00
C291   C     0.49353   0.70766   0.47714   0.00000  Uiso   1.00
C292   C     0.50776   0.75532   0.44468   0.00000  Uiso   1.00
C293   C     0.44841   0.77721   0.40945   0.00000  Uiso   1.00
C294   C     0.56264   0.69718   0.60248   0.00000  Uiso   1.00
C295   C     0.63497   0.73601   0.67540   0.00000  Uiso   1.00
C296   C     0.63381   0.74907   0.74569   0.00000  Uiso   1.00
C297   C     0.50500   0.59422   0.47251   0.00000  Uiso   1.00
C298   C     0.52887   0.54648   0.43618   0.00000  Uiso   1.00
C299   C     0.47919   0.47286   0.39707   0.00000  Uiso   1.00
H300   H     0.36430   0.61159   0.51158   0.00000  Uiso   1.00
H301   H     0.30825   0.68531   0.43729   0.00000  Uiso   1.00
H302   H     0.43545   0.66599   0.66797   0.00000  Uiso   1.00
H303   H     0.32937   0.47650   0.42879   0.00000  Uiso   1.00
H304   H     0.27743   0.77805   0.35612   0.00000  Uiso   1.00
H305   H     0.54563   0.73730   0.84252   0.00000  Uiso   1.00
H306   H     0.32194   0.33771   0.33816   0.00000  Uiso   1.00
H307   H     0.60550   0.69621   0.52054   0.00000  Uiso   1.00
H308   H     0.56269   0.77458   0.44673   0.00000  Uiso   1.00
H309   H     0.68989   0.75527   0.67742   0.00000  Uiso   1.00
H310   H     0.58381   0.56577   0.43823   0.00000  Uiso   1.00
H311   H     0.48394   0.85051   0.36379   0.00000  Uiso   1.00
H312   H     0.75215   0.80975   0.85019   0.00000  Uiso   1.00
H313   H     0.52845   0.41017   0.34582   0.00000  Uiso   1.00
O314   O     0.34818   0.86432   0.31127   0.00000  Uiso   1.00
O315   O     0.70005   0.81084   0.94941   0.00000  Uiso   1.00
O316   O     0.40657   0.28660   0.28769   0.00000  Uiso   1.00
N317   N     0.33190   0.78433   0.36804   0.00000  Uiso   1.00
N318   N     0.58265   0.74624   0.82280   0.00000  Uiso   1.00
N319   N     0.37353   0.37266   0.35128   0.00000  Uiso   1.00
N320   N     0.44302   0.82332   0.37216   0.00000  Uiso   1.00
N321   N     0.69378   0.78523   0.82692   0.00000  Uiso   1.00
N322   N     0.48465   0.41165   0.35540   0.00000  Uiso   1.00
C323   C     0.57377   0.21540   0.67409   0.00000  Uiso   1.00
C324   C     0.56778   0.18957   0.73505   0.00000  Uiso   1.00
C325   C     0.58406   0.13233   0.74760   0.00000  Uiso   1.00
C326   C     0.57504   0.11726   0.80619   0.00000  Uiso   1.00
C327   C     0.56950   0.07099   0.89412   0.00000  Uiso   1.00
C328   C     0.63004   0.29595   0.72271   0.00000  Uiso   1.00
C329   C     0.69867   0.32814   0.72487   0.00000  Uiso   1.00
C330   C     0.74205   0.40262   0.77306   0.00000  Uiso   1.00
C331   C     0.83315   0.52151   0.84178   0.00000  Uiso   1.00
C332   C     0.49267   0.21209   0.62052   0.00000  Uiso   1.00
C333   C     0.44579   0.17379   0.53676   0.00000  Uiso   1.00
C334   C     0.37351   0.17768   0.49892   0.00000  Uiso   1.00
C335   C     0.25131   0.16636   0.40898   0.00000  Uiso   1.00
C336   C     0.52879   0.29042   0.75581   0.00000  Uiso   1.00
C337   C     0.54336   0.23033   0.77944   0.00000  Uiso   1.00
C338   C     0.53430   0.21534   0.83802   0.00000  Uiso   1.00
C339   C     0.55057   0.15808   0.85066   0.00000  Uiso   1.00
C340   C     0.60562   0.33670   0.76709   0.00000  Uiso   1.00
C341   C     0.64891   0.41115   0.81528   0.00000  Uiso   1.00
C342   C     0.71758   0.44345   0.81753   0.00000  Uiso   1.00
C343   C     0.46824   0.25284   0.66491   0.00000  Uiso   1.00
C344   C     0.39603   0.25680   0.62718   0.00000  Uiso   1.00
C345   C     0.34904   0.21851   0.54339   0.00000  Uiso   1.00
H346   H     0.59279   0.18367   0.63953   0.00000  Uiso   1.00
H347   H     0.60297   0.10081   0.71324   0.00000  Uiso   1.00
H348   H     0.71755   0.29659   0.69051   0.00000  Uiso   1.00
H349   H     0.46471   0.14226   0.50243   0.00000  Uiso   1.00
H350   H     0.60351   0.02693   0.81456   0.00000  Uiso   1.00
H351   H     0.84510   0.43975   0.76660   0.00000  Uiso   1.00
H352   H     0.31193   0.11432   0.37001   0.00000  Uiso   1.00
H353   H     0.50978   0.32215   0.79037   0.00000  Uiso   1.00
H354   H     0.51540   0.24688   0.87236   0.00000  Uiso   1.00
H355   H     0.62999   0.44267   0.84962   0.00000  Uiso   1.00
H356   H     0.37714   0.28834   0.66155   0.00000  Uiso   1.00
H357   H     0.53244   0.14549   0.94371   0.00000  Uiso   1.00
H358   H     0.77403   0.55832   0.89574   0.00000  Uiso   1.00
H359   H     0.24086   0.23288   0.49916   0.00000  Uiso   1.00
O360   O     0.57320   0.03421   0.93037   0.00000  Uiso   1.00
O361   O     0.89015   0.57582   0.86743   0.00000  Uiso   1.00
O362   O     0.19064   0.14885   0.34711   0.00000  Uiso   1.00
N363   N     0.58600   0.06515   0.83370   0.00000  Uiso   1.00
N364   N     0.81188   0.45111   0.78886   0.00000  Uiso   1.00
N365   N     0.31342   0.14688   0.41808   0.00000  Uiso   1.00
N366   N     0.54776   0.12895   0.90319   0.00000  Uiso   1.00
N367   N     0.77363   0.51491   0.85835   0.00000  Uiso   1.00
N368   N     0.27517   0.21067   0.48757   0.00000  Uiso   1.00
C369   C     0.79081   0.60365   0.19519   0.00000  Uiso   1.00
C370   C     0.84259   0.57511   0.17108   0.00000  Uiso   1.00
C371   C     0.82836   0.54696   0.09335   0.00000  Uiso   1.00
C372   C     0.88279   0.52372   0.08383   0.00000  Uiso   1.00
C373   C     0.95313   0.47871   0.03638   0.00000  Uiso   1.00
C374   C     0.84458   0.68162   0.26073   0.00000  Uiso   1.00
C375   C     0.83202   0.74301   0.25836   0.00000  Uiso   1.00
C376   C     0.88813   0.80943   0.32432   0.00000  Uiso   1.00
C377   C     0.96154   0.92976   0.41607   0.00000  Uiso   1.00
C378   C     0.76884   0.56027   0.23691   0.00000  Uiso   1.00
C379   C     0.69259   0.51964   0.21453   0.00000  Uiso   1.00
C380   C     0.68493   0.48391   0.26044   0.00000  Uiso   1.00
C381   C     0.64074   0.41583   0.31521   0.00000  Uiso   1.00
C382   C     0.91277   0.61245   0.31653   0.00000  Uiso   1.00
C383   C     0.90884   0.57989   0.23700   0.00000  Uiso   1.00
C384   C     0.96330   0.55668   0.22760   0.00000  Uiso   1.00
C385   C     0.94915   0.52850   0.14985   0.00000  Uiso   1.00
C386   C     0.91083   0.68639   0.32664   0.00000  Uiso   1.00
C387   C     0.96696   0.75273   0.39261   0.00000  Uiso   1.00
C388   C     0.95449   0.81421   0.39034   0.00000  Uiso   1.00
C389   C     0.83509   0.56504   0.30282   0.00000  Uiso   1.00
C390   C     0.82754   0.52937   0.34878   0.00000  Uiso   1.00
C391   C     0.75130   0.48869   0.32647   0.00000  Uiso   1.00
H392   H     0.73923   0.59994   0.14388   0.00000  Uiso   1.00
H393   H     0.77709   0.54328   0.04236   0.00000  Uiso   1.00
H394   H     0.78075   0.73929   0.20735   0.00000  Uiso   1.00
H395   H     0.64134   0.51596   0.16352   0.00000  Uiso   1.00
H396   H     0.84829   0.48258   0.95887   0.00000  Uiso   1.00
H397   H     0.85599   0.89590   0.30679   0.00000  Uiso   1.00
H398   H     0.56203   0.42496   0.21436   0.00000  Uiso   1.00
H399   H     0.96435   0.61617   0.36785   0.00000  Uiso   1.00
H400   H     0.01456   0.56039   0.27861   0.00000  Uiso   1.00
H401   H     0.01822   0.75641   0.44361   0.00000  Uiso   1.00
H402   H     0.87882   0.53308   0.39978   0.00000  Uiso   1.00
H403   H     0.04103   0.49648   0.15062   0.00000  Uiso   1.00
H404   H     0.04873   0.90979   0.49854   0.00000  Uiso   1.00
H405   H     0.75477   0.43885   0.40612   0.00000  Uiso   1.00
O406   O     0.97364   0.45257   0.99201   0.00000  Uiso   1.00
O407   O     0.98373   0.99481   0.44846   0.00000  Uiso   1.00
O408   O     0.59806   0.37695   0.32721   0.00000  Uiso   1.00
N409   N     0.88675   0.49349   0.01624   0.00000  Uiso   1.00
N410   N     0.89395   0.87992   0.34152   0.00000  Uiso   1.00
N411   N     0.61913   0.43965   0.25512   0.00000  Uiso   1.00
N412   N     0.99046   0.50097   0.11942   0.00000  Uiso   1.00
N413   N     0.99767   0.88739   0.44470   0.00000  Uiso   1.00
N414   N     0.72284   0.44712   0.35830   0.00000  Uiso   1.00
C415   C     0.75822   0.09436   0.19390   0.00000  Uiso   1.00
C416   C     0.73500   0.06109   0.24243   0.00000  Uiso   1.00
C417   C     0.65897   0.03115   0.22639   0.00000  Uiso   1.00
C418   C     0.65001   0.00352   0.27792   0.00000  Uiso   1.00
C419   C     0.60410   0.95154   0.34338   0.00000  Uiso   1.00
C420   C     0.82054   0.17173   0.25426   0.00000  Uiso   1.00
C421   C     0.81643   0.23481   0.24814   0.00000  Uiso   1.00
C422   C     0.87949   0.30031   0.30962   0.00000  Uiso   1.00
C423   C     0.96641   0.42010   0.39341   0.00000  Uiso   1.00
C424   C     0.80088   0.05313   0.16728   0.00000  Uiso   1.00
C425   C     0.78026   0.01651   0.08803   0.00000  Uiso   1.00
C426   C     0.82678   0.98217   0.07628   0.00000  Uiso   1.00
C427   C     0.88318   0.91782   0.02503   0.00000  Uiso   1.00
C428   C     0.87751   0.09852   0.31395   0.00000  Uiso   1.00
C429   C     0.79979   0.06335   0.30764   0.00000  Uiso   1.00
C430   C     0.79095   0.03575   0.35921   0.00000  Uiso   1.00
C431   C     0.71492   0.00578   0.34324   0.00000  Uiso   1.00
C432   C     0.88533   0.17398   0.31946   0.00000  Uiso   1.00
C433   C     0.94841   0.23941   0.38096   0.00000  Uiso   1.00
C434   C     0.94440   0.30257   0.37494   0.00000  Uiso   1.00
C435   C     0.86567   0.05538   0.23249   0.00000  Uiso   1.00
C436   C     0.91224   0.02110   0.22086   0.00000  Uiso   1.00
C437   C     0.89169   0.98444   0.14161   0.00000  Uiso   1.00
H438   H     0.70778   0.09261   0.14314   0.00000  Uiso   1.00
H439   H     0.60884   0.02942   0.17592   0.00000  Uiso   1.00
H440   H     0.76629   0.23305   0.19767   0.00000  Uiso   1.00
H441   H     0.73012   0.01478   0.03759   0.00000  Uiso   1.00
H442   H     0.52772   0.96039   0.24105   0.00000  Uiso   1.00
H443   H     0.85972   0.38974   0.28688   0.00000  Uiso   1.00
H444   H     0.78345   0.92947   0.94932   0.00000  Uiso   1.00
H445   H     0.92796   0.10028   0.36472   0.00000  Uiso   1.00
H446   H     0.84110   0.03750   0.40966   0.00000  Uiso   1.00
H447   H     0.99855   0.24113   0.43141   0.00000  Uiso   1.00
H448   H     0.96238   0.02286   0.27133   0.00000  Uiso   1.00
H449   H     0.71624   0.96695   0.43076   0.00000  Uiso   1.00
H450   H     0.04824   0.39630   0.47660   0.00000  Uiso   1.00
H451   H     0.97197   0.93604   0.13904   0.00000  Uiso   1.00
O452   O     0.56087   0.92226   0.36149   0.00000  Uiso   1.00
O453   O     0.99645   0.48555   0.42161   0.00000  Uiso   1.00
O454   O     0.89638   0.88169   0.97875   0.00000  Uiso   1.00
N455   N     0.58401   0.97053   0.27952   0.00000  Uiso   1.00
N456   N     0.89440   0.37195   0.32238   0.00000  Uiso   1.00
N457   N     0.82311   0.94166   0.00679   0.00000  Uiso   1.00
N458   N     0.68545   0.97406   0.38160   0.00000  Uiso   1.00
N459   N     0.99584   0.37548   0.42446   0.00000  Uiso   1.00
N460   N     0.92455   0.94519   0.10887   0.00000  Uiso   1.00
C461   C     0.07459   0.16418   0.82081   0.00000  Uiso   1.00
C462   C     0.04378   0.22329   0.82402   0.00000  Uiso   1.00
C463   C     0.01466   0.24534   0.76325   0.00000  Uiso   1.00
C464   C     0.98933   0.30029   0.77786   0.00000  Uiso   1.00
C465   C     0.94096   0.38727   0.77179   0.00000  Uiso   1.00
C466   C     0.15858   0.20010   0.89465   0.00000  Uiso   1.00
C467   C     0.22597   0.20264   0.89327   0.00000  Uiso   1.00
C468   C     0.29727   0.23807   0.96733   0.00000  Uiso   1.00
C469   C     0.42711   0.28900   0.07092   0.00000  Uiso   1.00
C470   C     0.02611   0.10916   0.83558   0.00000  Uiso   1.00
C471   C     0.98213   0.03524   0.78455   0.00000  Uiso   1.00
C472   C     0.94192   0.99411   0.80890   0.00000  Uiso   1.00
C473   C     0.86608   0.90385   0.82078   0.00000  Uiso   1.00
C474   C     0.08140   0.22256   0.95479   0.00000  Uiso   1.00
C475   C     0.04748   0.25499   0.89679   0.00000  Uiso   1.00
C476   C     0.02219   0.30993   0.91149   0.00000  Uiso   1.00
C477   C     0.99303   0.33205   0.85076   0.00000  Uiso   1.00
C478   C     0.16228   0.23181   0.96742   0.00000  Uiso   1.00
C479   C     0.23350   0.26723   0.04151   0.00000  Uiso   1.00
C480   C     0.30098   0.26984   0.04024   0.00000  Uiso   1.00
C481   C     0.02980   0.14087   0.90836   0.00000  Uiso   1.00
C482   C     0.98966   0.09984   0.93279   0.00000  Uiso   1.00
C483   C     0.94563   0.02587   0.88181   0.00000  Uiso   1.00
H484   H     0.07172   0.13949   0.76415   0.00000  Uiso   1.00
H485   H     0.01181   0.22079   0.70694   0.00000  Uiso   1.00
H486   H     0.22308   0.17810   0.83694   0.00000  Uiso   1.00
H487   H     0.97928   0.01073   0.72824   0.00000  Uiso   1.00
H488   H     0.94705   0.32492   0.67563   0.00000  Uiso   1.00
H489   H     0.39252   0.23488   0.94973   0.00000  Uiso   1.00
H490   H     0.87842   0.88195   0.72051   0.00000  Uiso   1.00
H491   H     0.08429   0.24724   0.01146   0.00000  Uiso   1.00
H492   H     0.02506   0.33445   0.96782   0.00000  Uiso   1.00
H493   H     0.23634   0.29176   0.09781   0.00000  Uiso   1.00
H494   H     0.99253   0.12439   0.98911   0.00000  Uiso   1.00
H495   H     0.95780   0.41718   0.88736   0.00000  Uiso   1.00
H496   H     0.40328   0.32713   0.16147   0.00000  Uiso   1.00
H497   H     0.88918   0.97420   0.93225   0.00000  Uiso   1.00
O498   O     0.91326   0.42649   0.74834   0.00000  Uiso   1.00
O499   O     0.49771   0.30835   0.10795   0.00000  Uiso   1.00
O500   O     0.82322   0.84531   0.80722   0.00000  Uiso   1.00
N501   N     0.95769   0.33466   0.73144   0.00000  Uiso   1.00
N502   N     0.37419   0.25048   0.98771   0.00000  Uiso   1.00
N503   N     0.89356   0.92052   0.77342   0.00000  Uiso   1.00
N504   N     0.96348   0.38430   0.84537   0.00000  Uiso   1.00
N505   N     0.37998   0.30012   0.10165   0.00000  Uiso   1.00
N506   N     0.89935   0.97016   0.88736   0.00000  Uiso   1.00
C507   C     0.14811   0.74431   0.94901   0.00000  Uiso   1.00
C508   C     0.19870   0.72036   0.91920   0.00000  Uiso   1.00
C509   C     0.20939   0.65667   0.91161   0.00000  Uiso   1.00
C510   C     0.25796   0.64467   0.88325   0.00000  Uiso   1.00
C511   C     0.33099   0.59990   0.84004   0.00000  Uiso   1.00
C512   C     0.20281   0.81934   0.02053   0.00000  Uiso   1.00
C513   C     0.21695   0.83887   0.09814   0.00000  Uiso   1.00
C514   C     0.26897   0.91020   0.15508   0.00000  Uiso   1.00
C515   C     0.34834   0.01912   0.26918   0.00000  Uiso   1.00
C516   C     0.08890   0.75627   0.88204   0.00000  Uiso   1.00
C517   C     0.00727   0.72277   0.84322   0.00000  Uiso   1.00
C518   C     0.96340   0.74101   0.78356   0.00000  Uiso   1.00
C519   C     0.86591   0.75199   0.68263   0.00000  Uiso   1.00
C520   C     0.21536   0.83629   0.91213   0.00000  Uiso   1.00
C521   C     0.23523   0.77032   0.89916   0.00000  Uiso   1.00
C522   C     0.28379   0.75842   0.87080   0.00000  Uiso   1.00
C523   C     0.29455   0.69472   0.86317   0.00000  Uiso   1.00
C524   C     0.23934   0.86930   0.00050   0.00000  Uiso   1.00
C525   C     0.29135   0.94063   0.05734   0.00000  Uiso   1.00
C526   C     0.30557   0.96025   0.13501   0.00000  Uiso   1.00
C527   C     0.12543   0.80622   0.86200   0.00000  Uiso   1.00
C528   C     0.08168   0.82453   0.80240   0.00000  Uiso   1.00
C529   C     0.99999   0.79106   0.76349   0.00000  Uiso   1.00
H530   H     0.11967   0.70542   0.96461   0.00000  Uiso   1.00
H531   H     0.18112   0.61802   0.92713   0.00000  Uiso   1.00
H532   H     0.18866   0.80020   0.11363   0.00000  Uiso   1.00
H533   H     0.97902   0.68411   0.85874   0.00000  Uiso   1.00
H534   H     0.26537   0.54316   0.87676   0.00000  Uiso   1.00
H535   H     0.28127   0.92730   0.27000   0.00000  Uiso   1.00
H536   H     0.83919   0.68252   0.73251   0.00000  Uiso   1.00
H537   H     0.24380   0.87518   0.89653   0.00000  Uiso   1.00
H538   H     0.31205   0.79709   0.85530   0.00000  Uiso   1.00
H539   H     0.31960   0.97927   0.04181   0.00000  Uiso   1.00
H540   H     0.10996   0.86319   0.78692   0.00000  Uiso   1.00
H541   H     0.37165   0.68851   0.81847   0.00000  Uiso   1.00
H542   H     0.38754   0.07264   0.21171   0.00000  Uiso   1.00
H543   H     0.94547   0.82786   0.67422   0.00000  Uiso   1.00
O544   O     0.36119   0.56141   0.82175   0.00000  Uiso   1.00
O545   O     0.38204   0.06539   0.33766   0.00000  Uiso   1.00
O546   O     0.80205   0.74423   0.63249   0.00000  Uiso   1.00
N547   N     0.28100   0.58808   0.86868   0.00000  Uiso   1.00
N548   N     0.29588   0.94722   0.23634   0.00000  Uiso   1.00
N549   N     0.88257   0.71838   0.73385   0.00000  Uiso   1.00
N550   N     0.33819   0.66629   0.83732   0.00000  Uiso   1.00
N551   N     0.35306   0.02543   0.20498   0.00000  Uiso   1.00
N552   N     0.93976   0.79659   0.70249   0.00000  Uiso   1.00
