data_job_03956
_audit_creation_date              2018-12-19
_audit_creation_method            'Materials Studio'
_symmetry_space_group_name_H-M    'P1'
_symmetry_Int_Tables_number       1
_symmetry_cell_setting            triclinic
loop_
_symmetry_equiv_pos_as_xyz
  x,y,z
_cell_length_a                    16.5110
_cell_length_b                    16.5110
_cell_length_c                    25.4429
_cell_angle_alpha                 90.0000
_cell_angle_beta                  90.0000
_cell_angle_gamma                 90.0000
loop_
_atom_site_label
_atom_site_type_symbol
_atom_site_fract_x
_atom_site_fract_y
_atom_site_fract_z
_atom_site_U_iso_or_equiv
_atom_site_adp_type
_atom_site_occupancy
C1     C     0.76211   0.58904   0.81100   0.00000  Uiso   1.00
C2     C     0.83523   0.59798   0.77485   0.00000  Uiso   1.00
C3     C     0.83245   0.61399   0.72133   0.00000  Uiso   1.00
C4     C     0.90605   0.61991   0.69523   0.00000  Uiso   1.00
C5     C     0.00837   0.63523   0.63505   0.00000  Uiso   1.00
C6     C     0.77021   0.50600   0.83670   0.00000  Uiso   1.00
C7     C     0.71276   0.44469   0.83520   0.00000  Uiso   1.00
C8     C     0.73163   0.37318   0.86117   0.00000  Uiso   1.00
C9     C     0.73299   0.24572   0.89706   0.00000  Uiso   1.00
C10    C     0.77386   0.65081   0.85489   0.00000  Uiso   1.00
C11    C     0.71946   0.71126   0.86870   0.00000  Uiso   1.00
C12    C     0.74140   0.76166   0.91000   0.00000  Uiso   1.00
C13    C     0.74842   0.85905   0.97414   0.00000  Uiso   1.00
C14    C     0.89778   0.57106   0.85980   0.00000  Uiso   1.00
C15    C     0.90892   0.58821   0.80135   0.00000  Uiso   1.00
C16    C     0.98255   0.59410   0.77532   0.00000  Uiso   1.00
C17    C     0.97987   0.61013   0.72178   0.00000  Uiso   1.00
C18    C     0.84390   0.49623   0.86321   0.00000  Uiso   1.00
C19    C     0.86286   0.42479   0.88919   0.00000  Uiso   1.00
C20    C     0.80545   0.36339   0.88772   0.00000  Uiso   1.00
C21    C     0.84755   0.64105   0.88140   0.00000  Uiso   1.00
C22    C     0.86957   0.69136   0.92269   0.00000  Uiso   1.00
C23    C     0.81522   0.75187   0.93656   0.00000  Uiso   1.00
H24    H     0.70474   0.59664   0.79037   0.00000  Uiso   1.00
H25    H     0.77540   0.62154   0.70083   0.00000  Uiso   1.00
H26    H     0.65573   0.45227   0.81469   0.00000  Uiso   1.00
H27    H     0.66244   0.71879   0.84818   0.00000  Uiso   1.00
H28    H     0.88625   0.64482   0.61325   0.00000  Uiso   1.00
H29    H     0.63390   0.28790   0.85333   0.00000  Uiso   1.00
H30    H     0.64805   0.84993   0.92397   0.00000  Uiso   1.00
H31    H     0.95515   0.56345   0.88044   0.00000  Uiso   1.00
H32    H     0.03957   0.58654   0.79585   0.00000  Uiso   1.00
H33    H     0.91989   0.41726   0.90970   0.00000  Uiso   1.00
H34    H     0.92660   0.68379   0.94319   0.00000  Uiso   1.00
H35    H     0.10065   0.61640   0.69037   0.00000  Uiso   1.00
H36    H     0.84830   0.25948   0.93045   0.00000  Uiso   1.00
H37    H     0.86245   0.82151   0.00108   0.00000  Uiso   1.00
O38    O     0.04446   0.64637   0.59454   0.00000  Uiso   1.00
O39    O     0.71338   0.17811   0.90952   0.00000  Uiso   1.00
O40    O     0.73195   0.91548   0.00219   0.00000  Uiso   1.00
N41    N     0.92512   0.63498   0.64301   0.00000  Uiso   1.00
N42    N     0.68920   0.30127   0.86747   0.00000  Uiso   1.00
N43    N     0.70242   0.82671   0.93351   0.00000  Uiso   1.00
N44    N     0.04049   0.61969   0.68451   0.00000  Uiso   1.00
N45    N     0.80457   0.28599   0.90896   0.00000  Uiso   1.00
N46    N     0.81779   0.81142   0.97501   0.00000  Uiso   1.00
C47    C     0.23789   0.41096   0.81100   0.00000  Uiso   1.00
C48    C     0.16477   0.40202   0.77485   0.00000  Uiso   1.00
C49    C     0.16755   0.38601   0.72133   0.00000  Uiso   1.00
C50    C     0.09395   0.38009   0.69523   0.00000  Uiso   1.00
C51    C     0.99163   0.36477   0.63505   0.00000  Uiso   1.00
C52    C     0.22979   0.49400   0.83670   0.00000  Uiso   1.00
C53    C     0.28724   0.55531   0.83520   0.00000  Uiso   1.00
C54    C     0.26837   0.62682   0.86117   0.00000  Uiso   1.00
C55    C     0.26701   0.75428   0.89706   0.00000  Uiso   1.00
C56    C     0.22614   0.34919   0.85489   0.00000  Uiso   1.00
C57    C     0.28054   0.28874   0.86870   0.00000  Uiso   1.00
C58    C     0.25860   0.23834   0.91000   0.00000  Uiso   1.00
C59    C     0.25158   0.14095   0.97414   0.00000  Uiso   1.00
C60    C     0.10222   0.42894   0.85980   0.00000  Uiso   1.00
C61    C     0.09108   0.41179   0.80135   0.00000  Uiso   1.00
C62    C     0.01745   0.40590   0.77532   0.00000  Uiso   1.00
C63    C     0.02013   0.38987   0.72178   0.00000  Uiso   1.00
C64    C     0.15610   0.50377   0.86321   0.00000  Uiso   1.00
C65    C     0.13714   0.57521   0.88919   0.00000  Uiso   1.00
C66    C     0.19455   0.63661   0.88772   0.00000  Uiso   1.00
C67    C     0.15245   0.35895   0.88140   0.00000  Uiso   1.00
C68    C     0.13043   0.30864   0.92269   0.00000  Uiso   1.00
C69    C     0.18478   0.24813   0.93656   0.00000  Uiso   1.00
H70    H     0.29526   0.40336   0.79037   0.00000  Uiso   1.00
H71    H     0.22460   0.37846   0.70083   0.00000  Uiso   1.00
H72    H     0.34427   0.54773   0.81469   0.00000  Uiso   1.00
H73    H     0.33756   0.28121   0.84818   0.00000  Uiso   1.00
H74    H     0.11375   0.35518   0.61325   0.00000  Uiso   1.00
H75    H     0.36610   0.71210   0.85333   0.00000  Uiso   1.00
H76    H     0.35195   0.15007   0.92397   0.00000  Uiso   1.00
H77    H     0.04485   0.43655   0.88044   0.00000  Uiso   1.00
H78    H     0.96043   0.41346   0.79585   0.00000  Uiso   1.00
H79    H     0.08011   0.58274   0.90970   0.00000  Uiso   1.00
H80    H     0.07340   0.31621   0.94319   0.00000  Uiso   1.00
H81    H     0.89935   0.38360   0.69037   0.00000  Uiso   1.00
H82    H     0.15170   0.74052   0.93045   0.00000  Uiso   1.00
H83    H     0.13755   0.17849   0.00108   0.00000  Uiso   1.00
O84    O     0.95554   0.35363   0.59454   0.00000  Uiso   1.00
O85    O     0.28662   0.82189   0.90952   0.00000  Uiso   1.00
O86    O     0.26805   0.08452   0.00219   0.00000  Uiso   1.00
N87    N     0.07488   0.36502   0.64301   0.00000  Uiso   1.00
N88    N     0.31080   0.69873   0.86747   0.00000  Uiso   1.00
N89    N     0.29758   0.17329   0.93351   0.00000  Uiso   1.00
N90    N     0.95951   0.38031   0.68451   0.00000  Uiso   1.00
N91    N     0.19543   0.71401   0.90896   0.00000  Uiso   1.00
N92    N     0.18221   0.18858   0.97501   0.00000  Uiso   1.00
C93    C     0.58904   0.23789   0.18900   0.00000  Uiso   1.00
C94    C     0.59798   0.16477   0.22515   0.00000  Uiso   1.00
C95    C     0.61399   0.16755   0.27867   0.00000  Uiso   1.00
C96    C     0.61991   0.09395   0.30477   0.00000  Uiso   1.00
C97    C     0.63523   0.99163   0.36495   0.00000  Uiso   1.00
C98    C     0.50600   0.22979   0.16330   0.00000  Uiso   1.00
C99    C     0.44469   0.28724   0.16480   0.00000  Uiso   1.00
C100   C     0.37318   0.26837   0.13883   0.00000  Uiso   1.00
C101   C     0.24572   0.26701   0.10294   0.00000  Uiso   1.00
C102   C     0.65081   0.22614   0.14511   0.00000  Uiso   1.00
C103   C     0.71126   0.28054   0.13130   0.00000  Uiso   1.00
C104   C     0.76166   0.25860   0.09000   0.00000  Uiso   1.00
C105   C     0.85905   0.25158   0.02586   0.00000  Uiso   1.00
C106   C     0.57106   0.10222   0.14020   0.00000  Uiso   1.00
C107   C     0.58821   0.09108   0.19865   0.00000  Uiso   1.00
C108   C     0.59410   0.01745   0.22468   0.00000  Uiso   1.00
C109   C     0.61013   0.02013   0.27822   0.00000  Uiso   1.00
C110   C     0.49623   0.15610   0.13679   0.00000  Uiso   1.00
C111   C     0.42479   0.13714   0.11081   0.00000  Uiso   1.00
C112   C     0.36339   0.19455   0.11228   0.00000  Uiso   1.00
C113   C     0.64105   0.15245   0.11860   0.00000  Uiso   1.00
C114   C     0.69136   0.13043   0.07731   0.00000  Uiso   1.00
C115   C     0.75187   0.18478   0.06344   0.00000  Uiso   1.00
H116   H     0.59664   0.29526   0.20963   0.00000  Uiso   1.00
H117   H     0.62154   0.22460   0.29917   0.00000  Uiso   1.00
H118   H     0.45227   0.34427   0.18531   0.00000  Uiso   1.00
H119   H     0.71879   0.33756   0.15182   0.00000  Uiso   1.00
H120   H     0.64482   0.11375   0.38675   0.00000  Uiso   1.00
H121   H     0.28790   0.36610   0.14667   0.00000  Uiso   1.00
H122   H     0.84993   0.35195   0.07603   0.00000  Uiso   1.00
H123   H     0.56345   0.04485   0.11956   0.00000  Uiso   1.00
H124   H     0.58654   0.96043   0.20415   0.00000  Uiso   1.00
H125   H     0.41726   0.08011   0.09030   0.00000  Uiso   1.00
H126   H     0.68379   0.07340   0.05681   0.00000  Uiso   1.00
H127   H     0.61640   0.89935   0.30963   0.00000  Uiso   1.00
H128   H     0.25948   0.15170   0.06955   0.00000  Uiso   1.00
H129   H     0.82151   0.13755   0.99892   0.00000  Uiso   1.00
O130   O     0.64637   0.95554   0.40546   0.00000  Uiso   1.00
O131   O     0.17811   0.28662   0.09048   0.00000  Uiso   1.00
O132   O     0.91548   0.26805   0.99781   0.00000  Uiso   1.00
N133   N     0.63498   0.07488   0.35699   0.00000  Uiso   1.00
N134   N     0.30127   0.31080   0.13253   0.00000  Uiso   1.00
N135   N     0.82671   0.29758   0.06649   0.00000  Uiso   1.00
N136   N     0.61969   0.95951   0.31549   0.00000  Uiso   1.00
N137   N     0.28599   0.19543   0.09104   0.00000  Uiso   1.00
N138   N     0.81142   0.18221   0.02499   0.00000  Uiso   1.00
C139   C     0.41096   0.76211   0.18900   0.00000  Uiso   1.00
C140   C     0.40202   0.83523   0.22515   0.00000  Uiso   1.00
C141   C     0.38601   0.83245   0.27867   0.00000  Uiso   1.00
C142   C     0.38009   0.90605   0.30477   0.00000  Uiso   1.00
C143   C     0.36477   0.00837   0.36495   0.00000  Uiso   1.00
C144   C     0.49400   0.77021   0.16330   0.00000  Uiso   1.00
C145   C     0.55531   0.71276   0.16480   0.00000  Uiso   1.00
C146   C     0.62682   0.73163   0.13883   0.00000  Uiso   1.00
C147   C     0.75428   0.73299   0.10294   0.00000  Uiso   1.00
C148   C     0.34919   0.77386   0.14511   0.00000  Uiso   1.00
C149   C     0.28874   0.71946   0.13130   0.00000  Uiso   1.00
C150   C     0.23834   0.74140   0.09000   0.00000  Uiso   1.00
C151   C     0.14095   0.74842   0.02586   0.00000  Uiso   1.00
C152   C     0.42894   0.89778   0.14020   0.00000  Uiso   1.00
C153   C     0.41179   0.90892   0.19865   0.00000  Uiso   1.00
C154   C     0.40590   0.98255   0.22468   0.00000  Uiso   1.00
C155   C     0.38987   0.97987   0.27822   0.00000  Uiso   1.00
C156   C     0.50377   0.84390   0.13679   0.00000  Uiso   1.00
C157   C     0.57521   0.86286   0.11081   0.00000  Uiso   1.00
C158   C     0.63661   0.80545   0.11228   0.00000  Uiso   1.00
C159   C     0.35895   0.84755   0.11860   0.00000  Uiso   1.00
C160   C     0.30864   0.86957   0.07731   0.00000  Uiso   1.00
C161   C     0.24813   0.81522   0.06344   0.00000  Uiso   1.00
H162   H     0.40336   0.70474   0.20963   0.00000  Uiso   1.00
H163   H     0.37846   0.77540   0.29917   0.00000  Uiso   1.00
H164   H     0.54773   0.65573   0.18531   0.00000  Uiso   1.00
H165   H     0.28121   0.66244   0.15182   0.00000  Uiso   1.00
H166   H     0.35518   0.88625   0.38675   0.00000  Uiso   1.00
H167   H     0.71210   0.63390   0.14667   0.00000  Uiso   1.00
H168   H     0.15007   0.64805   0.07603   0.00000  Uiso   1.00
H169   H     0.43655   0.95515   0.11956   0.00000  Uiso   1.00
H170   H     0.41346   0.03957   0.20415   0.00000  Uiso   1.00
H171   H     0.58274   0.91989   0.09030   0.00000  Uiso   1.00
H172   H     0.31621   0.92660   0.05681   0.00000  Uiso   1.00
H173   H     0.38360   0.10065   0.30963   0.00000  Uiso   1.00
H174   H     0.74052   0.84830   0.06955   0.00000  Uiso   1.00
H175   H     0.17849   0.86245   0.99892   0.00000  Uiso   1.00
O176   O     0.35363   0.04446   0.40546   0.00000  Uiso   1.00
O177   O     0.82189   0.71338   0.09048   0.00000  Uiso   1.00
O178   O     0.08452   0.73195   0.99781   0.00000  Uiso   1.00
N179   N     0.36502   0.92512   0.35699   0.00000  Uiso   1.00
N180   N     0.69873   0.68920   0.13253   0.00000  Uiso   1.00
N181   N     0.17329   0.70242   0.06649   0.00000  Uiso   1.00
N182   N     0.38031   0.04049   0.31549   0.00000  Uiso   1.00
N183   N     0.71401   0.80457   0.09104   0.00000  Uiso   1.00
N184   N     0.18858   0.81779   0.02499   0.00000  Uiso   1.00
C185   C     0.73789   0.08904   0.68900   0.00000  Uiso   1.00
C186   C     0.66477   0.09798   0.72515   0.00000  Uiso   1.00
C187   C     0.66755   0.11399   0.77867   0.00000  Uiso   1.00
C188   C     0.59395   0.11991   0.80477   0.00000  Uiso   1.00
C189   C     0.49163   0.13523   0.86495   0.00000  Uiso   1.00
C190   C     0.72979   0.00600   0.66330   0.00000  Uiso   1.00
C191   C     0.78724   0.94469   0.66480   0.00000  Uiso   1.00
C192   C     0.76837   0.87318   0.63883   0.00000  Uiso   1.00
C193   C     0.76701   0.74572   0.60294   0.00000  Uiso   1.00
C194   C     0.72614   0.15081   0.64511   0.00000  Uiso   1.00
C195   C     0.78054   0.21126   0.63130   0.00000  Uiso   1.00
C196   C     0.75860   0.26166   0.59000   0.00000  Uiso   1.00
C197   C     0.75158   0.35905   0.52586   0.00000  Uiso   1.00
C198   C     0.60222   0.07106   0.64020   0.00000  Uiso   1.00
C199   C     0.59108   0.08821   0.69865   0.00000  Uiso   1.00
C200   C     0.51745   0.09410   0.72468   0.00000  Uiso   1.00
C201   C     0.52013   0.11013   0.77822   0.00000  Uiso   1.00
C202   C     0.65610   0.99623   0.63679   0.00000  Uiso   1.00
C203   C     0.63714   0.92479   0.61081   0.00000  Uiso   1.00
C204   C     0.69455   0.86339   0.61228   0.00000  Uiso   1.00
C205   C     0.65245   0.14105   0.61860   0.00000  Uiso   1.00
C206   C     0.63043   0.19136   0.57731   0.00000  Uiso   1.00
C207   C     0.68478   0.25187   0.56344   0.00000  Uiso   1.00
H208   H     0.79526   0.09664   0.70963   0.00000  Uiso   1.00
H209   H     0.72460   0.12154   0.79917   0.00000  Uiso   1.00
H210   H     0.84427   0.95227   0.68531   0.00000  Uiso   1.00
H211   H     0.83756   0.21879   0.65182   0.00000  Uiso   1.00
H212   H     0.61375   0.14482   0.88675   0.00000  Uiso   1.00
H213   H     0.86610   0.78790   0.64667   0.00000  Uiso   1.00
H214   H     0.85195   0.34993   0.57603   0.00000  Uiso   1.00
H215   H     0.54485   0.06345   0.61956   0.00000  Uiso   1.00
H216   H     0.46043   0.08654   0.70415   0.00000  Uiso   1.00
H217   H     0.58011   0.91726   0.59030   0.00000  Uiso   1.00
H218   H     0.57340   0.18379   0.55681   0.00000  Uiso   1.00
H219   H     0.39935   0.11640   0.80963   0.00000  Uiso   1.00
H220   H     0.65170   0.75948   0.56955   0.00000  Uiso   1.00
H221   H     0.63755   0.32151   0.49892   0.00000  Uiso   1.00
O222   O     0.45554   0.14637   0.90546   0.00000  Uiso   1.00
O223   O     0.78662   0.67811   0.59048   0.00000  Uiso   1.00
O224   O     0.76805   0.41548   0.49781   0.00000  Uiso   1.00
N225   N     0.57488   0.13498   0.85699   0.00000  Uiso   1.00
N226   N     0.81080   0.80127   0.63253   0.00000  Uiso   1.00
N227   N     0.79758   0.32671   0.56649   0.00000  Uiso   1.00
N228   N     0.45951   0.11969   0.81549   0.00000  Uiso   1.00
N229   N     0.69543   0.78599   0.59104   0.00000  Uiso   1.00
N230   N     0.68221   0.31142   0.52499   0.00000  Uiso   1.00
C231   C     0.26211   0.91096   0.68900   0.00000  Uiso   1.00
C232   C     0.33523   0.90202   0.72515   0.00000  Uiso   1.00
C233   C     0.33245   0.88601   0.77867   0.00000  Uiso   1.00
C234   C     0.40605   0.88009   0.80477   0.00000  Uiso   1.00
C235   C     0.50837   0.86477   0.86495   0.00000  Uiso   1.00
C236   C     0.27021   0.99400   0.66330   0.00000  Uiso   1.00
C237   C     0.21276   0.05531   0.66480   0.00000  Uiso   1.00
C238   C     0.23163   0.12682   0.63883   0.00000  Uiso   1.00
C239   C     0.23299   0.25428   0.60294   0.00000  Uiso   1.00
C240   C     0.27386   0.84919   0.64511   0.00000  Uiso   1.00
C241   C     0.21946   0.78874   0.63130   0.00000  Uiso   1.00
C242   C     0.24140   0.73834   0.59000   0.00000  Uiso   1.00
C243   C     0.24842   0.64095   0.52586   0.00000  Uiso   1.00
C244   C     0.39778   0.92894   0.64020   0.00000  Uiso   1.00
C245   C     0.40892   0.91179   0.69865   0.00000  Uiso   1.00
C246   C     0.48255   0.90590   0.72468   0.00000  Uiso   1.00
C247   C     0.47987   0.88987   0.77822   0.00000  Uiso   1.00
C248   C     0.34390   0.00377   0.63679   0.00000  Uiso   1.00
C249   C     0.36286   0.07521   0.61081   0.00000  Uiso   1.00
C250   C     0.30545   0.13661   0.61228   0.00000  Uiso   1.00
C251   C     0.34755   0.85895   0.61860   0.00000  Uiso   1.00
C252   C     0.36957   0.80864   0.57731   0.00000  Uiso   1.00
C253   C     0.31522   0.74813   0.56344   0.00000  Uiso   1.00
H254   H     0.20474   0.90336   0.70963   0.00000  Uiso   1.00
H255   H     0.27540   0.87846   0.79917   0.00000  Uiso   1.00
H256   H     0.15573   0.04773   0.68531   0.00000  Uiso   1.00
H257   H     0.16244   0.78121   0.65182   0.00000  Uiso   1.00
H258   H     0.38625   0.85518   0.88675   0.00000  Uiso   1.00
H259   H     0.13390   0.21210   0.64667   0.00000  Uiso   1.00
H260   H     0.14805   0.65007   0.57603   0.00000  Uiso   1.00
H261   H     0.45515   0.93655   0.61956   0.00000  Uiso   1.00
H262   H     0.53957   0.91346   0.70415   0.00000  Uiso   1.00
H263   H     0.41989   0.08274   0.59030   0.00000  Uiso   1.00
H264   H     0.42660   0.81621   0.55681   0.00000  Uiso   1.00
H265   H     0.60065   0.88360   0.80963   0.00000  Uiso   1.00
H266   H     0.34830   0.24052   0.56955   0.00000  Uiso   1.00
H267   H     0.36245   0.67849   0.49892   0.00000  Uiso   1.00
O268   O     0.54446   0.85363   0.90546   0.00000  Uiso   1.00
O269   O     0.21338   0.32189   0.59048   0.00000  Uiso   1.00
O270   O     0.23195   0.58452   0.49781   0.00000  Uiso   1.00
N271   N     0.42512   0.86502   0.85699   0.00000  Uiso   1.00
N272   N     0.18920   0.19873   0.63253   0.00000  Uiso   1.00
N273   N     0.20242   0.67329   0.56649   0.00000  Uiso   1.00
N274   N     0.54049   0.88031   0.81549   0.00000  Uiso   1.00
N275   N     0.30457   0.21401   0.59104   0.00000  Uiso   1.00
N276   N     0.31779   0.68858   0.52499   0.00000  Uiso   1.00
C277   C     0.91096   0.73789   0.31100   0.00000  Uiso   1.00
C278   C     0.90202   0.66477   0.27485   0.00000  Uiso   1.00
C279   C     0.88601   0.66755   0.22133   0.00000  Uiso   1.00
C280   C     0.88009   0.59395   0.19523   0.00000  Uiso   1.00
C281   C     0.86477   0.49163   0.13505   0.00000  Uiso   1.00
C282   C     0.99400   0.72979   0.33670   0.00000  Uiso   1.00
C283   C     0.05531   0.78724   0.33520   0.00000  Uiso   1.00
C284   C     0.12682   0.76837   0.36117   0.00000  Uiso   1.00
C285   C     0.25428   0.76701   0.39706   0.00000  Uiso   1.00
C286   C     0.84919   0.72614   0.35489   0.00000  Uiso   1.00
C287   C     0.78874   0.78054   0.36870   0.00000  Uiso   1.00
C288   C     0.73834   0.75860   0.41000   0.00000  Uiso   1.00
C289   C     0.64095   0.75158   0.47414   0.00000  Uiso   1.00
C290   C     0.92894   0.60222   0.35980   0.00000  Uiso   1.00
C291   C     0.91179   0.59108   0.30135   0.00000  Uiso   1.00
C292   C     0.90590   0.51745   0.27532   0.00000  Uiso   1.00
C293   C     0.88987   0.52013   0.22178   0.00000  Uiso   1.00
C294   C     0.00377   0.65610   0.36321   0.00000  Uiso   1.00
C295   C     0.07521   0.63714   0.38919   0.00000  Uiso   1.00
C296   C     0.13661   0.69455   0.38772   0.00000  Uiso   1.00
C297   C     0.85895   0.65245   0.38140   0.00000  Uiso   1.00
C298   C     0.80864   0.63043   0.42269   0.00000  Uiso   1.00
C299   C     0.74813   0.68478   0.43656   0.00000  Uiso   1.00
H300   H     0.90336   0.79526   0.29037   0.00000  Uiso   1.00
H301   H     0.87846   0.72460   0.20083   0.00000  Uiso   1.00
H302   H     0.04773   0.84427   0.31469   0.00000  Uiso   1.00
H303   H     0.78121   0.83756   0.34818   0.00000  Uiso   1.00
H304   H     0.85518   0.61375   0.11325   0.00000  Uiso   1.00
H305   H     0.21210   0.86610   0.35333   0.00000  Uiso   1.00
H306   H     0.65007   0.85195   0.42397   0.00000  Uiso   1.00
H307   H     0.93655   0.54485   0.38044   0.00000  Uiso   1.00
H308   H     0.91346   0.46043   0.29585   0.00000  Uiso   1.00
H309   H     0.08274   0.58011   0.40970   0.00000  Uiso   1.00
H310   H     0.81621   0.57340   0.44319   0.00000  Uiso   1.00
H311   H     0.88360   0.39935   0.19037   0.00000  Uiso   1.00
H312   H     0.24052   0.65170   0.43045   0.00000  Uiso   1.00
H313   H     0.67849   0.63755   0.50108   0.00000  Uiso   1.00
O314   O     0.85363   0.45554   0.09454   0.00000  Uiso   1.00
O315   O     0.32189   0.78662   0.40952   0.00000  Uiso   1.00
O316   O     0.58452   0.76805   0.50219   0.00000  Uiso   1.00
N317   N     0.86502   0.57488   0.14301   0.00000  Uiso   1.00
N318   N     0.19873   0.81080   0.36747   0.00000  Uiso   1.00
N319   N     0.67329   0.79758   0.43351   0.00000  Uiso   1.00
N320   N     0.88031   0.45951   0.18451   0.00000  Uiso   1.00
N321   N     0.21401   0.69543   0.40896   0.00000  Uiso   1.00
N322   N     0.68858   0.68221   0.47501   0.00000  Uiso   1.00
C323   C     0.08904   0.26211   0.31100   0.00000  Uiso   1.00
C324   C     0.09798   0.33523   0.27485   0.00000  Uiso   1.00
C325   C     0.11399   0.33245   0.22133   0.00000  Uiso   1.00
C326   C     0.11991   0.40605   0.19523   0.00000  Uiso   1.00
C327   C     0.13523   0.50837   0.13505   0.00000  Uiso   1.00
C328   C     0.00600   0.27021   0.33670   0.00000  Uiso   1.00
C329   C     0.94469   0.21276   0.33520   0.00000  Uiso   1.00
C330   C     0.87318   0.23163   0.36117   0.00000  Uiso   1.00
C331   C     0.74572   0.23299   0.39706   0.00000  Uiso   1.00
C332   C     0.15081   0.27386   0.35489   0.00000  Uiso   1.00
C333   C     0.21126   0.21946   0.36870   0.00000  Uiso   1.00
C334   C     0.26166   0.24140   0.41000   0.00000  Uiso   1.00
C335   C     0.35905   0.24842   0.47414   0.00000  Uiso   1.00
C336   C     0.07106   0.39778   0.35980   0.00000  Uiso   1.00
C337   C     0.08821   0.40892   0.30135   0.00000  Uiso   1.00
C338   C     0.09410   0.48255   0.27532   0.00000  Uiso   1.00
C339   C     0.11013   0.47987   0.22178   0.00000  Uiso   1.00
C340   C     0.99623   0.34390   0.36321   0.00000  Uiso   1.00
C341   C     0.92479   0.36286   0.38919   0.00000  Uiso   1.00
C342   C     0.86339   0.30545   0.38772   0.00000  Uiso   1.00
C343   C     0.14105   0.34755   0.38140   0.00000  Uiso   1.00
C344   C     0.19136   0.36957   0.42269   0.00000  Uiso   1.00
C345   C     0.25187   0.31522   0.43656   0.00000  Uiso   1.00
H346   H     0.09664   0.20474   0.29037   0.00000  Uiso   1.00
H347   H     0.12154   0.27540   0.20083   0.00000  Uiso   1.00
H348   H     0.95227   0.15573   0.31469   0.00000  Uiso   1.00
H349   H     0.21879   0.16244   0.34818   0.00000  Uiso   1.00
H350   H     0.14482   0.38625   0.11325   0.00000  Uiso   1.00
H351   H     0.78790   0.13390   0.35333   0.00000  Uiso   1.00
H352   H     0.34993   0.14805   0.42397   0.00000  Uiso   1.00
H353   H     0.06345   0.45515   0.38044   0.00000  Uiso   1.00
H354   H     0.08654   0.53957   0.29585   0.00000  Uiso   1.00
H355   H     0.91726   0.41989   0.40970   0.00000  Uiso   1.00
H356   H     0.18379   0.42660   0.44319   0.00000  Uiso   1.00
H357   H     0.11640   0.60065   0.19037   0.00000  Uiso   1.00
H358   H     0.75948   0.34830   0.43045   0.00000  Uiso   1.00
H359   H     0.32151   0.36245   0.50108   0.00000  Uiso   1.00
O360   O     0.14637   0.54446   0.09454   0.00000  Uiso   1.00
O361   O     0.67811   0.21338   0.40952   0.00000  Uiso   1.00
O362   O     0.41548   0.23195   0.50219   0.00000  Uiso   1.00
N363   N     0.13498   0.42512   0.14301   0.00000  Uiso   1.00
N364   N     0.80127   0.18920   0.36747   0.00000  Uiso   1.00
N365   N     0.32671   0.20242   0.43351   0.00000  Uiso   1.00
N366   N     0.11969   0.54049   0.18451   0.00000  Uiso   1.00
N367   N     0.78599   0.30457   0.40896   0.00000  Uiso   1.00
N368   N     0.31142   0.31779   0.47501   0.00000  Uiso   1.00
