data_job_01669
_audit_creation_date              2018-12-19
_audit_creation_method            'Materials Studio'
_symmetry_space_group_name_H-M    'P1'
_symmetry_Int_Tables_number       1
_symmetry_cell_setting            triclinic
loop_
_symmetry_equiv_pos_as_xyz
  x,y,z
_cell_length_a                    15.8244
_cell_length_b                    22.6585
_cell_length_c                    18.3326
_cell_angle_alpha                 90.0000
_cell_angle_beta                  90.0000
_cell_angle_gamma                 90.0000
loop_
_atom_site_label
_atom_site_type_symbol
_atom_site_fract_x
_atom_site_fract_y
_atom_site_fract_z
_atom_site_U_iso_or_equiv
_atom_site_adp_type
_atom_site_occupancy
C1     C     0.66064   0.26347   0.01549   0.00000  Uiso   1.00
C2     C     0.68503   0.32261   0.04914   0.00000  Uiso   1.00
C3     C     0.63499   0.37290   0.05043   0.00000  Uiso   1.00
C4     C     0.66876   0.42259   0.08382   0.00000  Uiso   1.00
C5     C     0.69434   0.51452   0.13133   0.00000  Uiso   1.00
C6     C     0.72955   0.24907   0.96013   0.00000  Uiso   1.00
C7     C     0.71694   0.23753   0.88658   0.00000  Uiso   1.00
C8     C     0.78819   0.22530   0.84504   0.00000  Uiso   1.00
C9     C     0.88288   0.20304   0.75438   0.00000  Uiso   1.00
C10    C     0.66941   0.21791   0.07624   0.00000  Uiso   1.00
C11    C     0.60624   0.18015   0.10031   0.00000  Uiso   1.00
C12    C     0.62686   0.14168   0.15651   0.00000  Uiso   1.00
C13    C     0.62818   0.07102   0.24612   0.00000  Uiso   1.00
C14    C     0.80958   0.26228   0.07248   0.00000  Uiso   1.00
C15    C     0.76593   0.32197   0.08010   0.00000  Uiso   1.00
C16    C     0.79978   0.37159   0.11349   0.00000  Uiso   1.00
C17    C     0.74980   0.42194   0.11483   0.00000  Uiso   1.00
C18    C     0.81045   0.24843   0.99108   0.00000  Uiso   1.00
C19    C     0.88173   0.23622   0.94964   0.00000  Uiso   1.00
C20    C     0.86923   0.22466   0.87605   0.00000  Uiso   1.00
C21    C     0.75031   0.21727   0.10720   0.00000  Uiso   1.00
C22    C     0.77103   0.17884   0.16337   0.00000  Uiso   1.00
C23    C     0.70791   0.14103   0.18752   0.00000  Uiso   1.00
H24    H     0.59766   0.26397   0.99138   0.00000  Uiso   1.00
H25    H     0.57239   0.37338   0.02646   0.00000  Uiso   1.00
H26    H     0.65433   0.23802   0.86265   0.00000  Uiso   1.00
H27    H     0.54365   0.18066   0.07634   0.00000  Uiso   1.00
H28    H     0.58007   0.49441   0.07899   0.00000  Uiso   1.00
H29    H     0.75283   0.20898   0.73357   0.00000  Uiso   1.00
H30    H     0.51944   0.08801   0.18418   0.00000  Uiso   1.00
H31    H     0.87257   0.26178   0.09658   0.00000  Uiso   1.00
H32    H     0.86239   0.37108   0.13744   0.00000  Uiso   1.00
H33    H     0.94432   0.23572   0.97362   0.00000  Uiso   1.00
H34    H     0.83364   0.17836   0.18731   0.00000  Uiso   1.00
H35    H     0.81544   0.49254   0.16906   0.00000  Uiso   1.00
H36    H     0.98820   0.20711   0.82364   0.00000  Uiso   1.00
H37    H     0.75481   0.08614   0.27425   0.00000  Uiso   1.00
O38    O     0.68611   0.56542   0.14898   0.00000  Uiso   1.00
O39    O     0.91276   0.19094   0.69581   0.00000  Uiso   1.00
O40    O     0.60655   0.03223   0.28700   0.00000  Uiso   1.00
N41    N     0.63685   0.47896   0.09459   0.00000  Uiso   1.00
N42    N     0.79838   0.21212   0.77164   0.00000  Uiso   1.00
N43    N     0.58018   0.09901   0.19291   0.00000  Uiso   1.00
N44    N     0.76351   0.47796   0.14306   0.00000  Uiso   1.00
N45    N     0.92503   0.21111   0.82011   0.00000  Uiso   1.00
N46    N     0.70683   0.09801   0.24138   0.00000  Uiso   1.00
C47    C     0.16064   0.76347   0.01549   0.00000  Uiso   1.00
C48    C     0.18503   0.82261   0.04914   0.00000  Uiso   1.00
C49    C     0.13499   0.87290   0.05043   0.00000  Uiso   1.00
C50    C     0.16876   0.92259   0.08382   0.00000  Uiso   1.00
C51    C     0.19434   0.01452   0.13133   0.00000  Uiso   1.00
C52    C     0.22955   0.74907   0.96013   0.00000  Uiso   1.00
C53    C     0.21694   0.73753   0.88658   0.00000  Uiso   1.00
C54    C     0.28819   0.72530   0.84504   0.00000  Uiso   1.00
C55    C     0.38288   0.70304   0.75438   0.00000  Uiso   1.00
C56    C     0.16941   0.71791   0.07624   0.00000  Uiso   1.00
C57    C     0.10624   0.68015   0.10031   0.00000  Uiso   1.00
C58    C     0.12686   0.64168   0.15651   0.00000  Uiso   1.00
C59    C     0.12818   0.57102   0.24612   0.00000  Uiso   1.00
C60    C     0.30958   0.76228   0.07248   0.00000  Uiso   1.00
C61    C     0.26593   0.82197   0.08010   0.00000  Uiso   1.00
C62    C     0.29978   0.87159   0.11349   0.00000  Uiso   1.00
C63    C     0.24980   0.92194   0.11483   0.00000  Uiso   1.00
C64    C     0.31045   0.74843   0.99108   0.00000  Uiso   1.00
C65    C     0.38173   0.73622   0.94964   0.00000  Uiso   1.00
C66    C     0.36923   0.72466   0.87605   0.00000  Uiso   1.00
C67    C     0.25031   0.71727   0.10720   0.00000  Uiso   1.00
C68    C     0.27103   0.67884   0.16337   0.00000  Uiso   1.00
C69    C     0.20791   0.64103   0.18752   0.00000  Uiso   1.00
H70    H     0.09766   0.76397   0.99138   0.00000  Uiso   1.00
H71    H     0.07239   0.87338   0.02646   0.00000  Uiso   1.00
H72    H     0.15433   0.73802   0.86265   0.00000  Uiso   1.00
H73    H     0.04365   0.68066   0.07634   0.00000  Uiso   1.00
H74    H     0.08007   0.99441   0.07899   0.00000  Uiso   1.00
H75    H     0.25283   0.70898   0.73357   0.00000  Uiso   1.00
H76    H     0.01944   0.58801   0.18418   0.00000  Uiso   1.00
H77    H     0.37257   0.76178   0.09658   0.00000  Uiso   1.00
H78    H     0.36239   0.87108   0.13744   0.00000  Uiso   1.00
H79    H     0.44432   0.73572   0.97362   0.00000  Uiso   1.00
H80    H     0.33364   0.67836   0.18731   0.00000  Uiso   1.00
H81    H     0.31544   0.99254   0.16906   0.00000  Uiso   1.00
H82    H     0.48820   0.70711   0.82364   0.00000  Uiso   1.00
H83    H     0.25481   0.58614   0.27425   0.00000  Uiso   1.00
O84    O     0.18611   0.06542   0.14898   0.00000  Uiso   1.00
O85    O     0.41276   0.69094   0.69581   0.00000  Uiso   1.00
O86    O     0.10655   0.53223   0.28700   0.00000  Uiso   1.00
N87    N     0.13685   0.97896   0.09459   0.00000  Uiso   1.00
N88    N     0.29838   0.71212   0.77164   0.00000  Uiso   1.00
N89    N     0.08018   0.59901   0.19291   0.00000  Uiso   1.00
N90    N     0.26351   0.97796   0.14306   0.00000  Uiso   1.00
N91    N     0.42503   0.71111   0.82011   0.00000  Uiso   1.00
N92    N     0.20683   0.59801   0.24138   0.00000  Uiso   1.00
C93    C     0.33936   0.73653   0.51549   0.00000  Uiso   1.00
C94    C     0.31497   0.67739   0.54914   0.00000  Uiso   1.00
C95    C     0.36501   0.62710   0.55043   0.00000  Uiso   1.00
C96    C     0.33124   0.57741   0.58382   0.00000  Uiso   1.00
C97    C     0.30566   0.48548   0.63133   0.00000  Uiso   1.00
C98    C     0.27045   0.75093   0.46013   0.00000  Uiso   1.00
C99    C     0.28306   0.76247   0.38658   0.00000  Uiso   1.00
C100   C     0.21181   0.77470   0.34504   0.00000  Uiso   1.00
C101   C     0.11712   0.79696   0.25438   0.00000  Uiso   1.00
C102   C     0.33059   0.78209   0.57624   0.00000  Uiso   1.00
C103   C     0.39376   0.81985   0.60031   0.00000  Uiso   1.00
C104   C     0.37314   0.85832   0.65651   0.00000  Uiso   1.00
C105   C     0.37182   0.92898   0.74612   0.00000  Uiso   1.00
C106   C     0.19042   0.73772   0.57248   0.00000  Uiso   1.00
C107   C     0.23407   0.67803   0.58010   0.00000  Uiso   1.00
C108   C     0.20022   0.62841   0.61349   0.00000  Uiso   1.00
C109   C     0.25020   0.57806   0.61483   0.00000  Uiso   1.00
C110   C     0.18955   0.75157   0.49108   0.00000  Uiso   1.00
C111   C     0.11827   0.76378   0.44964   0.00000  Uiso   1.00
C112   C     0.13077   0.77534   0.37605   0.00000  Uiso   1.00
C113   C     0.24969   0.78273   0.60720   0.00000  Uiso   1.00
C114   C     0.22897   0.82116   0.66337   0.00000  Uiso   1.00
C115   C     0.29209   0.85897   0.68752   0.00000  Uiso   1.00
H116   H     0.40234   0.73603   0.49138   0.00000  Uiso   1.00
H117   H     0.42761   0.62662   0.52646   0.00000  Uiso   1.00
H118   H     0.34567   0.76198   0.36265   0.00000  Uiso   1.00
H119   H     0.45635   0.81934   0.57634   0.00000  Uiso   1.00
H120   H     0.41993   0.50559   0.57899   0.00000  Uiso   1.00
H121   H     0.24717   0.79102   0.23357   0.00000  Uiso   1.00
H122   H     0.48056   0.91199   0.68418   0.00000  Uiso   1.00
H123   H     0.12743   0.73822   0.59658   0.00000  Uiso   1.00
H124   H     0.13761   0.62892   0.63744   0.00000  Uiso   1.00
H125   H     0.05568   0.76428   0.47362   0.00000  Uiso   1.00
H126   H     0.16636   0.82164   0.68731   0.00000  Uiso   1.00
H127   H     0.18456   0.50746   0.66906   0.00000  Uiso   1.00
H128   H     0.01180   0.79289   0.32364   0.00000  Uiso   1.00
H129   H     0.24519   0.91386   0.77425   0.00000  Uiso   1.00
O130   O     0.31389   0.43458   0.64898   0.00000  Uiso   1.00
O131   O     0.08724   0.80906   0.19581   0.00000  Uiso   1.00
O132   O     0.39345   0.96777   0.78700   0.00000  Uiso   1.00
N133   N     0.36315   0.52104   0.59459   0.00000  Uiso   1.00
N134   N     0.20162   0.78788   0.27164   0.00000  Uiso   1.00
N135   N     0.41982   0.90099   0.69291   0.00000  Uiso   1.00
N136   N     0.23649   0.52204   0.64306   0.00000  Uiso   1.00
N137   N     0.07497   0.78889   0.32011   0.00000  Uiso   1.00
N138   N     0.29317   0.90199   0.74138   0.00000  Uiso   1.00
C139   C     0.83936   0.23653   0.51549   0.00000  Uiso   1.00
C140   C     0.81497   0.17739   0.54914   0.00000  Uiso   1.00
C141   C     0.86501   0.12710   0.55043   0.00000  Uiso   1.00
C142   C     0.83124   0.07741   0.58382   0.00000  Uiso   1.00
C143   C     0.80566   0.98548   0.63133   0.00000  Uiso   1.00
C144   C     0.77045   0.25093   0.46013   0.00000  Uiso   1.00
C145   C     0.78306   0.26247   0.38658   0.00000  Uiso   1.00
C146   C     0.71181   0.27470   0.34504   0.00000  Uiso   1.00
C147   C     0.61712   0.29696   0.25438   0.00000  Uiso   1.00
C148   C     0.83059   0.28209   0.57624   0.00000  Uiso   1.00
C149   C     0.89376   0.31985   0.60031   0.00000  Uiso   1.00
C150   C     0.87314   0.35832   0.65651   0.00000  Uiso   1.00
C151   C     0.87182   0.42898   0.74612   0.00000  Uiso   1.00
C152   C     0.69042   0.23772   0.57248   0.00000  Uiso   1.00
C153   C     0.73407   0.17803   0.58010   0.00000  Uiso   1.00
C154   C     0.70022   0.12841   0.61349   0.00000  Uiso   1.00
C155   C     0.75020   0.07806   0.61483   0.00000  Uiso   1.00
C156   C     0.68955   0.25157   0.49108   0.00000  Uiso   1.00
C157   C     0.61827   0.26378   0.44964   0.00000  Uiso   1.00
C158   C     0.63077   0.27534   0.37605   0.00000  Uiso   1.00
C159   C     0.74969   0.28273   0.60720   0.00000  Uiso   1.00
C160   C     0.72897   0.32116   0.66337   0.00000  Uiso   1.00
C161   C     0.79209   0.35897   0.68752   0.00000  Uiso   1.00
H162   H     0.90234   0.23603   0.49138   0.00000  Uiso   1.00
H163   H     0.92761   0.12662   0.52646   0.00000  Uiso   1.00
H164   H     0.84567   0.26198   0.36265   0.00000  Uiso   1.00
H165   H     0.95635   0.31934   0.57634   0.00000  Uiso   1.00
H166   H     0.91993   0.00559   0.57899   0.00000  Uiso   1.00
H167   H     0.74717   0.29102   0.23357   0.00000  Uiso   1.00
H168   H     0.98056   0.41199   0.68418   0.00000  Uiso   1.00
H169   H     0.62743   0.23822   0.59658   0.00000  Uiso   1.00
H170   H     0.63761   0.12892   0.63744   0.00000  Uiso   1.00
H171   H     0.55568   0.26428   0.47362   0.00000  Uiso   1.00
H172   H     0.66636   0.32164   0.68731   0.00000  Uiso   1.00
H173   H     0.68456   0.00746   0.66906   0.00000  Uiso   1.00
H174   H     0.51180   0.29289   0.32364   0.00000  Uiso   1.00
H175   H     0.74519   0.41386   0.77425   0.00000  Uiso   1.00
O176   O     0.81389   0.93458   0.64898   0.00000  Uiso   1.00
O177   O     0.58724   0.30906   0.19581   0.00000  Uiso   1.00
O178   O     0.89345   0.46777   0.78700   0.00000  Uiso   1.00
N179   N     0.86315   0.02104   0.59459   0.00000  Uiso   1.00
N180   N     0.70162   0.28788   0.27164   0.00000  Uiso   1.00
N181   N     0.91982   0.40099   0.69291   0.00000  Uiso   1.00
N182   N     0.73649   0.02204   0.64306   0.00000  Uiso   1.00
N183   N     0.57497   0.28889   0.32011   0.00000  Uiso   1.00
N184   N     0.79317   0.40199   0.74138   0.00000  Uiso   1.00
C185   C     0.33936   0.26347   0.48451   0.00000  Uiso   1.00
C186   C     0.31497   0.32261   0.45086   0.00000  Uiso   1.00
C187   C     0.36501   0.37290   0.44957   0.00000  Uiso   1.00
C188   C     0.33124   0.42259   0.41618   0.00000  Uiso   1.00
C189   C     0.30566   0.51452   0.36867   0.00000  Uiso   1.00
C190   C     0.27045   0.24907   0.53987   0.00000  Uiso   1.00
C191   C     0.28306   0.23753   0.61342   0.00000  Uiso   1.00
C192   C     0.21181   0.22530   0.65496   0.00000  Uiso   1.00
C193   C     0.11712   0.20304   0.74562   0.00000  Uiso   1.00
C194   C     0.33059   0.21791   0.42376   0.00000  Uiso   1.00
C195   C     0.39376   0.18015   0.39969   0.00000  Uiso   1.00
C196   C     0.37314   0.14168   0.34349   0.00000  Uiso   1.00
C197   C     0.37182   0.07102   0.25388   0.00000  Uiso   1.00
C198   C     0.19042   0.26228   0.42752   0.00000  Uiso   1.00
C199   C     0.23407   0.32197   0.41990   0.00000  Uiso   1.00
C200   C     0.20022   0.37159   0.38651   0.00000  Uiso   1.00
C201   C     0.25020   0.42194   0.38517   0.00000  Uiso   1.00
C202   C     0.18955   0.24843   0.50892   0.00000  Uiso   1.00
C203   C     0.11827   0.23622   0.55036   0.00000  Uiso   1.00
C204   C     0.13077   0.22466   0.62395   0.00000  Uiso   1.00
C205   C     0.24969   0.21727   0.39280   0.00000  Uiso   1.00
C206   C     0.22897   0.17884   0.33663   0.00000  Uiso   1.00
C207   C     0.29209   0.14103   0.31248   0.00000  Uiso   1.00
H208   H     0.40234   0.26397   0.50862   0.00000  Uiso   1.00
H209   H     0.42761   0.37338   0.47354   0.00000  Uiso   1.00
H210   H     0.34567   0.23802   0.63735   0.00000  Uiso   1.00
H211   H     0.45635   0.18066   0.42366   0.00000  Uiso   1.00
H212   H     0.41993   0.49441   0.42101   0.00000  Uiso   1.00
H213   H     0.24717   0.20898   0.76643   0.00000  Uiso   1.00
H214   H     0.48056   0.08801   0.31582   0.00000  Uiso   1.00
H215   H     0.12743   0.26178   0.40342   0.00000  Uiso   1.00
H216   H     0.13761   0.37108   0.36256   0.00000  Uiso   1.00
H217   H     0.05568   0.23572   0.52638   0.00000  Uiso   1.00
H218   H     0.16636   0.17836   0.31269   0.00000  Uiso   1.00
H219   H     0.18456   0.49254   0.33094   0.00000  Uiso   1.00
H220   H     0.01180   0.20711   0.67636   0.00000  Uiso   1.00
H221   H     0.24519   0.08614   0.22575   0.00000  Uiso   1.00
O222   O     0.31389   0.56542   0.35102   0.00000  Uiso   1.00
O223   O     0.08724   0.19094   0.80419   0.00000  Uiso   1.00
O224   O     0.39345   0.03223   0.21300   0.00000  Uiso   1.00
N225   N     0.36315   0.47896   0.40541   0.00000  Uiso   1.00
N226   N     0.20162   0.21212   0.72836   0.00000  Uiso   1.00
N227   N     0.41982   0.09901   0.30709   0.00000  Uiso   1.00
N228   N     0.23649   0.47796   0.35694   0.00000  Uiso   1.00
N229   N     0.07497   0.21111   0.67989   0.00000  Uiso   1.00
N230   N     0.29317   0.09801   0.25862   0.00000  Uiso   1.00
C231   C     0.83936   0.76347   0.48451   0.00000  Uiso   1.00
C232   C     0.81497   0.82261   0.45086   0.00000  Uiso   1.00
C233   C     0.86501   0.87290   0.44957   0.00000  Uiso   1.00
C234   C     0.83124   0.92259   0.41618   0.00000  Uiso   1.00
C235   C     0.80566   0.01452   0.36867   0.00000  Uiso   1.00
C236   C     0.77045   0.74907   0.53987   0.00000  Uiso   1.00
C237   C     0.78306   0.73753   0.61342   0.00000  Uiso   1.00
C238   C     0.71181   0.72530   0.65496   0.00000  Uiso   1.00
C239   C     0.61712   0.70304   0.74562   0.00000  Uiso   1.00
C240   C     0.83059   0.71791   0.42376   0.00000  Uiso   1.00
C241   C     0.89376   0.68015   0.39969   0.00000  Uiso   1.00
C242   C     0.87314   0.64168   0.34349   0.00000  Uiso   1.00
C243   C     0.87182   0.57102   0.25388   0.00000  Uiso   1.00
C244   C     0.69042   0.76228   0.42752   0.00000  Uiso   1.00
C245   C     0.73407   0.82197   0.41990   0.00000  Uiso   1.00
C246   C     0.70022   0.87159   0.38651   0.00000  Uiso   1.00
C247   C     0.75020   0.92194   0.38517   0.00000  Uiso   1.00
C248   C     0.68955   0.74843   0.50892   0.00000  Uiso   1.00
C249   C     0.61827   0.73622   0.55036   0.00000  Uiso   1.00
C250   C     0.63077   0.72466   0.62395   0.00000  Uiso   1.00
C251   C     0.74969   0.71727   0.39280   0.00000  Uiso   1.00
C252   C     0.72897   0.67884   0.33663   0.00000  Uiso   1.00
C253   C     0.79209   0.64103   0.31248   0.00000  Uiso   1.00
H254   H     0.90234   0.76397   0.50862   0.00000  Uiso   1.00
H255   H     0.92761   0.87338   0.47354   0.00000  Uiso   1.00
H256   H     0.84567   0.73802   0.63735   0.00000  Uiso   1.00
H257   H     0.95635   0.68066   0.42366   0.00000  Uiso   1.00
H258   H     0.91993   0.99441   0.42101   0.00000  Uiso   1.00
H259   H     0.74717   0.70898   0.76643   0.00000  Uiso   1.00
H260   H     0.98056   0.58801   0.31582   0.00000  Uiso   1.00
H261   H     0.62743   0.76178   0.40342   0.00000  Uiso   1.00
H262   H     0.63761   0.87108   0.36256   0.00000  Uiso   1.00
H263   H     0.55568   0.73572   0.52638   0.00000  Uiso   1.00
H264   H     0.66636   0.67836   0.31269   0.00000  Uiso   1.00
H265   H     0.68456   0.99254   0.33094   0.00000  Uiso   1.00
H266   H     0.51180   0.70711   0.67636   0.00000  Uiso   1.00
H267   H     0.74519   0.58614   0.22575   0.00000  Uiso   1.00
O268   O     0.81389   0.06542   0.35102   0.00000  Uiso   1.00
O269   O     0.58724   0.69094   0.80419   0.00000  Uiso   1.00
O270   O     0.89345   0.53223   0.21300   0.00000  Uiso   1.00
N271   N     0.86315   0.97896   0.40541   0.00000  Uiso   1.00
N272   N     0.70162   0.71212   0.72836   0.00000  Uiso   1.00
N273   N     0.91982   0.59901   0.30709   0.00000  Uiso   1.00
N274   N     0.73649   0.97796   0.35694   0.00000  Uiso   1.00
N275   N     0.57497   0.71111   0.67989   0.00000  Uiso   1.00
N276   N     0.79317   0.59801   0.25862   0.00000  Uiso   1.00
C277   C     0.66064   0.73653   0.98451   0.00000  Uiso   1.00
C278   C     0.68503   0.67739   0.95086   0.00000  Uiso   1.00
C279   C     0.63499   0.62710   0.94957   0.00000  Uiso   1.00
C280   C     0.66876   0.57741   0.91618   0.00000  Uiso   1.00
C281   C     0.69434   0.48548   0.86867   0.00000  Uiso   1.00
C282   C     0.72955   0.75093   0.03987   0.00000  Uiso   1.00
C283   C     0.71694   0.76247   0.11342   0.00000  Uiso   1.00
C284   C     0.78819   0.77470   0.15496   0.00000  Uiso   1.00
C285   C     0.88288   0.79696   0.24562   0.00000  Uiso   1.00
C286   C     0.66941   0.78209   0.92376   0.00000  Uiso   1.00
C287   C     0.60624   0.81985   0.89969   0.00000  Uiso   1.00
C288   C     0.62686   0.85832   0.84349   0.00000  Uiso   1.00
C289   C     0.62818   0.92898   0.75388   0.00000  Uiso   1.00
C290   C     0.80958   0.73772   0.92752   0.00000  Uiso   1.00
C291   C     0.76593   0.67803   0.91990   0.00000  Uiso   1.00
C292   C     0.79978   0.62841   0.88651   0.00000  Uiso   1.00
C293   C     0.74980   0.57806   0.88517   0.00000  Uiso   1.00
C294   C     0.81045   0.75157   0.00892   0.00000  Uiso   1.00
C295   C     0.88173   0.76378   0.05036   0.00000  Uiso   1.00
C296   C     0.86923   0.77534   0.12395   0.00000  Uiso   1.00
C297   C     0.75031   0.78273   0.89280   0.00000  Uiso   1.00
C298   C     0.77103   0.82116   0.83663   0.00000  Uiso   1.00
C299   C     0.70791   0.85897   0.81248   0.00000  Uiso   1.00
H300   H     0.59766   0.73603   0.00862   0.00000  Uiso   1.00
H301   H     0.57239   0.62662   0.97354   0.00000  Uiso   1.00
H302   H     0.65433   0.76198   0.13735   0.00000  Uiso   1.00
H303   H     0.54365   0.81934   0.92366   0.00000  Uiso   1.00
H304   H     0.58007   0.50559   0.92101   0.00000  Uiso   1.00
H305   H     0.75283   0.79102   0.26643   0.00000  Uiso   1.00
H306   H     0.51944   0.91199   0.81582   0.00000  Uiso   1.00
H307   H     0.87257   0.73822   0.90342   0.00000  Uiso   1.00
H308   H     0.86239   0.62892   0.86256   0.00000  Uiso   1.00
H309   H     0.94432   0.76428   0.02638   0.00000  Uiso   1.00
H310   H     0.83364   0.82164   0.81269   0.00000  Uiso   1.00
H311   H     0.81544   0.50746   0.83094   0.00000  Uiso   1.00
H312   H     0.98820   0.79289   0.17636   0.00000  Uiso   1.00
H313   H     0.75481   0.91386   0.72575   0.00000  Uiso   1.00
O314   O     0.68611   0.43458   0.85102   0.00000  Uiso   1.00
O315   O     0.91276   0.80906   0.30419   0.00000  Uiso   1.00
O316   O     0.60655   0.96777   0.71300   0.00000  Uiso   1.00
N317   N     0.63685   0.52104   0.90541   0.00000  Uiso   1.00
N318   N     0.79838   0.78788   0.22836   0.00000  Uiso   1.00
N319   N     0.58018   0.90099   0.80709   0.00000  Uiso   1.00
N320   N     0.76351   0.52204   0.85694   0.00000  Uiso   1.00
N321   N     0.92503   0.78889   0.17989   0.00000  Uiso   1.00
N322   N     0.70683   0.90199   0.75862   0.00000  Uiso   1.00
C323   C     0.16064   0.23653   0.98451   0.00000  Uiso   1.00
C324   C     0.18503   0.17739   0.95086   0.00000  Uiso   1.00
C325   C     0.13499   0.12710   0.94957   0.00000  Uiso   1.00
C326   C     0.16876   0.07741   0.91618   0.00000  Uiso   1.00
C327   C     0.19434   0.98548   0.86867   0.00000  Uiso   1.00
C328   C     0.22955   0.25093   0.03987   0.00000  Uiso   1.00
C329   C     0.21694   0.26247   0.11342   0.00000  Uiso   1.00
C330   C     0.28819   0.27470   0.15496   0.00000  Uiso   1.00
C331   C     0.38288   0.29696   0.24562   0.00000  Uiso   1.00
C332   C     0.16941   0.28209   0.92376   0.00000  Uiso   1.00
C333   C     0.10624   0.31985   0.89969   0.00000  Uiso   1.00
C334   C     0.12686   0.35832   0.84349   0.00000  Uiso   1.00
C335   C     0.12818   0.42898   0.75388   0.00000  Uiso   1.00
C336   C     0.30958   0.23772   0.92752   0.00000  Uiso   1.00
C337   C     0.26593   0.17803   0.91990   0.00000  Uiso   1.00
C338   C     0.29978   0.12841   0.88651   0.00000  Uiso   1.00
C339   C     0.24980   0.07806   0.88517   0.00000  Uiso   1.00
C340   C     0.31045   0.25157   0.00892   0.00000  Uiso   1.00
C341   C     0.38173   0.26378   0.05036   0.00000  Uiso   1.00
C342   C     0.36923   0.27534   0.12395   0.00000  Uiso   1.00
C343   C     0.25031   0.28273   0.89280   0.00000  Uiso   1.00
C344   C     0.27103   0.32116   0.83663   0.00000  Uiso   1.00
C345   C     0.20791   0.35897   0.81248   0.00000  Uiso   1.00
H346   H     0.09766   0.23603   0.00862   0.00000  Uiso   1.00
H347   H     0.07239   0.12662   0.97354   0.00000  Uiso   1.00
H348   H     0.15433   0.26198   0.13735   0.00000  Uiso   1.00
H349   H     0.04365   0.31934   0.92366   0.00000  Uiso   1.00
H350   H     0.08007   0.00559   0.92101   0.00000  Uiso   1.00
H351   H     0.25283   0.29102   0.26643   0.00000  Uiso   1.00
H352   H     0.01944   0.41199   0.81582   0.00000  Uiso   1.00
H353   H     0.37257   0.23822   0.90342   0.00000  Uiso   1.00
H354   H     0.36239   0.12892   0.86256   0.00000  Uiso   1.00
H355   H     0.44432   0.26428   0.02638   0.00000  Uiso   1.00
H356   H     0.33364   0.32164   0.81269   0.00000  Uiso   1.00
H357   H     0.31544   0.00746   0.83094   0.00000  Uiso   1.00
H358   H     0.48820   0.29289   0.17636   0.00000  Uiso   1.00
H359   H     0.25481   0.41386   0.72575   0.00000  Uiso   1.00
O360   O     0.18611   0.93458   0.85102   0.00000  Uiso   1.00
O361   O     0.41276   0.30906   0.30419   0.00000  Uiso   1.00
O362   O     0.10655   0.46777   0.71300   0.00000  Uiso   1.00
N363   N     0.13685   0.02104   0.90541   0.00000  Uiso   1.00
N364   N     0.29838   0.28788   0.22836   0.00000  Uiso   1.00
N365   N     0.08018   0.40099   0.80709   0.00000  Uiso   1.00
N366   N     0.26351   0.02204   0.85694   0.00000  Uiso   1.00
N367   N     0.42503   0.28889   0.17989   0.00000  Uiso   1.00
N368   N     0.20683   0.40199   0.75862   0.00000  Uiso   1.00
