data_job_05950
_audit_creation_date              2018-12-19
_audit_creation_method            'Materials Studio'
_symmetry_space_group_name_H-M    'P1'
_symmetry_Int_Tables_number       1
_symmetry_cell_setting            triclinic
loop_
_symmetry_equiv_pos_as_xyz
  x,y,z
_cell_length_a                    16.0772
_cell_length_b                    15.4604
_cell_length_c                    15.1471
_cell_angle_alpha                 82.9546
_cell_angle_beta                  82.6604
_cell_angle_gamma                 82.9952
loop_
_atom_site_label
_atom_site_type_symbol
_atom_site_fract_x
_atom_site_fract_y
_atom_site_fract_z
_atom_site_U_iso_or_equiv
_atom_site_adp_type
_atom_site_occupancy
C1     C     0.49097   0.79872   0.85974   0.00000  Uiso   1.00
C2     C     0.42607   0.86254   0.90789   0.00000  Uiso   1.00
C3     C     0.42126   0.95330   0.89319   0.00000  Uiso   1.00
C4     C     0.35730   0.00008   0.94409   0.00000  Uiso   1.00
C5     C     0.26523   0.10565   0.00926   0.00000  Uiso   1.00
C6     C     0.53419   0.74014   0.93281   0.00000  Uiso   1.00
C7     C     0.62029   0.72798   0.93905   0.00000  Uiso   1.00
C8     C     0.64735   0.67170   0.01092   0.00000  Uiso   1.00
C9     C     0.72315   0.58719   0.11475   0.00000  Uiso   1.00
C10    C     0.44067   0.73980   0.81838   0.00000  Uiso   1.00
C11    C     0.44816   0.72733   0.72840   0.00000  Uiso   1.00
C12    C     0.39649   0.67075   0.70393   0.00000  Uiso   1.00
C13    C     0.32709   0.58572   0.63008   0.00000  Uiso   1.00
C14    C     0.38592   0.72039   0.97628   0.00000  Uiso   1.00
C15    C     0.36901   0.81999   0.97120   0.00000  Uiso   1.00
C16    C     0.30504   0.86664   0.02213   0.00000  Uiso   1.00
C17    C     0.30014   0.95746   0.00750   0.00000  Uiso   1.00
C18    C     0.47714   0.69759   0.99612   0.00000  Uiso   1.00
C19    C     0.50407   0.64132   0.06799   0.00000  Uiso   1.00
C20    C     0.59019   0.62908   0.07434   0.00000  Uiso   1.00
C21    C     0.38361   0.69725   0.88168   0.00000  Uiso   1.00
C22    C     0.33193   0.64068   0.85735   0.00000  Uiso   1.00
C23    C     0.33933   0.62813   0.76735   0.00000  Uiso   1.00
H24    H     0.53539   0.83184   0.81046   0.00000  Uiso   1.00
H25    H     0.46543   0.98620   0.84420   0.00000  Uiso   1.00
H26    H     0.66443   0.76090   0.89005   0.00000  Uiso   1.00
H27    H     0.49232   0.76026   0.67943   0.00000  Uiso   1.00
H28    H     0.36273   0.13858   0.90954   0.00000  Uiso   1.00
H29    H     0.78233   0.66351   0.00621   0.00000  Uiso   1.00
H30    H     0.41940   0.66215   0.56208   0.00000  Uiso   1.00
H31    H     0.34150   0.68726   0.02557   0.00000  Uiso   1.00
H32    H     0.26090   0.83370   0.07111   0.00000  Uiso   1.00
H33    H     0.45990   0.60840   0.11697   0.00000  Uiso   1.00
H34    H     0.28779   0.60776   0.90635   0.00000  Uiso   1.00
H35    H     0.19672   0.01481   0.09372   0.00000  Uiso   1.00
H36    H     0.61633   0.53973   0.19038   0.00000  Uiso   1.00
H37    H     0.25339   0.53838   0.74626   0.00000  Uiso   1.00
O38    O     0.23022   0.17563   0.02773   0.00000  Uiso   1.00
O39    O     0.78072   0.55234   0.15454   0.00000  Uiso   1.00
O40    O     0.30456   0.55057   0.57186   0.00000  Uiso   1.00
N41    N     0.33471   0.08936   0.94663   0.00000  Uiso   1.00
N42    N     0.72701   0.64520   0.03701   0.00000  Uiso   1.00
N43    N     0.38772   0.64392   0.62179   0.00000  Uiso   1.00
N44    N     0.24538   0.02276   0.04573   0.00000  Uiso   1.00
N45    N     0.63768   0.57860   0.13611   0.00000  Uiso   1.00
N46    N     0.29839   0.57731   0.72090   0.00000  Uiso   1.00
C47    C     0.86159   0.49143   0.80008   0.00000  Uiso   1.00
C48    C     0.90657   0.42394   0.86503   0.00000  Uiso   1.00
C49    C     0.89262   0.41882   0.95776   0.00000  Uiso   1.00
C50    C     0.94020   0.35234   0.00529   0.00000  Uiso   1.00
C51    C     0.00105   0.25658   0.11279   0.00000  Uiso   1.00
C52    C     0.93075   0.53647   0.73995   0.00000  Uiso   1.00
C53    C     0.93713   0.62596   0.72751   0.00000  Uiso   1.00
C54    C     0.00507   0.65420   0.66973   0.00000  Uiso   1.00
C55    C     0.10342   0.73314   0.58299   0.00000  Uiso   1.00
C56    C     0.82236   0.43921   0.74011   0.00000  Uiso   1.00
C57    C     0.73759   0.44694   0.72778   0.00000  Uiso   1.00
C58    C     0.71428   0.39330   0.67013   0.00000  Uiso   1.00
C59    C     0.64433   0.32124   0.58365   0.00000  Uiso   1.00
C60    C     0.97090   0.38245   0.71960   0.00000  Uiso   1.00
C61    C     0.96594   0.36475   0.82132   0.00000  Uiso   1.00
C62    C     0.01356   0.29825   0.86872   0.00000  Uiso   1.00
C63    C     0.99968   0.29303   0.96150   0.00000  Uiso   1.00
C64    C     0.99013   0.47728   0.69624   0.00000  Uiso   1.00
C65    C     0.05807   0.50539   0.63847   0.00000  Uiso   1.00
C66    C     0.06455   0.59490   0.62594   0.00000  Uiso   1.00
C67    C     0.88173   0.38001   0.69640   0.00000  Uiso   1.00
C68    C     0.85854   0.32636   0.63875   0.00000  Uiso   1.00
C69    C     0.77376   0.33401   0.62634   0.00000  Uiso   1.00
H70    H     0.81536   0.53752   0.83411   0.00000  Uiso   1.00
H71    H     0.84667   0.46465   0.99156   0.00000  Uiso   1.00
H72    H     0.89117   0.67175   0.76134   0.00000  Uiso   1.00
H73    H     0.69167   0.49275   0.76162   0.00000  Uiso   1.00
H74    H     0.90758   0.35778   0.14685   0.00000  Uiso   1.00
H75    H     0.00139   0.79447   0.66138   0.00000  Uiso   1.00
H76    H     0.58071   0.41702   0.66198   0.00000  Uiso   1.00
H77    H     0.01713   0.33636   0.68557   0.00000  Uiso   1.00
H78    H     0.05950   0.25245   0.83487   0.00000  Uiso   1.00
H79    H     0.10400   0.45956   0.60465   0.00000  Uiso   1.00
H80    H     0.90450   0.28056   0.60493   0.00000  Uiso   1.00
H81    H     0.08033   0.18555   0.01967   0.00000  Uiso   1.00
H82    H     0.17414   0.62225   0.53420   0.00000  Uiso   1.00
H83    H     0.75345   0.24479   0.53481   0.00000  Uiso   1.00
O84    O     0.01821   0.22011   0.18416   0.00000  Uiso   1.00
O85    O     0.14127   0.79304   0.54723   0.00000  Uiso   1.00
O86    O     0.58935   0.29783   0.54803   0.00000  Uiso   1.00
N87    N     0.94241   0.32875   0.09643   0.00000  Uiso   1.00
N88    N     0.03012   0.73703   0.64256   0.00000  Uiso   1.00
N89    N     0.63682   0.38416   0.64310   0.00000  Uiso   1.00
N90    N     0.03536   0.23608   0.02800   0.00000  Uiso   1.00
N91    N     0.12308   0.64436   0.57413   0.00000  Uiso   1.00
N92    N     0.72977   0.29149   0.57467   0.00000  Uiso   1.00
C93    C     0.79585   0.86054   0.49191   0.00000  Uiso   1.00
C94    C     0.85737   0.90741   0.42271   0.00000  Uiso   1.00
C95    C     0.94469   0.89298   0.41708   0.00000  Uiso   1.00
C96    C     0.98981   0.94255   0.34899   0.00000  Uiso   1.00
C97    C     0.09155   0.00596   0.25075   0.00000  Uiso   1.00
C98    C     0.73953   0.93231   0.53815   0.00000  Uiso   1.00
C99    C     0.72777   0.93882   0.62957   0.00000  Uiso   1.00
C100   C     0.67369   0.00934   0.65865   0.00000  Uiso   1.00
C101   C     0.59243   0.11139   0.73962   0.00000  Uiso   1.00
C102   C     0.73913   0.81979   0.43886   0.00000  Uiso   1.00
C103   C     0.72702   0.73169   0.44681   0.00000  Uiso   1.00
C104   C     0.67259   0.70749   0.39231   0.00000  Uiso   1.00
C105   C     0.59072   0.63483   0.31912   0.00000  Uiso   1.00
C106   C     0.72068   0.97421   0.38100   0.00000  Uiso   1.00
C107   C     0.81654   0.96915   0.36248   0.00000  Uiso   1.00
C108   C     0.86153   0.01875   0.29437   0.00000  Uiso   1.00
C109   C     0.94891   0.00440   0.28864   0.00000  Uiso   1.00
C110   C     0.69870   0.99406   0.47791   0.00000  Uiso   1.00
C111   C     0.64461   0.06458   0.50686   0.00000  Uiso   1.00
C112   C     0.63278   0.07120   0.59830   0.00000  Uiso   1.00
C113   C     0.69831   0.88153   0.37861   0.00000  Uiso   1.00
C114   C     0.64387   0.85746   0.32410   0.00000  Uiso   1.00
C115   C     0.63169   0.76934   0.33196   0.00000  Uiso   1.00
H116   H     0.82763   0.81247   0.53881   0.00000  Uiso   1.00
H117   H     0.97627   0.84520   0.46372   0.00000  Uiso   1.00
H118   H     0.75937   0.89102   0.67617   0.00000  Uiso   1.00
H119   H     0.75863   0.68393   0.49343   0.00000  Uiso   1.00
H120   H     0.12305   0.90874   0.35392   0.00000  Uiso   1.00
H121   H     0.66570   0.00534   0.80189   0.00000  Uiso   1.00
H122   H     0.66413   0.56865   0.41656   0.00000  Uiso   1.00
H123   H     0.68889   0.02228   0.33410   0.00000  Uiso   1.00
H124   H     0.82992   0.06653   0.24776   0.00000  Uiso   1.00
H125   H     0.61303   0.11235   0.46022   0.00000  Uiso   1.00
H126   H     0.61229   0.90526   0.27749   0.00000  Uiso   1.00
H127   H     0.00427   0.08838   0.17865   0.00000  Uiso   1.00
H128   H     0.54692   0.18498   0.62663   0.00000  Uiso   1.00
H129   H     0.54535   0.74829   0.24128   0.00000  Uiso   1.00
O130   O     0.15894   0.02390   0.21321   0.00000  Uiso   1.00
O131   O     0.55890   0.15063   0.80093   0.00000  Uiso   1.00
O132   O     0.55685   0.57770   0.29538   0.00000  Uiso   1.00
N133   N     0.07574   0.94493   0.32451   0.00000  Uiso   1.00
N134   N     0.64816   0.03526   0.74334   0.00000  Uiso   1.00
N135   N     0.64667   0.62699   0.38310   0.00000  Uiso   1.00
N136   N     0.01183   0.04159   0.23019   0.00000  Uiso   1.00
N137   N     0.58424   0.13192   0.64902   0.00000  Uiso   1.00
N138   N     0.58276   0.72365   0.28878   0.00000  Uiso   1.00
C139   C     0.50903   0.20128   0.14026   0.00000  Uiso   1.00
C140   C     0.57393   0.13746   0.09211   0.00000  Uiso   1.00
C141   C     0.57874   0.04670   0.10681   0.00000  Uiso   1.00
C142   C     0.64270   0.99992   0.05591   0.00000  Uiso   1.00
C143   C     0.73477   0.89435   0.99074   0.00000  Uiso   1.00
C144   C     0.46581   0.25986   0.06719   0.00000  Uiso   1.00
C145   C     0.37971   0.27202   0.06095   0.00000  Uiso   1.00
C146   C     0.35265   0.32830   0.98908   0.00000  Uiso   1.00
C147   C     0.27685   0.41281   0.88525   0.00000  Uiso   1.00
C148   C     0.55933   0.26020   0.18162   0.00000  Uiso   1.00
C149   C     0.55184   0.27267   0.27160   0.00000  Uiso   1.00
C150   C     0.60351   0.32925   0.29607   0.00000  Uiso   1.00
C151   C     0.67291   0.41428   0.36992   0.00000  Uiso   1.00
C152   C     0.61407   0.27961   0.02372   0.00000  Uiso   1.00
C153   C     0.63099   0.18001   0.02880   0.00000  Uiso   1.00
C154   C     0.69496   0.13336   0.97787   0.00000  Uiso   1.00
C155   C     0.69986   0.04254   0.99250   0.00000  Uiso   1.00
C156   C     0.52286   0.30241   0.00388   0.00000  Uiso   1.00
C157   C     0.49593   0.35868   0.93201   0.00000  Uiso   1.00
C158   C     0.40981   0.37092   0.92566   0.00000  Uiso   1.00
C159   C     0.61639   0.30275   0.11832   0.00000  Uiso   1.00
C160   C     0.66807   0.35932   0.14265   0.00000  Uiso   1.00
C161   C     0.66066   0.37187   0.23265   0.00000  Uiso   1.00
H162   H     0.46461   0.16816   0.18954   0.00000  Uiso   1.00
H163   H     0.53457   0.01380   0.15580   0.00000  Uiso   1.00
H164   H     0.33557   0.23910   0.10995   0.00000  Uiso   1.00
H165   H     0.50768   0.23974   0.32057   0.00000  Uiso   1.00
H166   H     0.63727   0.86142   0.09046   0.00000  Uiso   1.00
H167   H     0.21767   0.33649   0.99379   0.00000  Uiso   1.00
H168   H     0.58060   0.33785   0.43792   0.00000  Uiso   1.00
H169   H     0.65850   0.31274   0.97443   0.00000  Uiso   1.00
H170   H     0.73910   0.16630   0.92889   0.00000  Uiso   1.00
H171   H     0.54010   0.39160   0.88303   0.00000  Uiso   1.00
H172   H     0.71221   0.39224   0.09365   0.00000  Uiso   1.00
H173   H     0.80328   0.98519   0.90628   0.00000  Uiso   1.00
H174   H     0.38367   0.46027   0.80962   0.00000  Uiso   1.00
H175   H     0.74661   0.46162   0.25374   0.00000  Uiso   1.00
O176   O     0.76978   0.82436   0.97227   0.00000  Uiso   1.00
O177   O     0.21928   0.44766   0.84546   0.00000  Uiso   1.00
O178   O     0.69544   0.44943   0.42814   0.00000  Uiso   1.00
N179   N     0.66529   0.91064   0.05337   0.00000  Uiso   1.00
N180   N     0.27299   0.35480   0.96299   0.00000  Uiso   1.00
N181   N     0.61228   0.35608   0.37821   0.00000  Uiso   1.00
N182   N     0.75462   0.97724   0.95427   0.00000  Uiso   1.00
N183   N     0.36232   0.42140   0.86389   0.00000  Uiso   1.00
N184   N     0.70161   0.42269   0.27910   0.00000  Uiso   1.00
C185   C     0.13841   0.50857   0.19992   0.00000  Uiso   1.00
C186   C     0.09343   0.57606   0.13497   0.00000  Uiso   1.00
C187   C     0.10738   0.58118   0.04224   0.00000  Uiso   1.00
C188   C     0.05980   0.64766   0.99471   0.00000  Uiso   1.00
C189   C     0.99895   0.74342   0.88721   0.00000  Uiso   1.00
C190   C     0.06925   0.46353   0.26005   0.00000  Uiso   1.00
C191   C     0.06287   0.37404   0.27249   0.00000  Uiso   1.00
C192   C     0.99493   0.34580   0.33027   0.00000  Uiso   1.00
C193   C     0.89658   0.26686   0.41701   0.00000  Uiso   1.00
C194   C     0.17764   0.56079   0.25989   0.00000  Uiso   1.00
C195   C     0.26240   0.55306   0.27222   0.00000  Uiso   1.00
C196   C     0.28572   0.60670   0.32987   0.00000  Uiso   1.00
C197   C     0.35567   0.67876   0.41635   0.00000  Uiso   1.00
C198   C     0.02910   0.61755   0.28040   0.00000  Uiso   1.00
C199   C     0.03406   0.63525   0.17868   0.00000  Uiso   1.00
C200   C     0.98644   0.70175   0.13128   0.00000  Uiso   1.00
C201   C     0.00032   0.70697   0.03850   0.00000  Uiso   1.00
C202   C     0.00987   0.52272   0.30376   0.00000  Uiso   1.00
C203   C     0.94193   0.49461   0.36153   0.00000  Uiso   1.00
C204   C     0.93545   0.40510   0.37406   0.00000  Uiso   1.00
C205   C     0.11827   0.61999   0.30360   0.00000  Uiso   1.00
C206   C     0.14146   0.67364   0.36125   0.00000  Uiso   1.00
C207   C     0.22624   0.66599   0.37366   0.00000  Uiso   1.00
H208   H     0.18463   0.46248   0.16589   0.00000  Uiso   1.00
H209   H     0.15333   0.53535   0.00844   0.00000  Uiso   1.00
H210   H     0.10883   0.32825   0.23866   0.00000  Uiso   1.00
H211   H     0.30833   0.50725   0.23838   0.00000  Uiso   1.00
H212   H     0.09242   0.64222   0.85315   0.00000  Uiso   1.00
H213   H     0.99861   0.20553   0.33862   0.00000  Uiso   1.00
H214   H     0.41929   0.58298   0.33802   0.00000  Uiso   1.00
H215   H     0.98287   0.66363   0.31443   0.00000  Uiso   1.00
H216   H     0.94050   0.74755   0.16513   0.00000  Uiso   1.00
H217   H     0.89600   0.54044   0.39535   0.00000  Uiso   1.00
H218   H     0.09550   0.71944   0.39507   0.00000  Uiso   1.00
H219   H     0.91967   0.81445   0.98033   0.00000  Uiso   1.00
H220   H     0.82586   0.37775   0.46580   0.00000  Uiso   1.00
H221   H     0.24655   0.75521   0.46519   0.00000  Uiso   1.00
O222   O     0.98179   0.77988   0.81584   0.00000  Uiso   1.00
O223   O     0.85873   0.20696   0.45277   0.00000  Uiso   1.00
O224   O     0.41065   0.70217   0.45197   0.00000  Uiso   1.00
N225   N     0.05759   0.67125   0.90357   0.00000  Uiso   1.00
N226   N     0.96987   0.26297   0.35744   0.00000  Uiso   1.00
N227   N     0.36318   0.61584   0.35690   0.00000  Uiso   1.00
N228   N     0.96464   0.76392   0.97200   0.00000  Uiso   1.00
N229   N     0.87692   0.35564   0.42587   0.00000  Uiso   1.00
N230   N     0.27022   0.70851   0.42533   0.00000  Uiso   1.00
C231   C     0.20415   0.13946   0.50809   0.00000  Uiso   1.00
C232   C     0.14263   0.09259   0.57729   0.00000  Uiso   1.00
C233   C     0.05531   0.10702   0.58292   0.00000  Uiso   1.00
C234   C     0.01019   0.05745   0.65101   0.00000  Uiso   1.00
C235   C     0.90845   0.99403   0.74925   0.00000  Uiso   1.00
C236   C     0.26047   0.06769   0.46185   0.00000  Uiso   1.00
C237   C     0.27223   0.06118   0.37043   0.00000  Uiso   1.00
C238   C     0.32631   0.99066   0.34135   0.00000  Uiso   1.00
C239   C     0.40757   0.88861   0.26038   0.00000  Uiso   1.00
C240   C     0.26087   0.18021   0.56114   0.00000  Uiso   1.00
C241   C     0.27298   0.26831   0.55319   0.00000  Uiso   1.00
C242   C     0.32741   0.29251   0.60769   0.00000  Uiso   1.00
C243   C     0.40928   0.36517   0.68088   0.00000  Uiso   1.00
C244   C     0.27932   0.02579   0.61900   0.00000  Uiso   1.00
C245   C     0.18346   0.03085   0.63752   0.00000  Uiso   1.00
C246   C     0.13847   0.98125   0.70563   0.00000  Uiso   1.00
C247   C     0.05109   0.99560   0.71136   0.00000  Uiso   1.00
C248   C     0.30130   0.00594   0.52209   0.00000  Uiso   1.00
C249   C     0.35539   0.93542   0.49314   0.00000  Uiso   1.00
C250   C     0.36722   0.92880   0.40170   0.00000  Uiso   1.00
C251   C     0.30169   0.11847   0.62139   0.00000  Uiso   1.00
C252   C     0.35613   0.14254   0.67591   0.00000  Uiso   1.00
C253   C     0.36831   0.23066   0.66804   0.00000  Uiso   1.00
H254   H     0.17237   0.18753   0.46119   0.00000  Uiso   1.00
H255   H     0.02373   0.15480   0.53628   0.00000  Uiso   1.00
H256   H     0.24063   0.10898   0.32383   0.00000  Uiso   1.00
H257   H     0.24137   0.31607   0.50657   0.00000  Uiso   1.00
H258   H     0.87695   0.09126   0.64608   0.00000  Uiso   1.00
H259   H     0.33430   0.99466   0.19811   0.00000  Uiso   1.00
H260   H     0.33587   0.43135   0.58344   0.00000  Uiso   1.00
H261   H     0.31111   0.97772   0.66590   0.00000  Uiso   1.00
H262   H     0.17008   0.93347   0.75224   0.00000  Uiso   1.00
H263   H     0.38697   0.88765   0.53978   0.00000  Uiso   1.00
H264   H     0.38771   0.09474   0.72251   0.00000  Uiso   1.00
H265   H     0.99572   0.91162   0.82135   0.00000  Uiso   1.00
H266   H     0.45308   0.81502   0.37337   0.00000  Uiso   1.00
H267   H     0.45465   0.25171   0.75872   0.00000  Uiso   1.00
O268   O     0.84106   0.97610   0.78679   0.00000  Uiso   1.00
O269   O     0.44110   0.84937   0.19907   0.00000  Uiso   1.00
O270   O     0.44315   0.42230   0.70462   0.00000  Uiso   1.00
N271   N     0.92425   0.05507   0.67549   0.00000  Uiso   1.00
N272   N     0.35184   0.96474   0.25666   0.00000  Uiso   1.00
N273   N     0.35333   0.37301   0.61690   0.00000  Uiso   1.00
N274   N     0.98817   0.95841   0.76981   0.00000  Uiso   1.00
N275   N     0.41576   0.86808   0.35098   0.00000  Uiso   1.00
N276   N     0.41724   0.27635   0.71122   0.00000  Uiso   1.00
