data_job_05406
_audit_creation_date              2018-12-19
_audit_creation_method            'Materials Studio'
_symmetry_space_group_name_H-M    'P1'
_symmetry_Int_Tables_number       1
_symmetry_cell_setting            triclinic
loop_
_symmetry_equiv_pos_as_xyz
  x,y,z
_cell_length_a                    12.2494
_cell_length_b                    12.2494
_cell_length_c                    34.0402
_cell_angle_alpha                 90.0000
_cell_angle_beta                  90.0000
_cell_angle_gamma                 120.0000
loop_
_atom_site_label
_atom_site_type_symbol
_atom_site_fract_x
_atom_site_fract_y
_atom_site_fract_z
_atom_site_U_iso_or_equiv
_atom_site_adp_type
_atom_site_occupancy
C1     C     0.20817   0.77495   0.30948   0.00000  Uiso   1.00
C2     C     0.17707   0.88013   0.30443   0.00000  Uiso   1.00
C3     C     0.07273   0.86973   0.28497   0.00000  Uiso   1.00
C4     C     0.06122   0.97681   0.28356   0.00000  Uiso   1.00
C5     C     0.99932   0.12291   0.27304   0.00000  Uiso   1.00
C6     C     0.33987   0.82527   0.29242   0.00000  Uiso   1.00
C7     C     0.37240   0.76874   0.26287   0.00000  Uiso   1.00
C8     C     0.49794   0.82963   0.25135   0.00000  Uiso   1.00
C9     C     0.68880   0.89051   0.22221   0.00000  Uiso   1.00
C10    C     0.22073   0.76244   0.35359   0.00000  Uiso   1.00
C11    C     0.15311   0.65308   0.37548   0.00000  Uiso   1.00
C12    C     0.17837   0.66107   0.41546   0.00000  Uiso   1.00
C13    C     0.18425   0.62440   0.48130   0.00000  Uiso   1.00
C14    C     0.37328   0.98360   0.34158   0.00000  Uiso   1.00
C15    C     0.26676   0.99346   0.32186   0.00000  Uiso   1.00
C16    C     0.25540   0.10058   0.32048   0.00000  Uiso   1.00
C17    C     0.15106   0.09035   0.30103   0.00000  Uiso   1.00
C18    C     0.42955   0.93860   0.30985   0.00000  Uiso   1.00
C19    C     0.55507   0.99959   0.29838   0.00000  Uiso   1.00
C20    C     0.58779   0.94317   0.26882   0.00000  Uiso   1.00
C21    C     0.31041   0.87578   0.37103   0.00000  Uiso   1.00
C22    C     0.33578   0.88394   0.41099   0.00000  Uiso   1.00
C23    C     0.26821   0.77461   0.43293   0.00000  Uiso   1.00
H24    H     0.13836   0.68672   0.29591   0.00000  Uiso   1.00
H25    H     0.00335   0.78201   0.27148   0.00000  Uiso   1.00
H26    H     0.30298   0.68103   0.24938   0.00000  Uiso   1.00
H27    H     0.08372   0.56540   0.36197   0.00000  Uiso   1.00
H28    H     0.89325   0.93766   0.25207   0.00000  Uiso   1.00
H29    H     0.52504   0.72471   0.20549   0.00000  Uiso   1.00
H30    H     0.06269   0.48086   0.44291   0.00000  Uiso   1.00
H31    H     0.44311   0.07184   0.35515   0.00000  Uiso   1.00
H32    H     0.32482   0.18827   0.33398   0.00000  Uiso   1.00
H33    H     0.62445   0.08729   0.31188   0.00000  Uiso   1.00
H34    H     0.40519   0.97165   0.42447   0.00000  Uiso   1.00
H35    H     0.15417   0.26740   0.30279   0.00000  Uiso   1.00
H36    H     0.78596   0.05444   0.25622   0.00000  Uiso   1.00
H37    H     0.32361   0.81060   0.49363   0.00000  Uiso   1.00
O38    O     0.94042   0.17219   0.26242   0.00000  Uiso   1.00
O39    O     0.76930   0.89278   0.20132   0.00000  Uiso   1.00
O40    O     0.16270   0.57287   0.51280   0.00000  Uiso   1.00
N41    N     0.97088   0.99928   0.26692   0.00000  Uiso   1.00
N42    N     0.56156   0.80019   0.22337   0.00000  Uiso   1.00
N43    N     0.12932   0.57221   0.44533   0.00000  Uiso   1.00
N44    N     0.11127   0.17671   0.29422   0.00000  Uiso   1.00
N45    N     0.70195   0.97762   0.25066   0.00000  Uiso   1.00
N46    N     0.26972   0.74964   0.47263   0.00000  Uiso   1.00
C47    C     0.22505   0.43322   0.97615   0.00000  Uiso   1.00
C48    C     0.11987   0.29695   0.97109   0.00000  Uiso   1.00
C49    C     0.13027   0.20300   0.95164   0.00000  Uiso   1.00
C50    C     0.02319   0.08441   0.95023   0.00000  Uiso   1.00
C51    C     0.87709   0.87642   0.93971   0.00000  Uiso   1.00
C52    C     0.17473   0.51460   0.95909   0.00000  Uiso   1.00
C53    C     0.23126   0.60366   0.92953   0.00000  Uiso   1.00
C54    C     0.17037   0.66831   0.91802   0.00000  Uiso   1.00
C55    C     0.10949   0.79829   0.88888   0.00000  Uiso   1.00
C56    C     0.23756   0.45829   0.02026   0.00000  Uiso   1.00
C57    C     0.34692   0.50003   0.04214   0.00000  Uiso   1.00
C58    C     0.33893   0.51729   0.08213   0.00000  Uiso   1.00
C59    C     0.37560   0.55985   0.14797   0.00000  Uiso   1.00
C60    C     0.01640   0.38968   0.00825   0.00000  Uiso   1.00
C61    C     0.00654   0.27330   0.98853   0.00000  Uiso   1.00
C62    C     0.89942   0.15482   0.98715   0.00000  Uiso   1.00
C63    C     0.90965   0.06071   0.96769   0.00000  Uiso   1.00
C64    C     0.06140   0.49095   0.97652   0.00000  Uiso   1.00
C65    C     0.00041   0.55549   0.96505   0.00000  Uiso   1.00
C66    C     0.05683   0.64462   0.93548   0.00000  Uiso   1.00
C67    C     0.12422   0.43464   0.03769   0.00000  Uiso   1.00
C68    C     0.11606   0.45185   0.07766   0.00000  Uiso   1.00
C69    C     0.22539   0.49360   0.09960   0.00000  Uiso   1.00
H70    H     0.31328   0.45164   0.96257   0.00000  Uiso   1.00
H71    H     0.21799   0.22134   0.93814   0.00000  Uiso   1.00
H72    H     0.31897   0.62195   0.91605   0.00000  Uiso   1.00
H73    H     0.43460   0.51833   0.02864   0.00000  Uiso   1.00
H74    H     0.06234   0.95559   0.91874   0.00000  Uiso   1.00
H75    H     0.27529   0.80033   0.87216   0.00000  Uiso   1.00
H76    H     0.51914   0.58183   0.10958   0.00000  Uiso   1.00
H77    H     0.92816   0.37127   0.02182   0.00000  Uiso   1.00
H78    H     0.81173   0.13655   0.00064   0.00000  Uiso   1.00
H79    H     0.91271   0.53716   0.97855   0.00000  Uiso   1.00
H80    H     0.02835   0.43354   0.09114   0.00000  Uiso   1.00
H81    H     0.73260   0.88677   0.96946   0.00000  Uiso   1.00
H82    H     0.94556   0.73152   0.92288   0.00000  Uiso   1.00
H83    H     0.18940   0.51301   0.16030   0.00000  Uiso   1.00
O84    O     0.82781   0.76823   0.92909   0.00000  Uiso   1.00
O85    O     0.10722   0.87652   0.86798   0.00000  Uiso   1.00
O86    O     0.42713   0.58984   0.17947   0.00000  Uiso   1.00
N87    N     0.00072   0.97160   0.93359   0.00000  Uiso   1.00
N88    N     0.19981   0.76137   0.89004   0.00000  Uiso   1.00
N89    N     0.42779   0.55712   0.11200   0.00000  Uiso   1.00
N90    N     0.82329   0.93456   0.96088   0.00000  Uiso   1.00
N91    N     0.02238   0.72434   0.91733   0.00000  Uiso   1.00
N92    N     0.25036   0.52008   0.13929   0.00000  Uiso   1.00
C93    C     0.56678   0.79183   0.64282   0.00000  Uiso   1.00
C94    C     0.70305   0.82293   0.63776   0.00000  Uiso   1.00
C95    C     0.79700   0.92727   0.61830   0.00000  Uiso   1.00
C96    C     0.91559   0.93878   0.61689   0.00000  Uiso   1.00
C97    C     0.12358   0.00068   0.60638   0.00000  Uiso   1.00
C98    C     0.48540   0.66013   0.62575   0.00000  Uiso   1.00
C99    C     0.39634   0.62760   0.59620   0.00000  Uiso   1.00
C100   C     0.33169   0.50206   0.58469   0.00000  Uiso   1.00
C101   C     0.20171   0.31120   0.55555   0.00000  Uiso   1.00
C102   C     0.54171   0.77927   0.68693   0.00000  Uiso   1.00
C103   C     0.49997   0.84689   0.70881   0.00000  Uiso   1.00
C104   C     0.48271   0.82163   0.74880   0.00000  Uiso   1.00
C105   C     0.44015   0.81575   0.81464   0.00000  Uiso   1.00
C106   C     0.61032   0.62672   0.67491   0.00000  Uiso   1.00
C107   C     0.72670   0.73324   0.65520   0.00000  Uiso   1.00
C108   C     0.84518   0.74460   0.65382   0.00000  Uiso   1.00
C109   C     0.93929   0.84894   0.63436   0.00000  Uiso   1.00
C110   C     0.50905   0.57045   0.64319   0.00000  Uiso   1.00
C111   C     0.44451   0.44493   0.63171   0.00000  Uiso   1.00
C112   C     0.35538   0.41221   0.60215   0.00000  Uiso   1.00
C113   C     0.56536   0.68959   0.70436   0.00000  Uiso   1.00
C114   C     0.54815   0.66422   0.74432   0.00000  Uiso   1.00
C115   C     0.50640   0.73179   0.76626   0.00000  Uiso   1.00
H116   H     0.54836   0.86164   0.62924   0.00000  Uiso   1.00
H117   H     0.77866   0.99665   0.60481   0.00000  Uiso   1.00
H118   H     0.37805   0.69702   0.58272   0.00000  Uiso   1.00
H119   H     0.48167   0.91628   0.69531   0.00000  Uiso   1.00
H120   H     0.04441   0.10675   0.58540   0.00000  Uiso   1.00
H121   H     0.19967   0.47496   0.53883   0.00000  Uiso   1.00
H122   H     0.41817   0.93731   0.77624   0.00000  Uiso   1.00
H123   H     0.62873   0.55689   0.68849   0.00000  Uiso   1.00
H124   H     0.86345   0.67518   0.66731   0.00000  Uiso   1.00
H125   H     0.46284   0.37555   0.64521   0.00000  Uiso   1.00
H126   H     0.56646   0.59481   0.75780   0.00000  Uiso   1.00
H127   H     0.11323   0.84583   0.63613   0.00000  Uiso   1.00
H128   H     0.26848   0.21404   0.58955   0.00000  Uiso   1.00
H129   H     0.48699   0.67639   0.82697   0.00000  Uiso   1.00
O130   O     0.23177   0.05958   0.59575   0.00000  Uiso   1.00
O131   O     0.12348   0.23070   0.53465   0.00000  Uiso   1.00
O132   O     0.41016   0.83730   0.84614   0.00000  Uiso   1.00
N133   N     0.02840   0.02912   0.60025   0.00000  Uiso   1.00
N134   N     0.23863   0.43844   0.55670   0.00000  Uiso   1.00
N135   N     0.44288   0.87068   0.77867   0.00000  Uiso   1.00
N136   N     0.06544   0.88873   0.62755   0.00000  Uiso   1.00
N137   N     0.27566   0.29805   0.58400   0.00000  Uiso   1.00
N138   N     0.47992   0.73028   0.80596   0.00000  Uiso   1.00
C139   C     0.77495   0.20817   0.69052   0.00000  Uiso   1.00
C140   C     0.88013   0.17707   0.69557   0.00000  Uiso   1.00
C141   C     0.86973   0.07273   0.71503   0.00000  Uiso   1.00
C142   C     0.97681   0.06122   0.71644   0.00000  Uiso   1.00
C143   C     0.12291   0.99932   0.72696   0.00000  Uiso   1.00
C144   C     0.82527   0.33987   0.70758   0.00000  Uiso   1.00
C145   C     0.76874   0.37240   0.73713   0.00000  Uiso   1.00
C146   C     0.82963   0.49794   0.74865   0.00000  Uiso   1.00
C147   C     0.89051   0.68880   0.77779   0.00000  Uiso   1.00
C148   C     0.76244   0.22073   0.64641   0.00000  Uiso   1.00
C149   C     0.65308   0.15311   0.62452   0.00000  Uiso   1.00
C150   C     0.66107   0.17837   0.58454   0.00000  Uiso   1.00
C151   C     0.62440   0.18425   0.51870   0.00000  Uiso   1.00
C152   C     0.98360   0.37328   0.65842   0.00000  Uiso   1.00
C153   C     0.99346   0.26676   0.67814   0.00000  Uiso   1.00
C154   C     0.10058   0.25540   0.67952   0.00000  Uiso   1.00
C155   C     0.09035   0.15106   0.69897   0.00000  Uiso   1.00
C156   C     0.93860   0.42955   0.69015   0.00000  Uiso   1.00
C157   C     0.99959   0.55507   0.70162   0.00000  Uiso   1.00
C158   C     0.94317   0.58779   0.73118   0.00000  Uiso   1.00
C159   C     0.87578   0.31041   0.62897   0.00000  Uiso   1.00
C160   C     0.88394   0.33578   0.58901   0.00000  Uiso   1.00
C161   C     0.77461   0.26821   0.56707   0.00000  Uiso   1.00
H162   H     0.68672   0.13836   0.70409   0.00000  Uiso   1.00
H163   H     0.78201   0.00335   0.72852   0.00000  Uiso   1.00
H164   H     0.68103   0.30298   0.75062   0.00000  Uiso   1.00
H165   H     0.56540   0.08372   0.63803   0.00000  Uiso   1.00
H166   H     0.93766   0.89325   0.74793   0.00000  Uiso   1.00
H167   H     0.72471   0.52504   0.79451   0.00000  Uiso   1.00
H168   H     0.48086   0.06269   0.55709   0.00000  Uiso   1.00
H169   H     0.07184   0.44311   0.64485   0.00000  Uiso   1.00
H170   H     0.18827   0.32482   0.66602   0.00000  Uiso   1.00
H171   H     0.08729   0.62445   0.68812   0.00000  Uiso   1.00
H172   H     0.97165   0.40519   0.57553   0.00000  Uiso   1.00
H173   H     0.26740   0.15417   0.69721   0.00000  Uiso   1.00
H174   H     0.05444   0.78596   0.74378   0.00000  Uiso   1.00
H175   H     0.81060   0.32361   0.50637   0.00000  Uiso   1.00
O176   O     0.17219   0.94042   0.73758   0.00000  Uiso   1.00
O177   O     0.89278   0.76930   0.79868   0.00000  Uiso   1.00
O178   O     0.57287   0.16270   0.48720   0.00000  Uiso   1.00
N179   N     0.99928   0.97088   0.73308   0.00000  Uiso   1.00
N180   N     0.80019   0.56156   0.77663   0.00000  Uiso   1.00
N181   N     0.57221   0.12932   0.55467   0.00000  Uiso   1.00
N182   N     0.17671   0.11127   0.70578   0.00000  Uiso   1.00
N183   N     0.97762   0.70195   0.74934   0.00000  Uiso   1.00
N184   N     0.74964   0.26972   0.52737   0.00000  Uiso   1.00
C185   C     0.43322   0.22505   0.02385   0.00000  Uiso   1.00
C186   C     0.29695   0.11987   0.02891   0.00000  Uiso   1.00
C187   C     0.20300   0.13027   0.04836   0.00000  Uiso   1.00
C188   C     0.08441   0.02319   0.04977   0.00000  Uiso   1.00
C189   C     0.87642   0.87709   0.06029   0.00000  Uiso   1.00
C190   C     0.51460   0.17473   0.04091   0.00000  Uiso   1.00
C191   C     0.60366   0.23126   0.07047   0.00000  Uiso   1.00
C192   C     0.66831   0.17037   0.08198   0.00000  Uiso   1.00
C193   C     0.79829   0.10949   0.11112   0.00000  Uiso   1.00
C194   C     0.45829   0.23756   0.97974   0.00000  Uiso   1.00
C195   C     0.50003   0.34692   0.95786   0.00000  Uiso   1.00
C196   C     0.51729   0.33893   0.91787   0.00000  Uiso   1.00
C197   C     0.55985   0.37560   0.85203   0.00000  Uiso   1.00
C198   C     0.38968   0.01640   0.99175   0.00000  Uiso   1.00
C199   C     0.27330   0.00654   0.01147   0.00000  Uiso   1.00
C200   C     0.15482   0.89942   0.01285   0.00000  Uiso   1.00
C201   C     0.06071   0.90965   0.03231   0.00000  Uiso   1.00
C202   C     0.49095   0.06140   0.02348   0.00000  Uiso   1.00
C203   C     0.55549   0.00041   0.03495   0.00000  Uiso   1.00
C204   C     0.64462   0.05683   0.06452   0.00000  Uiso   1.00
C205   C     0.43464   0.12422   0.96231   0.00000  Uiso   1.00
C206   C     0.45185   0.11606   0.92234   0.00000  Uiso   1.00
C207   C     0.49360   0.22539   0.90040   0.00000  Uiso   1.00
H208   H     0.45164   0.31328   0.03743   0.00000  Uiso   1.00
H209   H     0.22134   0.21799   0.06186   0.00000  Uiso   1.00
H210   H     0.62195   0.31897   0.08395   0.00000  Uiso   1.00
H211   H     0.51833   0.43460   0.97136   0.00000  Uiso   1.00
H212   H     0.95559   0.06234   0.08126   0.00000  Uiso   1.00
H213   H     0.80033   0.27529   0.12784   0.00000  Uiso   1.00
H214   H     0.58183   0.51914   0.89042   0.00000  Uiso   1.00
H215   H     0.37127   0.92816   0.97818   0.00000  Uiso   1.00
H216   H     0.13655   0.81173   0.99936   0.00000  Uiso   1.00
H217   H     0.53716   0.91271   0.02145   0.00000  Uiso   1.00
H218   H     0.43354   0.02835   0.90886   0.00000  Uiso   1.00
H219   H     0.88677   0.73260   0.03054   0.00000  Uiso   1.00
H220   H     0.73152   0.94556   0.07712   0.00000  Uiso   1.00
H221   H     0.51301   0.18940   0.83970   0.00000  Uiso   1.00
O222   O     0.76823   0.82781   0.07091   0.00000  Uiso   1.00
O223   O     0.87652   0.10722   0.13202   0.00000  Uiso   1.00
O224   O     0.58984   0.42713   0.82053   0.00000  Uiso   1.00
N225   N     0.97160   0.00072   0.06641   0.00000  Uiso   1.00
N226   N     0.76137   0.19981   0.10996   0.00000  Uiso   1.00
N227   N     0.55712   0.42779   0.88800   0.00000  Uiso   1.00
N228   N     0.93456   0.82329   0.03912   0.00000  Uiso   1.00
N229   N     0.72434   0.02238   0.08267   0.00000  Uiso   1.00
N230   N     0.52008   0.25036   0.86071   0.00000  Uiso   1.00
C231   C     0.79183   0.56678   0.35718   0.00000  Uiso   1.00
C232   C     0.82293   0.70305   0.36224   0.00000  Uiso   1.00
C233   C     0.92727   0.79700   0.38170   0.00000  Uiso   1.00
C234   C     0.93878   0.91559   0.38311   0.00000  Uiso   1.00
C235   C     0.00068   0.12358   0.39362   0.00000  Uiso   1.00
C236   C     0.66013   0.48540   0.37425   0.00000  Uiso   1.00
C237   C     0.62760   0.39634   0.40380   0.00000  Uiso   1.00
C238   C     0.50206   0.33169   0.41531   0.00000  Uiso   1.00
C239   C     0.31120   0.20171   0.44445   0.00000  Uiso   1.00
C240   C     0.77927   0.54171   0.31307   0.00000  Uiso   1.00
C241   C     0.84689   0.49997   0.29119   0.00000  Uiso   1.00
C242   C     0.82163   0.48271   0.25120   0.00000  Uiso   1.00
C243   C     0.81575   0.44015   0.18536   0.00000  Uiso   1.00
C244   C     0.62672   0.61032   0.32509   0.00000  Uiso   1.00
C245   C     0.73324   0.72670   0.34480   0.00000  Uiso   1.00
C246   C     0.74460   0.84518   0.34618   0.00000  Uiso   1.00
C247   C     0.84894   0.93929   0.36564   0.00000  Uiso   1.00
C248   C     0.57045   0.50905   0.35681   0.00000  Uiso   1.00
C249   C     0.44493   0.44451   0.36829   0.00000  Uiso   1.00
C250   C     0.41221   0.35538   0.39785   0.00000  Uiso   1.00
C251   C     0.68959   0.56536   0.29564   0.00000  Uiso   1.00
C252   C     0.66422   0.54815   0.25568   0.00000  Uiso   1.00
C253   C     0.73179   0.50640   0.23374   0.00000  Uiso   1.00
H254   H     0.86164   0.54836   0.37076   0.00000  Uiso   1.00
H255   H     0.99665   0.77866   0.39519   0.00000  Uiso   1.00
H256   H     0.69702   0.37805   0.41728   0.00000  Uiso   1.00
H257   H     0.91628   0.48167   0.30469   0.00000  Uiso   1.00
H258   H     0.10675   0.04441   0.41460   0.00000  Uiso   1.00
H259   H     0.47496   0.19967   0.46117   0.00000  Uiso   1.00
H260   H     0.93731   0.41817   0.22376   0.00000  Uiso   1.00
H261   H     0.55689   0.62873   0.31151   0.00000  Uiso   1.00
H262   H     0.67518   0.86345   0.33269   0.00000  Uiso   1.00
H263   H     0.37555   0.46284   0.35479   0.00000  Uiso   1.00
H264   H     0.59481   0.56646   0.24220   0.00000  Uiso   1.00
H265   H     0.84583   0.11323   0.36387   0.00000  Uiso   1.00
H266   H     0.21404   0.26848   0.41045   0.00000  Uiso   1.00
H267   H     0.67639   0.48699   0.17303   0.00000  Uiso   1.00
O268   O     0.05958   0.23177   0.40425   0.00000  Uiso   1.00
O269   O     0.23070   0.12348   0.46535   0.00000  Uiso   1.00
O270   O     0.83730   0.41016   0.15386   0.00000  Uiso   1.00
N271   N     0.02912   0.02840   0.39975   0.00000  Uiso   1.00
N272   N     0.43844   0.23863   0.44330   0.00000  Uiso   1.00
N273   N     0.87068   0.44288   0.22133   0.00000  Uiso   1.00
N274   N     0.88873   0.06544   0.37245   0.00000  Uiso   1.00
N275   N     0.29805   0.27566   0.41600   0.00000  Uiso   1.00
N276   N     0.73028   0.47992   0.19404   0.00000  Uiso   1.00
