data_job_03929
_audit_creation_date              2018-12-19
_audit_creation_method            'Materials Studio'
_symmetry_space_group_name_H-M    'P1'
_symmetry_Int_Tables_number       1
_symmetry_cell_setting            triclinic
loop_
_symmetry_equiv_pos_as_xyz
  x,y,z
_cell_length_a                    12.7979
_cell_length_b                    23.2596
_cell_length_c                    25.8729
_cell_angle_alpha                 90.0000
_cell_angle_beta                  90.0000
_cell_angle_gamma                 90.0000
loop_
_atom_site_label
_atom_site_type_symbol
_atom_site_fract_x
_atom_site_fract_y
_atom_site_fract_z
_atom_site_U_iso_or_equiv
_atom_site_adp_type
_atom_site_occupancy
C1     C     0.40055   0.64773   0.90931   0.00000  Uiso   1.00
C2     C     0.32540   0.64701   0.95505   0.00000  Uiso   1.00
C3     C     0.35376   0.64594   0.00681   0.00000  Uiso   1.00
C4     C     0.27333   0.64540   0.04281   0.00000  Uiso   1.00
C5     C     0.17261   0.64417   0.11615   0.00000  Uiso   1.00
C6     C     0.37153   0.59606   0.87600   0.00000  Uiso   1.00
C7     C     0.43869   0.55215   0.86130   0.00000  Uiso   1.00
C8     C     0.39709   0.50873   0.83076   0.00000  Uiso   1.00
C9     C     0.36801   0.42842   0.78135   0.00000  Uiso   1.00
C10    C     0.37227   0.70078   0.87763   0.00000  Uiso   1.00
C11    C     0.44005   0.74493   0.86429   0.00000  Uiso   1.00
C12    C     0.39908   0.78967   0.83511   0.00000  Uiso   1.00
C13    C     0.37115   0.87195   0.78822   0.00000  Uiso   1.00
C14    C     0.20727   0.64868   0.88121   0.00000  Uiso   1.00
C15    C     0.22042   0.64752   0.93978   0.00000  Uiso   1.00
C16    C     0.13992   0.64699   0.97572   0.00000  Uiso   1.00
C17    C     0.16816   0.64592   0.02753   0.00000  Uiso   1.00
C18    C     0.26655   0.59657   0.86074   0.00000  Uiso   1.00
C19    C     0.22485   0.55321   0.83021   0.00000  Uiso   1.00
C20    C     0.29192   0.50925   0.81547   0.00000  Uiso   1.00
C21    C     0.26729   0.70130   0.86237   0.00000  Uiso   1.00
C22    C     0.22620   0.74598   0.83320   0.00000  Uiso   1.00
C23    C     0.29391   0.79018   0.81982   0.00000  Uiso   1.00
H24    H     0.48228   0.64733   0.92119   0.00000  Uiso   1.00
H25    H     0.43502   0.64554   0.01860   0.00000  Uiso   1.00
H26    H     0.51993   0.55177   0.87311   0.00000  Uiso   1.00
H27    H     0.52129   0.74451   0.87610   0.00000  Uiso   1.00
H28    H     0.33632   0.64375   0.11987   0.00000  Uiso   1.00
H29    H     0.51537   0.44605   0.81308   0.00000  Uiso   1.00
H30    H     0.51824   0.85249   0.81938   0.00000  Uiso   1.00
H31    H     0.12553   0.64909   0.86933   0.00000  Uiso   1.00
H32    H     0.05869   0.64739   0.96390   0.00000  Uiso   1.00
H33    H     0.14360   0.55362   0.81841   0.00000  Uiso   1.00
H34    H     0.14496   0.74636   0.82140   0.00000  Uiso   1.00
H35    H     0.03087   0.64526   0.07547   0.00000  Uiso   1.00
H36    H     0.20993   0.44756   0.76868   0.00000  Uiso   1.00
H37    H     0.21279   0.85399   0.77498   0.00000  Uiso   1.00
O38    O     0.14606   0.64334   0.16081   0.00000  Uiso   1.00
O39    O     0.38097   0.38397   0.75831   0.00000  Uiso   1.00
O40    O     0.38473   0.91720   0.76659   0.00000  Uiso   1.00
N41    N     0.27360   0.64435   0.09644   0.00000  Uiso   1.00
N42    N     0.44100   0.45951   0.80962   0.00000  Uiso   1.00
N43    N     0.44369   0.83948   0.81550   0.00000  Uiso   1.00
N44    N     0.10925   0.64516   0.07255   0.00000  Uiso   1.00
N45    N     0.27665   0.46032   0.78573   0.00000  Uiso   1.00
N46    N     0.27933   0.84029   0.79161   0.00000  Uiso   1.00
C47    C     0.90055   0.14773   0.90931   0.00000  Uiso   1.00
C48    C     0.82540   0.14701   0.95505   0.00000  Uiso   1.00
C49    C     0.85376   0.14594   0.00681   0.00000  Uiso   1.00
C50    C     0.77333   0.14540   0.04281   0.00000  Uiso   1.00
C51    C     0.67261   0.14417   0.11615   0.00000  Uiso   1.00
C52    C     0.87153   0.09606   0.87600   0.00000  Uiso   1.00
C53    C     0.93869   0.05215   0.86130   0.00000  Uiso   1.00
C54    C     0.89709   0.00873   0.83076   0.00000  Uiso   1.00
C55    C     0.86801   0.92842   0.78135   0.00000  Uiso   1.00
C56    C     0.87227   0.20078   0.87763   0.00000  Uiso   1.00
C57    C     0.94005   0.24493   0.86429   0.00000  Uiso   1.00
C58    C     0.89908   0.28967   0.83511   0.00000  Uiso   1.00
C59    C     0.87115   0.37195   0.78822   0.00000  Uiso   1.00
C60    C     0.70727   0.14868   0.88121   0.00000  Uiso   1.00
C61    C     0.72042   0.14752   0.93978   0.00000  Uiso   1.00
C62    C     0.63992   0.14699   0.97572   0.00000  Uiso   1.00
C63    C     0.66816   0.14592   0.02753   0.00000  Uiso   1.00
C64    C     0.76655   0.09657   0.86074   0.00000  Uiso   1.00
C65    C     0.72485   0.05321   0.83021   0.00000  Uiso   1.00
C66    C     0.79192   0.00925   0.81547   0.00000  Uiso   1.00
C67    C     0.76729   0.20130   0.86237   0.00000  Uiso   1.00
C68    C     0.72620   0.24598   0.83320   0.00000  Uiso   1.00
C69    C     0.79391   0.29018   0.81982   0.00000  Uiso   1.00
H70    H     0.98228   0.14733   0.92119   0.00000  Uiso   1.00
H71    H     0.93502   0.14554   0.01860   0.00000  Uiso   1.00
H72    H     0.01993   0.05177   0.87311   0.00000  Uiso   1.00
H73    H     0.02129   0.24451   0.87610   0.00000  Uiso   1.00
H74    H     0.83632   0.14375   0.11987   0.00000  Uiso   1.00
H75    H     0.01537   0.94605   0.81308   0.00000  Uiso   1.00
H76    H     0.01824   0.35249   0.81938   0.00000  Uiso   1.00
H77    H     0.62553   0.14909   0.86933   0.00000  Uiso   1.00
H78    H     0.55869   0.14739   0.96390   0.00000  Uiso   1.00
H79    H     0.64360   0.05362   0.81841   0.00000  Uiso   1.00
H80    H     0.64496   0.24636   0.82140   0.00000  Uiso   1.00
H81    H     0.53087   0.14526   0.07547   0.00000  Uiso   1.00
H82    H     0.70993   0.94756   0.76868   0.00000  Uiso   1.00
H83    H     0.71279   0.35399   0.77498   0.00000  Uiso   1.00
O84    O     0.64606   0.14334   0.16081   0.00000  Uiso   1.00
O85    O     0.88097   0.88397   0.75831   0.00000  Uiso   1.00
O86    O     0.88473   0.41720   0.76659   0.00000  Uiso   1.00
N87    N     0.77360   0.14435   0.09644   0.00000  Uiso   1.00
N88    N     0.94100   0.95951   0.80962   0.00000  Uiso   1.00
N89    N     0.94369   0.33948   0.81550   0.00000  Uiso   1.00
N90    N     0.60925   0.14516   0.07255   0.00000  Uiso   1.00
N91    N     0.77665   0.96032   0.78573   0.00000  Uiso   1.00
N92    N     0.77933   0.34029   0.79161   0.00000  Uiso   1.00
C93    C     0.59945   0.35227   0.40931   0.00000  Uiso   1.00
C94    C     0.67460   0.35299   0.45505   0.00000  Uiso   1.00
C95    C     0.64624   0.35406   0.50681   0.00000  Uiso   1.00
C96    C     0.72667   0.35460   0.54281   0.00000  Uiso   1.00
C97    C     0.82739   0.35583   0.61615   0.00000  Uiso   1.00
C98    C     0.62847   0.40394   0.37600   0.00000  Uiso   1.00
C99    C     0.56131   0.44785   0.36130   0.00000  Uiso   1.00
C100   C     0.60291   0.49127   0.33076   0.00000  Uiso   1.00
C101   C     0.63199   0.57158   0.28135   0.00000  Uiso   1.00
C102   C     0.62773   0.29922   0.37763   0.00000  Uiso   1.00
C103   C     0.55995   0.25507   0.36429   0.00000  Uiso   1.00
C104   C     0.60092   0.21033   0.33511   0.00000  Uiso   1.00
C105   C     0.62885   0.12805   0.28822   0.00000  Uiso   1.00
C106   C     0.79273   0.35132   0.38121   0.00000  Uiso   1.00
C107   C     0.77958   0.35248   0.43978   0.00000  Uiso   1.00
C108   C     0.86008   0.35301   0.47572   0.00000  Uiso   1.00
C109   C     0.83184   0.35408   0.52753   0.00000  Uiso   1.00
C110   C     0.73345   0.40343   0.36074   0.00000  Uiso   1.00
C111   C     0.77515   0.44679   0.33021   0.00000  Uiso   1.00
C112   C     0.70808   0.49075   0.31547   0.00000  Uiso   1.00
C113   C     0.73271   0.29870   0.36237   0.00000  Uiso   1.00
C114   C     0.77380   0.25402   0.33320   0.00000  Uiso   1.00
C115   C     0.70609   0.20982   0.31982   0.00000  Uiso   1.00
H116   H     0.51772   0.35267   0.42119   0.00000  Uiso   1.00
H117   H     0.56498   0.35446   0.51860   0.00000  Uiso   1.00
H118   H     0.48007   0.44823   0.37311   0.00000  Uiso   1.00
H119   H     0.47871   0.25549   0.37610   0.00000  Uiso   1.00
H120   H     0.66368   0.35625   0.61987   0.00000  Uiso   1.00
H121   H     0.48463   0.55395   0.31308   0.00000  Uiso   1.00
H122   H     0.48176   0.14751   0.31938   0.00000  Uiso   1.00
H123   H     0.87447   0.35091   0.36933   0.00000  Uiso   1.00
H124   H     0.94131   0.35261   0.46390   0.00000  Uiso   1.00
H125   H     0.85640   0.44638   0.31841   0.00000  Uiso   1.00
H126   H     0.85504   0.25364   0.32140   0.00000  Uiso   1.00
H127   H     0.96913   0.35474   0.57547   0.00000  Uiso   1.00
H128   H     0.79007   0.55244   0.26868   0.00000  Uiso   1.00
H129   H     0.78721   0.14601   0.27498   0.00000  Uiso   1.00
O130   O     0.85394   0.35666   0.66081   0.00000  Uiso   1.00
O131   O     0.61903   0.61603   0.25831   0.00000  Uiso   1.00
O132   O     0.61527   0.08280   0.26659   0.00000  Uiso   1.00
N133   N     0.72640   0.35565   0.59644   0.00000  Uiso   1.00
N134   N     0.55900   0.54049   0.30962   0.00000  Uiso   1.00
N135   N     0.55631   0.16052   0.31550   0.00000  Uiso   1.00
N136   N     0.89075   0.35484   0.57255   0.00000  Uiso   1.00
N137   N     0.72335   0.53968   0.28573   0.00000  Uiso   1.00
N138   N     0.72067   0.15971   0.29161   0.00000  Uiso   1.00
C139   C     0.09945   0.85227   0.40931   0.00000  Uiso   1.00
C140   C     0.17460   0.85299   0.45505   0.00000  Uiso   1.00
C141   C     0.14624   0.85406   0.50681   0.00000  Uiso   1.00
C142   C     0.22667   0.85460   0.54281   0.00000  Uiso   1.00
C143   C     0.32739   0.85583   0.61615   0.00000  Uiso   1.00
C144   C     0.12847   0.90394   0.37600   0.00000  Uiso   1.00
C145   C     0.06131   0.94785   0.36130   0.00000  Uiso   1.00
C146   C     0.10291   0.99127   0.33076   0.00000  Uiso   1.00
C147   C     0.13199   0.07158   0.28135   0.00000  Uiso   1.00
C148   C     0.12773   0.79922   0.37763   0.00000  Uiso   1.00
C149   C     0.05995   0.75507   0.36429   0.00000  Uiso   1.00
C150   C     0.10092   0.71033   0.33511   0.00000  Uiso   1.00
C151   C     0.12885   0.62805   0.28822   0.00000  Uiso   1.00
C152   C     0.29273   0.85132   0.38121   0.00000  Uiso   1.00
C153   C     0.27958   0.85248   0.43978   0.00000  Uiso   1.00
C154   C     0.36008   0.85301   0.47572   0.00000  Uiso   1.00
C155   C     0.33184   0.85408   0.52753   0.00000  Uiso   1.00
C156   C     0.23345   0.90343   0.36074   0.00000  Uiso   1.00
C157   C     0.27515   0.94679   0.33021   0.00000  Uiso   1.00
C158   C     0.20808   0.99075   0.31547   0.00000  Uiso   1.00
C159   C     0.23271   0.79870   0.36237   0.00000  Uiso   1.00
C160   C     0.27380   0.75402   0.33320   0.00000  Uiso   1.00
C161   C     0.20609   0.70982   0.31982   0.00000  Uiso   1.00
H162   H     0.01772   0.85267   0.42119   0.00000  Uiso   1.00
H163   H     0.06498   0.85446   0.51860   0.00000  Uiso   1.00
H164   H     0.98007   0.94823   0.37311   0.00000  Uiso   1.00
H165   H     0.97871   0.75549   0.37610   0.00000  Uiso   1.00
H166   H     0.16368   0.85625   0.61987   0.00000  Uiso   1.00
H167   H     0.98463   0.05395   0.31308   0.00000  Uiso   1.00
H168   H     0.98176   0.64751   0.31938   0.00000  Uiso   1.00
H169   H     0.37447   0.85091   0.36933   0.00000  Uiso   1.00
H170   H     0.44131   0.85261   0.46390   0.00000  Uiso   1.00
H171   H     0.35640   0.94638   0.31841   0.00000  Uiso   1.00
H172   H     0.35504   0.75364   0.32140   0.00000  Uiso   1.00
H173   H     0.46913   0.85474   0.57547   0.00000  Uiso   1.00
H174   H     0.29007   0.05244   0.26868   0.00000  Uiso   1.00
H175   H     0.28721   0.64601   0.27498   0.00000  Uiso   1.00
O176   O     0.35394   0.85666   0.66081   0.00000  Uiso   1.00
O177   O     0.11903   0.11603   0.25831   0.00000  Uiso   1.00
O178   O     0.11527   0.58280   0.26659   0.00000  Uiso   1.00
N179   N     0.22640   0.85565   0.59644   0.00000  Uiso   1.00
N180   N     0.05900   0.04049   0.30962   0.00000  Uiso   1.00
N181   N     0.05631   0.66052   0.31550   0.00000  Uiso   1.00
N182   N     0.39075   0.85484   0.57255   0.00000  Uiso   1.00
N183   N     0.22335   0.03968   0.28573   0.00000  Uiso   1.00
N184   N     0.22067   0.65971   0.29161   0.00000  Uiso   1.00
C185   C     0.59945   0.64773   0.59069   0.00000  Uiso   1.00
C186   C     0.67460   0.64701   0.54495   0.00000  Uiso   1.00
C187   C     0.64624   0.64594   0.49319   0.00000  Uiso   1.00
C188   C     0.72667   0.64540   0.45719   0.00000  Uiso   1.00
C189   C     0.82739   0.64417   0.38385   0.00000  Uiso   1.00
C190   C     0.62847   0.59606   0.62400   0.00000  Uiso   1.00
C191   C     0.56131   0.55215   0.63870   0.00000  Uiso   1.00
C192   C     0.60291   0.50873   0.66924   0.00000  Uiso   1.00
C193   C     0.63199   0.42842   0.71865   0.00000  Uiso   1.00
C194   C     0.62773   0.70078   0.62237   0.00000  Uiso   1.00
C195   C     0.55995   0.74493   0.63571   0.00000  Uiso   1.00
C196   C     0.60092   0.78967   0.66489   0.00000  Uiso   1.00
C197   C     0.62885   0.87195   0.71178   0.00000  Uiso   1.00
C198   C     0.79273   0.64868   0.61879   0.00000  Uiso   1.00
C199   C     0.77958   0.64752   0.56022   0.00000  Uiso   1.00
C200   C     0.86008   0.64699   0.52428   0.00000  Uiso   1.00
C201   C     0.83184   0.64592   0.47247   0.00000  Uiso   1.00
C202   C     0.73345   0.59657   0.63926   0.00000  Uiso   1.00
C203   C     0.77515   0.55321   0.66979   0.00000  Uiso   1.00
C204   C     0.70808   0.50925   0.68453   0.00000  Uiso   1.00
C205   C     0.73271   0.70130   0.63763   0.00000  Uiso   1.00
C206   C     0.77380   0.74598   0.66680   0.00000  Uiso   1.00
C207   C     0.70609   0.79018   0.68018   0.00000  Uiso   1.00
H208   H     0.51772   0.64733   0.57881   0.00000  Uiso   1.00
H209   H     0.56498   0.64554   0.48140   0.00000  Uiso   1.00
H210   H     0.48007   0.55177   0.62689   0.00000  Uiso   1.00
H211   H     0.47871   0.74451   0.62390   0.00000  Uiso   1.00
H212   H     0.66368   0.64375   0.38013   0.00000  Uiso   1.00
H213   H     0.48463   0.44605   0.68692   0.00000  Uiso   1.00
H214   H     0.48176   0.85249   0.68062   0.00000  Uiso   1.00
H215   H     0.87447   0.64909   0.63067   0.00000  Uiso   1.00
H216   H     0.94131   0.64739   0.53610   0.00000  Uiso   1.00
H217   H     0.85640   0.55362   0.68159   0.00000  Uiso   1.00
H218   H     0.85504   0.74636   0.67860   0.00000  Uiso   1.00
H219   H     0.96913   0.64526   0.42453   0.00000  Uiso   1.00
H220   H     0.79007   0.44756   0.73132   0.00000  Uiso   1.00
H221   H     0.78721   0.85399   0.72502   0.00000  Uiso   1.00
O222   O     0.85394   0.64334   0.33919   0.00000  Uiso   1.00
O223   O     0.61903   0.38397   0.74169   0.00000  Uiso   1.00
O224   O     0.61527   0.91720   0.73341   0.00000  Uiso   1.00
N225   N     0.72640   0.64435   0.40356   0.00000  Uiso   1.00
N226   N     0.55900   0.45951   0.69038   0.00000  Uiso   1.00
N227   N     0.55631   0.83948   0.68450   0.00000  Uiso   1.00
N228   N     0.89075   0.64516   0.42745   0.00000  Uiso   1.00
N229   N     0.72335   0.46032   0.71427   0.00000  Uiso   1.00
N230   N     0.72067   0.84029   0.70839   0.00000  Uiso   1.00
C231   C     0.09945   0.14773   0.59069   0.00000  Uiso   1.00
C232   C     0.17460   0.14701   0.54495   0.00000  Uiso   1.00
C233   C     0.14624   0.14594   0.49319   0.00000  Uiso   1.00
C234   C     0.22667   0.14540   0.45719   0.00000  Uiso   1.00
C235   C     0.32739   0.14417   0.38385   0.00000  Uiso   1.00
C236   C     0.12847   0.09606   0.62400   0.00000  Uiso   1.00
C237   C     0.06131   0.05215   0.63870   0.00000  Uiso   1.00
C238   C     0.10291   0.00873   0.66924   0.00000  Uiso   1.00
C239   C     0.13199   0.92842   0.71865   0.00000  Uiso   1.00
C240   C     0.12773   0.20078   0.62237   0.00000  Uiso   1.00
C241   C     0.05995   0.24493   0.63571   0.00000  Uiso   1.00
C242   C     0.10092   0.28967   0.66489   0.00000  Uiso   1.00
C243   C     0.12885   0.37195   0.71178   0.00000  Uiso   1.00
C244   C     0.29273   0.14868   0.61879   0.00000  Uiso   1.00
C245   C     0.27958   0.14752   0.56022   0.00000  Uiso   1.00
C246   C     0.36008   0.14699   0.52428   0.00000  Uiso   1.00
C247   C     0.33184   0.14592   0.47247   0.00000  Uiso   1.00
C248   C     0.23345   0.09657   0.63926   0.00000  Uiso   1.00
C249   C     0.27515   0.05321   0.66979   0.00000  Uiso   1.00
C250   C     0.20808   0.00925   0.68453   0.00000  Uiso   1.00
C251   C     0.23271   0.20130   0.63763   0.00000  Uiso   1.00
C252   C     0.27380   0.24598   0.66680   0.00000  Uiso   1.00
C253   C     0.20609   0.29018   0.68018   0.00000  Uiso   1.00
H254   H     0.01772   0.14733   0.57881   0.00000  Uiso   1.00
H255   H     0.06498   0.14554   0.48140   0.00000  Uiso   1.00
H256   H     0.98007   0.05177   0.62689   0.00000  Uiso   1.00
H257   H     0.97871   0.24451   0.62390   0.00000  Uiso   1.00
H258   H     0.16368   0.14375   0.38013   0.00000  Uiso   1.00
H259   H     0.98463   0.94605   0.68692   0.00000  Uiso   1.00
H260   H     0.98176   0.35249   0.68062   0.00000  Uiso   1.00
H261   H     0.37447   0.14909   0.63067   0.00000  Uiso   1.00
H262   H     0.44131   0.14739   0.53610   0.00000  Uiso   1.00
H263   H     0.35640   0.05362   0.68159   0.00000  Uiso   1.00
H264   H     0.35504   0.24636   0.67860   0.00000  Uiso   1.00
H265   H     0.46913   0.14526   0.42453   0.00000  Uiso   1.00
H266   H     0.29007   0.94756   0.73132   0.00000  Uiso   1.00
H267   H     0.28721   0.35399   0.72502   0.00000  Uiso   1.00
O268   O     0.35394   0.14334   0.33919   0.00000  Uiso   1.00
O269   O     0.11903   0.88397   0.74169   0.00000  Uiso   1.00
O270   O     0.11527   0.41720   0.73341   0.00000  Uiso   1.00
N271   N     0.22640   0.14435   0.40356   0.00000  Uiso   1.00
N272   N     0.05900   0.95951   0.69038   0.00000  Uiso   1.00
N273   N     0.05631   0.33948   0.68450   0.00000  Uiso   1.00
N274   N     0.39075   0.14516   0.42745   0.00000  Uiso   1.00
N275   N     0.22335   0.96032   0.71427   0.00000  Uiso   1.00
N276   N     0.22067   0.34029   0.70839   0.00000  Uiso   1.00
C277   C     0.40055   0.35227   0.09069   0.00000  Uiso   1.00
C278   C     0.32540   0.35299   0.04495   0.00000  Uiso   1.00
C279   C     0.35376   0.35406   0.99319   0.00000  Uiso   1.00
C280   C     0.27333   0.35460   0.95719   0.00000  Uiso   1.00
C281   C     0.17261   0.35583   0.88385   0.00000  Uiso   1.00
C282   C     0.37153   0.40394   0.12400   0.00000  Uiso   1.00
C283   C     0.43869   0.44785   0.13870   0.00000  Uiso   1.00
C284   C     0.39709   0.49127   0.16924   0.00000  Uiso   1.00
C285   C     0.36801   0.57158   0.21865   0.00000  Uiso   1.00
C286   C     0.37227   0.29922   0.12237   0.00000  Uiso   1.00
C287   C     0.44005   0.25507   0.13571   0.00000  Uiso   1.00
C288   C     0.39908   0.21033   0.16489   0.00000  Uiso   1.00
C289   C     0.37115   0.12805   0.21178   0.00000  Uiso   1.00
C290   C     0.20727   0.35132   0.11879   0.00000  Uiso   1.00
C291   C     0.22042   0.35248   0.06022   0.00000  Uiso   1.00
C292   C     0.13992   0.35301   0.02428   0.00000  Uiso   1.00
C293   C     0.16816   0.35408   0.97247   0.00000  Uiso   1.00
C294   C     0.26655   0.40343   0.13926   0.00000  Uiso   1.00
C295   C     0.22485   0.44679   0.16979   0.00000  Uiso   1.00
C296   C     0.29192   0.49075   0.18453   0.00000  Uiso   1.00
C297   C     0.26729   0.29870   0.13763   0.00000  Uiso   1.00
C298   C     0.22620   0.25402   0.16680   0.00000  Uiso   1.00
C299   C     0.29391   0.20982   0.18018   0.00000  Uiso   1.00
H300   H     0.48228   0.35267   0.07881   0.00000  Uiso   1.00
H301   H     0.43502   0.35446   0.98140   0.00000  Uiso   1.00
H302   H     0.51993   0.44823   0.12689   0.00000  Uiso   1.00
H303   H     0.52129   0.25549   0.12390   0.00000  Uiso   1.00
H304   H     0.33632   0.35625   0.88013   0.00000  Uiso   1.00
H305   H     0.51537   0.55395   0.18692   0.00000  Uiso   1.00
H306   H     0.51824   0.14751   0.18062   0.00000  Uiso   1.00
H307   H     0.12553   0.35091   0.13067   0.00000  Uiso   1.00
H308   H     0.05869   0.35261   0.03610   0.00000  Uiso   1.00
H309   H     0.14360   0.44638   0.18159   0.00000  Uiso   1.00
H310   H     0.14496   0.25364   0.17860   0.00000  Uiso   1.00
H311   H     0.03087   0.35474   0.92453   0.00000  Uiso   1.00
H312   H     0.20993   0.55244   0.23132   0.00000  Uiso   1.00
H313   H     0.21279   0.14601   0.22502   0.00000  Uiso   1.00
O314   O     0.14606   0.35666   0.83919   0.00000  Uiso   1.00
O315   O     0.38097   0.61603   0.24169   0.00000  Uiso   1.00
O316   O     0.38473   0.08280   0.23341   0.00000  Uiso   1.00
N317   N     0.27360   0.35565   0.90356   0.00000  Uiso   1.00
N318   N     0.44100   0.54049   0.19038   0.00000  Uiso   1.00
N319   N     0.44369   0.16052   0.18450   0.00000  Uiso   1.00
N320   N     0.10925   0.35484   0.92745   0.00000  Uiso   1.00
N321   N     0.27665   0.53968   0.21427   0.00000  Uiso   1.00
N322   N     0.27933   0.15971   0.20839   0.00000  Uiso   1.00
C323   C     0.90055   0.85227   0.09069   0.00000  Uiso   1.00
C324   C     0.82540   0.85299   0.04495   0.00000  Uiso   1.00
C325   C     0.85376   0.85406   0.99319   0.00000  Uiso   1.00
C326   C     0.77333   0.85460   0.95719   0.00000  Uiso   1.00
C327   C     0.67261   0.85583   0.88385   0.00000  Uiso   1.00
C328   C     0.87153   0.90394   0.12400   0.00000  Uiso   1.00
C329   C     0.93869   0.94785   0.13870   0.00000  Uiso   1.00
C330   C     0.89709   0.99127   0.16924   0.00000  Uiso   1.00
C331   C     0.86801   0.07158   0.21865   0.00000  Uiso   1.00
C332   C     0.87227   0.79922   0.12237   0.00000  Uiso   1.00
C333   C     0.94005   0.75507   0.13571   0.00000  Uiso   1.00
C334   C     0.89908   0.71033   0.16489   0.00000  Uiso   1.00
C335   C     0.87115   0.62805   0.21178   0.00000  Uiso   1.00
C336   C     0.70727   0.85132   0.11879   0.00000  Uiso   1.00
C337   C     0.72042   0.85248   0.06022   0.00000  Uiso   1.00
C338   C     0.63992   0.85301   0.02428   0.00000  Uiso   1.00
C339   C     0.66816   0.85408   0.97247   0.00000  Uiso   1.00
C340   C     0.76655   0.90343   0.13926   0.00000  Uiso   1.00
C341   C     0.72485   0.94679   0.16979   0.00000  Uiso   1.00
C342   C     0.79192   0.99075   0.18453   0.00000  Uiso   1.00
C343   C     0.76729   0.79870   0.13763   0.00000  Uiso   1.00
C344   C     0.72620   0.75402   0.16680   0.00000  Uiso   1.00
C345   C     0.79391   0.70982   0.18018   0.00000  Uiso   1.00
H346   H     0.98228   0.85267   0.07881   0.00000  Uiso   1.00
H347   H     0.93502   0.85446   0.98140   0.00000  Uiso   1.00
H348   H     0.01993   0.94823   0.12689   0.00000  Uiso   1.00
H349   H     0.02129   0.75549   0.12390   0.00000  Uiso   1.00
H350   H     0.83632   0.85625   0.88013   0.00000  Uiso   1.00
H351   H     0.01537   0.05395   0.18692   0.00000  Uiso   1.00
H352   H     0.01824   0.64751   0.18062   0.00000  Uiso   1.00
H353   H     0.62553   0.85091   0.13067   0.00000  Uiso   1.00
H354   H     0.55869   0.85261   0.03610   0.00000  Uiso   1.00
H355   H     0.64360   0.94638   0.18159   0.00000  Uiso   1.00
H356   H     0.64496   0.75364   0.17860   0.00000  Uiso   1.00
H357   H     0.53087   0.85474   0.92453   0.00000  Uiso   1.00
H358   H     0.70993   0.05244   0.23132   0.00000  Uiso   1.00
H359   H     0.71279   0.64601   0.22502   0.00000  Uiso   1.00
O360   O     0.64606   0.85666   0.83919   0.00000  Uiso   1.00
O361   O     0.88097   0.11603   0.24169   0.00000  Uiso   1.00
O362   O     0.88473   0.58280   0.23341   0.00000  Uiso   1.00
N363   N     0.77360   0.85565   0.90356   0.00000  Uiso   1.00
N364   N     0.94100   0.04049   0.19038   0.00000  Uiso   1.00
N365   N     0.94369   0.66052   0.18450   0.00000  Uiso   1.00
N366   N     0.60925   0.85484   0.92745   0.00000  Uiso   1.00
N367   N     0.77665   0.03968   0.21427   0.00000  Uiso   1.00
N368   N     0.77933   0.65971   0.20839   0.00000  Uiso   1.00
