data_job_02109
_audit_creation_date              2018-12-19
_audit_creation_method            'Materials Studio'
_symmetry_space_group_name_H-M    'P1'
_symmetry_Int_Tables_number       1
_symmetry_cell_setting            triclinic
loop_
_symmetry_equiv_pos_as_xyz
  x,y,z
_cell_length_a                    14.9319
_cell_length_b                    8.6427
_cell_length_c                    27.8637
_cell_angle_alpha                 90.0000
_cell_angle_beta                  127.7402
_cell_angle_gamma                 90.0000
loop_
_atom_site_label
_atom_site_type_symbol
_atom_site_fract_x
_atom_site_fract_y
_atom_site_fract_z
_atom_site_U_iso_or_equiv
_atom_site_adp_type
_atom_site_occupancy
C1     C     0.31356   0.60260   0.59044   0.00000  Uiso   1.00
C2     C     0.32352   0.47374   0.63085   0.00000  Uiso   1.00
C3     C     0.30047   0.48775   0.67193   0.00000  Uiso   1.00
C4     C     0.31477   0.35633   0.70463   0.00000  Uiso   1.00
C5     C     0.32481   0.17760   0.76864   0.00000  Uiso   1.00
C6     C     0.42950   0.61473   0.60466   0.00000  Uiso   1.00
C7     C     0.49554   0.74730   0.62371   0.00000  Uiso   1.00
C8     C     0.59905   0.73458   0.63436   0.00000  Uiso   1.00
C9     C     0.77359   0.77478   0.65767   0.00000  Uiso   1.00
C10    C     0.23316   0.54232   0.52554   0.00000  Uiso   1.00
C11    C     0.13412   0.61401   0.47805   0.00000  Uiso   1.00
C12    C     0.07234   0.54033   0.42208   0.00000  Uiso   1.00
C13    C     0.94202   0.46810   0.32254   0.00000  Uiso   1.00
C14    C     0.37995   0.34429   0.57545   0.00000  Uiso   1.00
C15    C     0.35959   0.33344   0.62271   0.00000  Uiso   1.00
C16    C     0.37392   0.20196   0.65535   0.00000  Uiso   1.00
C17    C     0.35089   0.21577   0.69648   0.00000  Uiso   1.00
C18    C     0.46556   0.47444   0.59652   0.00000  Uiso   1.00
C19    C     0.56900   0.46152   0.60714   0.00000  Uiso   1.00
C20    C     0.63518   0.59403   0.62620   0.00000  Uiso   1.00
C21    C     0.26922   0.40201   0.51740   0.00000  Uiso   1.00
C22    C     0.20758   0.32822   0.46148   0.00000  Uiso   1.00
C23    C     0.10847   0.39978   0.41392   0.00000  Uiso   1.00
H24    H     0.28549   0.71183   0.59677   0.00000  Uiso   1.00
H25    H     0.27257   0.59635   0.67822   0.00000  Uiso   1.00
H26    H     0.46761   0.85586   0.63000   0.00000  Uiso   1.00
H27    H     0.10624   0.72258   0.48437   0.00000  Uiso   1.00
H28    H     0.27420   0.40645   0.76495   0.00000  Uiso   1.00
H29    H     0.68542   0.95367   0.66326   0.00000  Uiso   1.00
H30    H     0.92342   0.67263   0.35616   0.00000  Uiso   1.00
H31    H     0.40803   0.23506   0.56912   0.00000  Uiso   1.00
H32    H     0.40183   0.09341   0.64905   0.00000  Uiso   1.00
H33    H     0.59687   0.35293   0.60083   0.00000  Uiso   1.00
H34    H     0.23551   0.21965   0.45520   0.00000  Uiso   1.00
H35    H     0.37911   0.99825   0.74127   0.00000  Uiso   1.00
H36    H     0.79034   0.54547   0.63958   0.00000  Uiso   1.00
H37    H     0.02834   0.26443   0.33249   0.00000  Uiso   1.00
O38    O     0.32041   0.11779   0.80620   0.00000  Uiso   1.00
O39    O     0.85991   0.83572   0.67278   0.00000  Uiso   1.00
O40    O     0.86017   0.46700   0.26988   0.00000  Uiso   1.00
N41    N     0.29972   0.32981   0.74840   0.00000  Uiso   1.00
N42    N     0.68420   0.84142   0.65333   0.00000  Uiso   1.00
N43    N     0.97180   0.57870   0.36622   0.00000  Uiso   1.00
N44    N     0.35617   0.11016   0.73566   0.00000  Uiso   1.00
N45    N     0.74065   0.62177   0.64059   0.00000  Uiso   1.00
N46    N     0.02826   0.35904   0.35348   0.00000  Uiso   1.00
C47    C     0.68644   0.60260   0.90956   0.00000  Uiso   1.00
C48    C     0.67648   0.47374   0.86915   0.00000  Uiso   1.00
C49    C     0.69953   0.48775   0.82807   0.00000  Uiso   1.00
C50    C     0.68523   0.35633   0.79537   0.00000  Uiso   1.00
C51    C     0.67519   0.17760   0.73136   0.00000  Uiso   1.00
C52    C     0.57050   0.61473   0.89534   0.00000  Uiso   1.00
C53    C     0.50446   0.74730   0.87629   0.00000  Uiso   1.00
C54    C     0.40095   0.73458   0.86564   0.00000  Uiso   1.00
C55    C     0.22641   0.77478   0.84233   0.00000  Uiso   1.00
C56    C     0.76684   0.54232   0.97446   0.00000  Uiso   1.00
C57    C     0.86588   0.61401   0.02195   0.00000  Uiso   1.00
C58    C     0.92766   0.54033   0.07792   0.00000  Uiso   1.00
C59    C     0.05798   0.46810   0.17746   0.00000  Uiso   1.00
C60    C     0.62005   0.34429   0.92455   0.00000  Uiso   1.00
C61    C     0.64041   0.33344   0.87729   0.00000  Uiso   1.00
C62    C     0.62608   0.20196   0.84465   0.00000  Uiso   1.00
C63    C     0.64911   0.21577   0.80352   0.00000  Uiso   1.00
C64    C     0.53444   0.47444   0.90348   0.00000  Uiso   1.00
C65    C     0.43100   0.46152   0.89286   0.00000  Uiso   1.00
C66    C     0.36482   0.59403   0.87380   0.00000  Uiso   1.00
C67    C     0.73078   0.40201   0.98260   0.00000  Uiso   1.00
C68    C     0.79242   0.32822   0.03852   0.00000  Uiso   1.00
C69    C     0.89153   0.39978   0.08608   0.00000  Uiso   1.00
H70    H     0.71451   0.71183   0.90323   0.00000  Uiso   1.00
H71    H     0.72743   0.59635   0.82178   0.00000  Uiso   1.00
H72    H     0.53239   0.85586   0.87000   0.00000  Uiso   1.00
H73    H     0.89376   0.72258   0.01563   0.00000  Uiso   1.00
H74    H     0.72580   0.40645   0.73505   0.00000  Uiso   1.00
H75    H     0.31458   0.95367   0.83674   0.00000  Uiso   1.00
H76    H     0.07658   0.67263   0.14384   0.00000  Uiso   1.00
H77    H     0.59197   0.23506   0.93088   0.00000  Uiso   1.00
H78    H     0.59817   0.09341   0.85095   0.00000  Uiso   1.00
H79    H     0.40313   0.35293   0.89917   0.00000  Uiso   1.00
H80    H     0.76449   0.21965   0.04480   0.00000  Uiso   1.00
H81    H     0.62089   0.99825   0.75873   0.00000  Uiso   1.00
H82    H     0.20966   0.54547   0.86042   0.00000  Uiso   1.00
H83    H     0.97166   0.26443   0.16751   0.00000  Uiso   1.00
O84    O     0.67959   0.11779   0.69380   0.00000  Uiso   1.00
O85    O     0.14009   0.83572   0.82722   0.00000  Uiso   1.00
O86    O     0.13983   0.46700   0.23012   0.00000  Uiso   1.00
N87    N     0.70028   0.32981   0.75160   0.00000  Uiso   1.00
N88    N     0.31580   0.84142   0.84667   0.00000  Uiso   1.00
N89    N     0.02820   0.57870   0.13378   0.00000  Uiso   1.00
N90    N     0.64383   0.11016   0.76434   0.00000  Uiso   1.00
N91    N     0.25935   0.62177   0.85941   0.00000  Uiso   1.00
N92    N     0.97174   0.35904   0.14652   0.00000  Uiso   1.00
C93    C     0.68644   0.39740   0.40956   0.00000  Uiso   1.00
C94    C     0.67648   0.52626   0.36915   0.00000  Uiso   1.00
C95    C     0.69953   0.51225   0.32807   0.00000  Uiso   1.00
C96    C     0.68523   0.64367   0.29537   0.00000  Uiso   1.00
C97    C     0.67519   0.82240   0.23136   0.00000  Uiso   1.00
C98    C     0.57050   0.38527   0.39534   0.00000  Uiso   1.00
C99    C     0.50446   0.25270   0.37629   0.00000  Uiso   1.00
C100   C     0.40095   0.26542   0.36564   0.00000  Uiso   1.00
C101   C     0.22641   0.22522   0.34233   0.00000  Uiso   1.00
C102   C     0.76684   0.45768   0.47446   0.00000  Uiso   1.00
C103   C     0.86588   0.38599   0.52195   0.00000  Uiso   1.00
C104   C     0.92766   0.45967   0.57792   0.00000  Uiso   1.00
C105   C     0.05798   0.53190   0.67746   0.00000  Uiso   1.00
C106   C     0.62005   0.65571   0.42455   0.00000  Uiso   1.00
C107   C     0.64041   0.66656   0.37729   0.00000  Uiso   1.00
C108   C     0.62608   0.79804   0.34465   0.00000  Uiso   1.00
C109   C     0.64911   0.78423   0.30352   0.00000  Uiso   1.00
C110   C     0.53444   0.52556   0.40348   0.00000  Uiso   1.00
C111   C     0.43100   0.53848   0.39286   0.00000  Uiso   1.00
C112   C     0.36482   0.40597   0.37380   0.00000  Uiso   1.00
C113   C     0.73078   0.59799   0.48260   0.00000  Uiso   1.00
C114   C     0.79242   0.67178   0.53852   0.00000  Uiso   1.00
C115   C     0.89153   0.60022   0.58608   0.00000  Uiso   1.00
H116   H     0.71451   0.28817   0.40323   0.00000  Uiso   1.00
H117   H     0.72743   0.40365   0.32178   0.00000  Uiso   1.00
H118   H     0.53239   0.14414   0.37000   0.00000  Uiso   1.00
H119   H     0.89376   0.27742   0.51563   0.00000  Uiso   1.00
H120   H     0.72580   0.59355   0.23505   0.00000  Uiso   1.00
H121   H     0.31458   0.04633   0.33674   0.00000  Uiso   1.00
H122   H     0.07658   0.32737   0.64384   0.00000  Uiso   1.00
H123   H     0.59197   0.76494   0.43088   0.00000  Uiso   1.00
H124   H     0.59817   0.90659   0.35095   0.00000  Uiso   1.00
H125   H     0.40313   0.64707   0.39917   0.00000  Uiso   1.00
H126   H     0.76449   0.78035   0.54480   0.00000  Uiso   1.00
H127   H     0.62089   0.00175   0.25873   0.00000  Uiso   1.00
H128   H     0.20966   0.45453   0.36042   0.00000  Uiso   1.00
H129   H     0.97166   0.73557   0.66751   0.00000  Uiso   1.00
O130   O     0.67959   0.88221   0.19380   0.00000  Uiso   1.00
O131   O     0.14009   0.16428   0.32722   0.00000  Uiso   1.00
O132   O     0.13983   0.53300   0.73012   0.00000  Uiso   1.00
N133   N     0.70028   0.67019   0.25160   0.00000  Uiso   1.00
N134   N     0.31580   0.15858   0.34667   0.00000  Uiso   1.00
N135   N     0.02820   0.42130   0.63378   0.00000  Uiso   1.00
N136   N     0.64383   0.88984   0.26434   0.00000  Uiso   1.00
N137   N     0.25935   0.37823   0.35941   0.00000  Uiso   1.00
N138   N     0.97174   0.64096   0.64652   0.00000  Uiso   1.00
C139   C     0.31356   0.39740   0.09044   0.00000  Uiso   1.00
C140   C     0.32352   0.52626   0.13085   0.00000  Uiso   1.00
C141   C     0.30047   0.51225   0.17193   0.00000  Uiso   1.00
C142   C     0.31477   0.64367   0.20463   0.00000  Uiso   1.00
C143   C     0.32481   0.82240   0.26864   0.00000  Uiso   1.00
C144   C     0.42950   0.38527   0.10466   0.00000  Uiso   1.00
C145   C     0.49554   0.25270   0.12371   0.00000  Uiso   1.00
C146   C     0.59905   0.26542   0.13436   0.00000  Uiso   1.00
C147   C     0.77359   0.22522   0.15767   0.00000  Uiso   1.00
C148   C     0.23316   0.45768   0.02554   0.00000  Uiso   1.00
C149   C     0.13412   0.38599   0.97805   0.00000  Uiso   1.00
C150   C     0.07234   0.45967   0.92208   0.00000  Uiso   1.00
C151   C     0.94202   0.53190   0.82254   0.00000  Uiso   1.00
C152   C     0.37995   0.65571   0.07545   0.00000  Uiso   1.00
C153   C     0.35959   0.66656   0.12271   0.00000  Uiso   1.00
C154   C     0.37392   0.79804   0.15535   0.00000  Uiso   1.00
C155   C     0.35089   0.78423   0.19648   0.00000  Uiso   1.00
C156   C     0.46556   0.52556   0.09652   0.00000  Uiso   1.00
C157   C     0.56900   0.53848   0.10714   0.00000  Uiso   1.00
C158   C     0.63518   0.40597   0.12620   0.00000  Uiso   1.00
C159   C     0.26922   0.59799   0.01740   0.00000  Uiso   1.00
C160   C     0.20758   0.67178   0.96148   0.00000  Uiso   1.00
C161   C     0.10847   0.60022   0.91392   0.00000  Uiso   1.00
H162   H     0.28549   0.28817   0.09677   0.00000  Uiso   1.00
H163   H     0.27257   0.40365   0.17822   0.00000  Uiso   1.00
H164   H     0.46761   0.14414   0.13000   0.00000  Uiso   1.00
H165   H     0.10624   0.27742   0.98437   0.00000  Uiso   1.00
H166   H     0.27420   0.59355   0.26495   0.00000  Uiso   1.00
H167   H     0.68542   0.04633   0.16326   0.00000  Uiso   1.00
H168   H     0.92342   0.32737   0.85616   0.00000  Uiso   1.00
H169   H     0.40803   0.76494   0.06912   0.00000  Uiso   1.00
H170   H     0.40183   0.90659   0.14905   0.00000  Uiso   1.00
H171   H     0.59687   0.64707   0.10083   0.00000  Uiso   1.00
H172   H     0.23551   0.78035   0.95520   0.00000  Uiso   1.00
H173   H     0.37911   0.00175   0.24127   0.00000  Uiso   1.00
H174   H     0.79034   0.45453   0.13958   0.00000  Uiso   1.00
H175   H     0.02834   0.73557   0.83249   0.00000  Uiso   1.00
O176   O     0.32041   0.88221   0.30620   0.00000  Uiso   1.00
O177   O     0.85991   0.16428   0.17278   0.00000  Uiso   1.00
O178   O     0.86017   0.53300   0.76988   0.00000  Uiso   1.00
N179   N     0.29972   0.67019   0.24840   0.00000  Uiso   1.00
N180   N     0.68420   0.15858   0.15333   0.00000  Uiso   1.00
N181   N     0.97180   0.42130   0.86622   0.00000  Uiso   1.00
N182   N     0.35617   0.88984   0.23566   0.00000  Uiso   1.00
N183   N     0.74065   0.37823   0.14059   0.00000  Uiso   1.00
N184   N     0.02826   0.64096   0.85348   0.00000  Uiso   1.00
