data_job_05714
_audit_creation_date              2018-12-19
_audit_creation_method            'Materials Studio'
_symmetry_space_group_name_H-M    'P1'
_symmetry_Int_Tables_number       1
_symmetry_cell_setting            triclinic
loop_
_symmetry_equiv_pos_as_xyz
  x,y,z
_cell_length_a                    24.2072
_cell_length_b                    20.0297
_cell_length_c                    12.1909
_cell_angle_alpha                 90.0000
_cell_angle_beta                  90.0000
_cell_angle_gamma                 90.0000
loop_
_atom_site_label
_atom_site_type_symbol
_atom_site_fract_x
_atom_site_fract_y
_atom_site_fract_z
_atom_site_U_iso_or_equiv
_atom_site_adp_type
_atom_site_occupancy
C1     C     0.17151   0.29937   0.57309   0.00000  Uiso   1.00
C2     C     0.13832   0.23656   0.59869   0.00000  Uiso   1.00
C3     C     0.15755   0.17147   0.59071   0.00000  Uiso   1.00
C4     C     0.12077   0.12089   0.61778   0.00000  Uiso   1.00
C5     C     0.07745   0.02123   0.65235   0.00000  Uiso   1.00
C6     C     0.13851   0.33727   0.48663   0.00000  Uiso   1.00
C7     C     0.15789   0.35686   0.38444   0.00000  Uiso   1.00
C8     C     0.12127   0.39108   0.31719   0.00000  Uiso   1.00
C9     C     0.07825   0.44781   0.17781   0.00000  Uiso   1.00
C10    C     0.16951   0.34205   0.67659   0.00000  Uiso   1.00
C11    C     0.21496   0.36567   0.73411   0.00000  Uiso   1.00
C12    C     0.20444   0.40392   0.82677   0.00000  Uiso   1.00
C13    C     0.20956   0.46806   0.98233   0.00000  Uiso   1.00
C14    C     0.07201   0.32530   0.63535   0.00000  Uiso   1.00
C15    C     0.08428   0.25065   0.63251   0.00000  Uiso   1.00
C16    C     0.04746   0.20016   0.65960   0.00000  Uiso   1.00
C17    C     0.06663   0.13500   0.65167   0.00000  Uiso   1.00
C18    C     0.08446   0.35136   0.52045   0.00000  Uiso   1.00
C19    C     0.04780   0.38556   0.45333   0.00000  Uiso   1.00
C20    C     0.06713   0.40519   0.35107   0.00000  Uiso   1.00
C21    C     0.11546   0.35613   0.71041   0.00000  Uiso   1.00
C22    C     0.10487   0.39436   0.80300   0.00000  Uiso   1.00
C23    C     0.15030   0.41803   0.86065   0.00000  Uiso   1.00
H24    H     0.21358   0.28840   0.54675   0.00000  Uiso   1.00
H25    H     0.19937   0.16059   0.56453   0.00000  Uiso   1.00
H26    H     0.19972   0.34596   0.35830   0.00000  Uiso   1.00
H27    H     0.25677   0.35476   0.70791   0.00000  Uiso   1.00
H28    H     0.15978   0.02509   0.59912   0.00000  Uiso   1.00
H29    H     0.16051   0.41598   0.16428   0.00000  Uiso   1.00
H30    H     0.28083   0.43453   0.90151   0.00000  Uiso   1.00
H31    H     0.02993   0.33627   0.66168   0.00000  Uiso   1.00
H32    H     0.00564   0.21108   0.68577   0.00000  Uiso   1.00
H33    H     0.00598   0.39645   0.47954   0.00000  Uiso   1.00
H34    H     0.06304   0.40525   0.82915   0.00000  Uiso   1.00
H35    H     0.00254   0.06607   0.69752   0.00000  Uiso   1.00
H36    H     0.00327   0.45696   0.26268   0.00000  Uiso   1.00
H37    H     0.12359   0.47551   0.99991   0.00000  Uiso   1.00
O38    O     0.06849   0.96236   0.66205   0.00000  Uiso   1.00
O39    O     0.06945   0.47520   0.09158   0.00000  Uiso   1.00
O40    O     0.22731   0.49954   0.05880   0.00000  Uiso   1.00
N41    N     0.12611   0.05192   0.61899   0.00000  Uiso   1.00
N42    N     0.12679   0.41736   0.21244   0.00000  Uiso   1.00
N43    N     0.23928   0.43473   0.90166   0.00000  Uiso   1.00
N44    N     0.04150   0.07397   0.67194   0.00000  Uiso   1.00
N45    N     0.04218   0.43941   0.26539   0.00000  Uiso   1.00
N46    N     0.15467   0.45678   0.95461   0.00000  Uiso   1.00
C47    C     0.67151   0.79937   0.57309   0.00000  Uiso   1.00
C48    C     0.63832   0.73656   0.59869   0.00000  Uiso   1.00
C49    C     0.65755   0.67147   0.59071   0.00000  Uiso   1.00
C50    C     0.62077   0.62089   0.61778   0.00000  Uiso   1.00
C51    C     0.57745   0.52123   0.65235   0.00000  Uiso   1.00
C52    C     0.63851   0.83727   0.48663   0.00000  Uiso   1.00
C53    C     0.65789   0.85686   0.38444   0.00000  Uiso   1.00
C54    C     0.62127   0.89108   0.31719   0.00000  Uiso   1.00
C55    C     0.57825   0.94781   0.17781   0.00000  Uiso   1.00
C56    C     0.66951   0.84205   0.67659   0.00000  Uiso   1.00
C57    C     0.71496   0.86567   0.73411   0.00000  Uiso   1.00
C58    C     0.70444   0.90392   0.82677   0.00000  Uiso   1.00
C59    C     0.70956   0.96806   0.98233   0.00000  Uiso   1.00
C60    C     0.57201   0.82530   0.63535   0.00000  Uiso   1.00
C61    C     0.58428   0.75065   0.63251   0.00000  Uiso   1.00
C62    C     0.54746   0.70016   0.65960   0.00000  Uiso   1.00
C63    C     0.56663   0.63500   0.65167   0.00000  Uiso   1.00
C64    C     0.58446   0.85136   0.52045   0.00000  Uiso   1.00
C65    C     0.54780   0.88556   0.45333   0.00000  Uiso   1.00
C66    C     0.56713   0.90519   0.35107   0.00000  Uiso   1.00
C67    C     0.61546   0.85613   0.71041   0.00000  Uiso   1.00
C68    C     0.60487   0.89436   0.80300   0.00000  Uiso   1.00
C69    C     0.65030   0.91803   0.86065   0.00000  Uiso   1.00
H70    H     0.71358   0.78840   0.54675   0.00000  Uiso   1.00
H71    H     0.69937   0.66059   0.56453   0.00000  Uiso   1.00
H72    H     0.69972   0.84596   0.35830   0.00000  Uiso   1.00
H73    H     0.75677   0.85476   0.70791   0.00000  Uiso   1.00
H74    H     0.65978   0.52509   0.59912   0.00000  Uiso   1.00
H75    H     0.66051   0.91598   0.16428   0.00000  Uiso   1.00
H76    H     0.78083   0.93453   0.90151   0.00000  Uiso   1.00
H77    H     0.52993   0.83627   0.66168   0.00000  Uiso   1.00
H78    H     0.50564   0.71108   0.68577   0.00000  Uiso   1.00
H79    H     0.50598   0.89645   0.47954   0.00000  Uiso   1.00
H80    H     0.56304   0.90525   0.82915   0.00000  Uiso   1.00
H81    H     0.50254   0.56607   0.69752   0.00000  Uiso   1.00
H82    H     0.50327   0.95696   0.26268   0.00000  Uiso   1.00
H83    H     0.62359   0.97551   0.99991   0.00000  Uiso   1.00
O84    O     0.56849   0.46236   0.66205   0.00000  Uiso   1.00
O85    O     0.56945   0.97520   0.09158   0.00000  Uiso   1.00
O86    O     0.72731   0.99954   0.05880   0.00000  Uiso   1.00
N87    N     0.62611   0.55192   0.61899   0.00000  Uiso   1.00
N88    N     0.62679   0.91736   0.21244   0.00000  Uiso   1.00
N89    N     0.73928   0.93473   0.90166   0.00000  Uiso   1.00
N90    N     0.54150   0.57397   0.67194   0.00000  Uiso   1.00
N91    N     0.54218   0.93941   0.26539   0.00000  Uiso   1.00
N92    N     0.65467   0.95678   0.95461   0.00000  Uiso   1.00
C93    C     0.82849   0.70063   0.57309   0.00000  Uiso   1.00
C94    C     0.86168   0.76344   0.59869   0.00000  Uiso   1.00
C95    C     0.84245   0.82853   0.59071   0.00000  Uiso   1.00
C96    C     0.87923   0.87911   0.61778   0.00000  Uiso   1.00
C97    C     0.92255   0.97877   0.65235   0.00000  Uiso   1.00
C98    C     0.86149   0.66273   0.48663   0.00000  Uiso   1.00
C99    C     0.84211   0.64314   0.38444   0.00000  Uiso   1.00
C100   C     0.87873   0.60892   0.31719   0.00000  Uiso   1.00
C101   C     0.92175   0.55219   0.17781   0.00000  Uiso   1.00
C102   C     0.83049   0.65795   0.67659   0.00000  Uiso   1.00
C103   C     0.78504   0.63433   0.73411   0.00000  Uiso   1.00
C104   C     0.79556   0.59608   0.82677   0.00000  Uiso   1.00
C105   C     0.79044   0.53194   0.98233   0.00000  Uiso   1.00
C106   C     0.92799   0.67470   0.63535   0.00000  Uiso   1.00
C107   C     0.91572   0.74935   0.63251   0.00000  Uiso   1.00
C108   C     0.95254   0.79984   0.65960   0.00000  Uiso   1.00
C109   C     0.93337   0.86500   0.65167   0.00000  Uiso   1.00
C110   C     0.91554   0.64864   0.52045   0.00000  Uiso   1.00
C111   C     0.95220   0.61444   0.45333   0.00000  Uiso   1.00
C112   C     0.93287   0.59481   0.35107   0.00000  Uiso   1.00
C113   C     0.88454   0.64387   0.71041   0.00000  Uiso   1.00
C114   C     0.89513   0.60564   0.80300   0.00000  Uiso   1.00
C115   C     0.84970   0.58197   0.86065   0.00000  Uiso   1.00
H116   H     0.78642   0.71160   0.54675   0.00000  Uiso   1.00
H117   H     0.80063   0.83941   0.56453   0.00000  Uiso   1.00
H118   H     0.80028   0.65404   0.35830   0.00000  Uiso   1.00
H119   H     0.74323   0.64524   0.70791   0.00000  Uiso   1.00
H120   H     0.84022   0.97491   0.59912   0.00000  Uiso   1.00
H121   H     0.83949   0.58402   0.16428   0.00000  Uiso   1.00
H122   H     0.71917   0.56547   0.90151   0.00000  Uiso   1.00
H123   H     0.97007   0.66373   0.66168   0.00000  Uiso   1.00
H124   H     0.99436   0.78892   0.68577   0.00000  Uiso   1.00
H125   H     0.99402   0.60355   0.47954   0.00000  Uiso   1.00
H126   H     0.93696   0.59475   0.82915   0.00000  Uiso   1.00
H127   H     0.99746   0.93393   0.69752   0.00000  Uiso   1.00
H128   H     0.99673   0.54304   0.26268   0.00000  Uiso   1.00
H129   H     0.87641   0.52449   0.99991   0.00000  Uiso   1.00
O130   O     0.93151   0.03764   0.66205   0.00000  Uiso   1.00
O131   O     0.93055   0.52480   0.09158   0.00000  Uiso   1.00
O132   O     0.77269   0.50046   0.05880   0.00000  Uiso   1.00
N133   N     0.87389   0.94808   0.61899   0.00000  Uiso   1.00
N134   N     0.87321   0.58264   0.21244   0.00000  Uiso   1.00
N135   N     0.76072   0.56527   0.90166   0.00000  Uiso   1.00
N136   N     0.95850   0.92603   0.67194   0.00000  Uiso   1.00
N137   N     0.95782   0.56059   0.26539   0.00000  Uiso   1.00
N138   N     0.84533   0.54322   0.95461   0.00000  Uiso   1.00
C139   C     0.32849   0.20063   0.57309   0.00000  Uiso   1.00
C140   C     0.36168   0.26344   0.59869   0.00000  Uiso   1.00
C141   C     0.34245   0.32853   0.59071   0.00000  Uiso   1.00
C142   C     0.37923   0.37911   0.61778   0.00000  Uiso   1.00
C143   C     0.42255   0.47877   0.65235   0.00000  Uiso   1.00
C144   C     0.36149   0.16273   0.48663   0.00000  Uiso   1.00
C145   C     0.34211   0.14314   0.38444   0.00000  Uiso   1.00
C146   C     0.37873   0.10892   0.31719   0.00000  Uiso   1.00
C147   C     0.42175   0.05219   0.17781   0.00000  Uiso   1.00
C148   C     0.33049   0.15795   0.67659   0.00000  Uiso   1.00
C149   C     0.28504   0.13433   0.73411   0.00000  Uiso   1.00
C150   C     0.29556   0.09608   0.82677   0.00000  Uiso   1.00
C151   C     0.29044   0.03194   0.98233   0.00000  Uiso   1.00
C152   C     0.42799   0.17470   0.63535   0.00000  Uiso   1.00
C153   C     0.41572   0.24935   0.63251   0.00000  Uiso   1.00
C154   C     0.45254   0.29984   0.65960   0.00000  Uiso   1.00
C155   C     0.43337   0.36500   0.65167   0.00000  Uiso   1.00
C156   C     0.41554   0.14864   0.52045   0.00000  Uiso   1.00
C157   C     0.45220   0.11444   0.45333   0.00000  Uiso   1.00
C158   C     0.43287   0.09481   0.35107   0.00000  Uiso   1.00
C159   C     0.38454   0.14387   0.71041   0.00000  Uiso   1.00
C160   C     0.39513   0.10564   0.80300   0.00000  Uiso   1.00
C161   C     0.34970   0.08197   0.86065   0.00000  Uiso   1.00
H162   H     0.28642   0.21160   0.54675   0.00000  Uiso   1.00
H163   H     0.30063   0.33941   0.56453   0.00000  Uiso   1.00
H164   H     0.30028   0.15404   0.35830   0.00000  Uiso   1.00
H165   H     0.24323   0.14524   0.70791   0.00000  Uiso   1.00
H166   H     0.34022   0.47491   0.59912   0.00000  Uiso   1.00
H167   H     0.33949   0.08402   0.16428   0.00000  Uiso   1.00
H168   H     0.21917   0.06547   0.90151   0.00000  Uiso   1.00
H169   H     0.47007   0.16373   0.66168   0.00000  Uiso   1.00
H170   H     0.49436   0.28892   0.68577   0.00000  Uiso   1.00
H171   H     0.49402   0.10355   0.47954   0.00000  Uiso   1.00
H172   H     0.43696   0.09475   0.82915   0.00000  Uiso   1.00
H173   H     0.49746   0.43393   0.69752   0.00000  Uiso   1.00
H174   H     0.49673   0.04304   0.26268   0.00000  Uiso   1.00
H175   H     0.37641   0.02449   0.99991   0.00000  Uiso   1.00
O176   O     0.43151   0.53764   0.66205   0.00000  Uiso   1.00
O177   O     0.43055   0.02480   0.09158   0.00000  Uiso   1.00
O178   O     0.27269   0.00046   0.05880   0.00000  Uiso   1.00
N179   N     0.37389   0.44808   0.61899   0.00000  Uiso   1.00
N180   N     0.37321   0.08264   0.21244   0.00000  Uiso   1.00
N181   N     0.26072   0.06527   0.90166   0.00000  Uiso   1.00
N182   N     0.45850   0.42603   0.67194   0.00000  Uiso   1.00
N183   N     0.45782   0.06059   0.26539   0.00000  Uiso   1.00
N184   N     0.34533   0.04322   0.95461   0.00000  Uiso   1.00
C185   C     0.17151   0.70063   0.07309   0.00000  Uiso   1.00
C186   C     0.13832   0.76344   0.09869   0.00000  Uiso   1.00
C187   C     0.15755   0.82853   0.09071   0.00000  Uiso   1.00
C188   C     0.12077   0.87911   0.11778   0.00000  Uiso   1.00
C189   C     0.07745   0.97877   0.15235   0.00000  Uiso   1.00
C190   C     0.13851   0.66273   0.98663   0.00000  Uiso   1.00
C191   C     0.15789   0.64314   0.88444   0.00000  Uiso   1.00
C192   C     0.12127   0.60892   0.81719   0.00000  Uiso   1.00
C193   C     0.07825   0.55219   0.67781   0.00000  Uiso   1.00
C194   C     0.16951   0.65795   0.17659   0.00000  Uiso   1.00
C195   C     0.21496   0.63433   0.23411   0.00000  Uiso   1.00
C196   C     0.20444   0.59608   0.32677   0.00000  Uiso   1.00
C197   C     0.20956   0.53194   0.48233   0.00000  Uiso   1.00
C198   C     0.07201   0.67470   0.13535   0.00000  Uiso   1.00
C199   C     0.08428   0.74935   0.13251   0.00000  Uiso   1.00
C200   C     0.04746   0.79984   0.15960   0.00000  Uiso   1.00
C201   C     0.06663   0.86500   0.15167   0.00000  Uiso   1.00
C202   C     0.08446   0.64864   0.02045   0.00000  Uiso   1.00
C203   C     0.04780   0.61444   0.95333   0.00000  Uiso   1.00
C204   C     0.06713   0.59481   0.85107   0.00000  Uiso   1.00
C205   C     0.11546   0.64387   0.21041   0.00000  Uiso   1.00
C206   C     0.10487   0.60564   0.30300   0.00000  Uiso   1.00
C207   C     0.15030   0.58197   0.36065   0.00000  Uiso   1.00
H208   H     0.21358   0.71160   0.04675   0.00000  Uiso   1.00
H209   H     0.19937   0.83941   0.06453   0.00000  Uiso   1.00
H210   H     0.19972   0.65404   0.85830   0.00000  Uiso   1.00
H211   H     0.25677   0.64524   0.20791   0.00000  Uiso   1.00
H212   H     0.15978   0.97491   0.09912   0.00000  Uiso   1.00
H213   H     0.16051   0.58402   0.66428   0.00000  Uiso   1.00
H214   H     0.28083   0.56547   0.40151   0.00000  Uiso   1.00
H215   H     0.02993   0.66373   0.16168   0.00000  Uiso   1.00
H216   H     0.00564   0.78892   0.18577   0.00000  Uiso   1.00
H217   H     0.00598   0.60355   0.97954   0.00000  Uiso   1.00
H218   H     0.06304   0.59475   0.32915   0.00000  Uiso   1.00
H219   H     0.00254   0.93393   0.19752   0.00000  Uiso   1.00
H220   H     0.00327   0.54304   0.76268   0.00000  Uiso   1.00
H221   H     0.12359   0.52449   0.49991   0.00000  Uiso   1.00
O222   O     0.06849   0.03764   0.16205   0.00000  Uiso   1.00
O223   O     0.06945   0.52480   0.59158   0.00000  Uiso   1.00
O224   O     0.22731   0.50046   0.55880   0.00000  Uiso   1.00
N225   N     0.12611   0.94808   0.11899   0.00000  Uiso   1.00
N226   N     0.12679   0.58264   0.71244   0.00000  Uiso   1.00
N227   N     0.23928   0.56527   0.40166   0.00000  Uiso   1.00
N228   N     0.04150   0.92603   0.17194   0.00000  Uiso   1.00
N229   N     0.04218   0.56059   0.76539   0.00000  Uiso   1.00
N230   N     0.15467   0.54322   0.45461   0.00000  Uiso   1.00
C231   C     0.67151   0.20063   0.07309   0.00000  Uiso   1.00
C232   C     0.63832   0.26344   0.09869   0.00000  Uiso   1.00
C233   C     0.65755   0.32853   0.09071   0.00000  Uiso   1.00
C234   C     0.62077   0.37911   0.11778   0.00000  Uiso   1.00
C235   C     0.57745   0.47877   0.15235   0.00000  Uiso   1.00
C236   C     0.63851   0.16273   0.98663   0.00000  Uiso   1.00
C237   C     0.65789   0.14314   0.88444   0.00000  Uiso   1.00
C238   C     0.62127   0.10892   0.81719   0.00000  Uiso   1.00
C239   C     0.57825   0.05219   0.67781   0.00000  Uiso   1.00
C240   C     0.66951   0.15795   0.17659   0.00000  Uiso   1.00
C241   C     0.71496   0.13433   0.23411   0.00000  Uiso   1.00
C242   C     0.70444   0.09608   0.32677   0.00000  Uiso   1.00
C243   C     0.70956   0.03194   0.48233   0.00000  Uiso   1.00
C244   C     0.57201   0.17470   0.13535   0.00000  Uiso   1.00
C245   C     0.58428   0.24935   0.13251   0.00000  Uiso   1.00
C246   C     0.54746   0.29984   0.15960   0.00000  Uiso   1.00
C247   C     0.56663   0.36500   0.15167   0.00000  Uiso   1.00
C248   C     0.58446   0.14864   0.02045   0.00000  Uiso   1.00
C249   C     0.54780   0.11444   0.95333   0.00000  Uiso   1.00
C250   C     0.56713   0.09481   0.85107   0.00000  Uiso   1.00
C251   C     0.61546   0.14387   0.21041   0.00000  Uiso   1.00
C252   C     0.60487   0.10564   0.30300   0.00000  Uiso   1.00
C253   C     0.65030   0.08197   0.36065   0.00000  Uiso   1.00
H254   H     0.71358   0.21160   0.04675   0.00000  Uiso   1.00
H255   H     0.69937   0.33941   0.06453   0.00000  Uiso   1.00
H256   H     0.69972   0.15404   0.85830   0.00000  Uiso   1.00
H257   H     0.75677   0.14524   0.20791   0.00000  Uiso   1.00
H258   H     0.65978   0.47491   0.09912   0.00000  Uiso   1.00
H259   H     0.66051   0.08402   0.66428   0.00000  Uiso   1.00
H260   H     0.78083   0.06547   0.40151   0.00000  Uiso   1.00
H261   H     0.52993   0.16373   0.16168   0.00000  Uiso   1.00
H262   H     0.50564   0.28892   0.18577   0.00000  Uiso   1.00
H263   H     0.50598   0.10355   0.97954   0.00000  Uiso   1.00
H264   H     0.56304   0.09475   0.32915   0.00000  Uiso   1.00
H265   H     0.50254   0.43393   0.19752   0.00000  Uiso   1.00
H266   H     0.50327   0.04304   0.76268   0.00000  Uiso   1.00
H267   H     0.62359   0.02449   0.49991   0.00000  Uiso   1.00
O268   O     0.56849   0.53764   0.16205   0.00000  Uiso   1.00
O269   O     0.56945   0.02480   0.59158   0.00000  Uiso   1.00
O270   O     0.72731   0.00046   0.55880   0.00000  Uiso   1.00
N271   N     0.62611   0.44808   0.11899   0.00000  Uiso   1.00
N272   N     0.62679   0.08264   0.71244   0.00000  Uiso   1.00
N273   N     0.73928   0.06527   0.40166   0.00000  Uiso   1.00
N274   N     0.54150   0.42603   0.17194   0.00000  Uiso   1.00
N275   N     0.54218   0.06059   0.76539   0.00000  Uiso   1.00
N276   N     0.65467   0.04322   0.45461   0.00000  Uiso   1.00
C277   C     0.82849   0.29937   0.07309   0.00000  Uiso   1.00
C278   C     0.86168   0.23656   0.09869   0.00000  Uiso   1.00
C279   C     0.84245   0.17147   0.09071   0.00000  Uiso   1.00
C280   C     0.87923   0.12089   0.11778   0.00000  Uiso   1.00
C281   C     0.92255   0.02123   0.15235   0.00000  Uiso   1.00
C282   C     0.86149   0.33727   0.98663   0.00000  Uiso   1.00
C283   C     0.84211   0.35686   0.88444   0.00000  Uiso   1.00
C284   C     0.87873   0.39108   0.81719   0.00000  Uiso   1.00
C285   C     0.92175   0.44781   0.67781   0.00000  Uiso   1.00
C286   C     0.83049   0.34205   0.17659   0.00000  Uiso   1.00
C287   C     0.78504   0.36567   0.23411   0.00000  Uiso   1.00
C288   C     0.79556   0.40392   0.32677   0.00000  Uiso   1.00
C289   C     0.79044   0.46806   0.48233   0.00000  Uiso   1.00
C290   C     0.92799   0.32530   0.13535   0.00000  Uiso   1.00
C291   C     0.91572   0.25065   0.13251   0.00000  Uiso   1.00
C292   C     0.95254   0.20016   0.15960   0.00000  Uiso   1.00
C293   C     0.93337   0.13500   0.15167   0.00000  Uiso   1.00
C294   C     0.91554   0.35136   0.02045   0.00000  Uiso   1.00
C295   C     0.95220   0.38556   0.95333   0.00000  Uiso   1.00
C296   C     0.93287   0.40519   0.85107   0.00000  Uiso   1.00
C297   C     0.88454   0.35613   0.21041   0.00000  Uiso   1.00
C298   C     0.89513   0.39436   0.30300   0.00000  Uiso   1.00
C299   C     0.84970   0.41803   0.36065   0.00000  Uiso   1.00
H300   H     0.78642   0.28840   0.04675   0.00000  Uiso   1.00
H301   H     0.80063   0.16059   0.06453   0.00000  Uiso   1.00
H302   H     0.80028   0.34596   0.85830   0.00000  Uiso   1.00
H303   H     0.74323   0.35476   0.20791   0.00000  Uiso   1.00
H304   H     0.84022   0.02509   0.09912   0.00000  Uiso   1.00
H305   H     0.83949   0.41598   0.66428   0.00000  Uiso   1.00
H306   H     0.71917   0.43453   0.40151   0.00000  Uiso   1.00
H307   H     0.97007   0.33627   0.16168   0.00000  Uiso   1.00
H308   H     0.99436   0.21108   0.18577   0.00000  Uiso   1.00
H309   H     0.99402   0.39645   0.97954   0.00000  Uiso   1.00
H310   H     0.93696   0.40525   0.32915   0.00000  Uiso   1.00
H311   H     0.99746   0.06607   0.19752   0.00000  Uiso   1.00
H312   H     0.99673   0.45696   0.76268   0.00000  Uiso   1.00
H313   H     0.87641   0.47551   0.49991   0.00000  Uiso   1.00
O314   O     0.93151   0.96236   0.16205   0.00000  Uiso   1.00
O315   O     0.93055   0.47520   0.59158   0.00000  Uiso   1.00
O316   O     0.77269   0.49954   0.55880   0.00000  Uiso   1.00
N317   N     0.87389   0.05192   0.11899   0.00000  Uiso   1.00
N318   N     0.87321   0.41736   0.71244   0.00000  Uiso   1.00
N319   N     0.76072   0.43473   0.40166   0.00000  Uiso   1.00
N320   N     0.95850   0.07397   0.17194   0.00000  Uiso   1.00
N321   N     0.95782   0.43941   0.76539   0.00000  Uiso   1.00
N322   N     0.84533   0.45678   0.45461   0.00000  Uiso   1.00
C323   C     0.32849   0.79937   0.07309   0.00000  Uiso   1.00
C324   C     0.36168   0.73656   0.09869   0.00000  Uiso   1.00
C325   C     0.34245   0.67147   0.09071   0.00000  Uiso   1.00
C326   C     0.37923   0.62089   0.11778   0.00000  Uiso   1.00
C327   C     0.42255   0.52123   0.15235   0.00000  Uiso   1.00
C328   C     0.36149   0.83727   0.98663   0.00000  Uiso   1.00
C329   C     0.34211   0.85686   0.88444   0.00000  Uiso   1.00
C330   C     0.37873   0.89108   0.81719   0.00000  Uiso   1.00
C331   C     0.42175   0.94781   0.67781   0.00000  Uiso   1.00
C332   C     0.33049   0.84205   0.17659   0.00000  Uiso   1.00
C333   C     0.28504   0.86567   0.23411   0.00000  Uiso   1.00
C334   C     0.29556   0.90392   0.32677   0.00000  Uiso   1.00
C335   C     0.29044   0.96806   0.48233   0.00000  Uiso   1.00
C336   C     0.42799   0.82530   0.13535   0.00000  Uiso   1.00
C337   C     0.41572   0.75065   0.13251   0.00000  Uiso   1.00
C338   C     0.45254   0.70016   0.15960   0.00000  Uiso   1.00
C339   C     0.43337   0.63500   0.15167   0.00000  Uiso   1.00
C340   C     0.41554   0.85136   0.02045   0.00000  Uiso   1.00
C341   C     0.45220   0.88556   0.95333   0.00000  Uiso   1.00
C342   C     0.43287   0.90519   0.85107   0.00000  Uiso   1.00
C343   C     0.38454   0.85613   0.21041   0.00000  Uiso   1.00
C344   C     0.39513   0.89436   0.30300   0.00000  Uiso   1.00
C345   C     0.34970   0.91803   0.36065   0.00000  Uiso   1.00
H346   H     0.28642   0.78840   0.04675   0.00000  Uiso   1.00
H347   H     0.30063   0.66059   0.06453   0.00000  Uiso   1.00
H348   H     0.30028   0.84596   0.85830   0.00000  Uiso   1.00
H349   H     0.24323   0.85476   0.20791   0.00000  Uiso   1.00
H350   H     0.34022   0.52509   0.09912   0.00000  Uiso   1.00
H351   H     0.33949   0.91598   0.66428   0.00000  Uiso   1.00
H352   H     0.21917   0.93453   0.40151   0.00000  Uiso   1.00
H353   H     0.47007   0.83627   0.16168   0.00000  Uiso   1.00
H354   H     0.49436   0.71108   0.18577   0.00000  Uiso   1.00
H355   H     0.49402   0.89645   0.97954   0.00000  Uiso   1.00
H356   H     0.43696   0.90525   0.32915   0.00000  Uiso   1.00
H357   H     0.49746   0.56607   0.19752   0.00000  Uiso   1.00
H358   H     0.49673   0.95696   0.76268   0.00000  Uiso   1.00
H359   H     0.37641   0.97551   0.49991   0.00000  Uiso   1.00
O360   O     0.43151   0.46236   0.16205   0.00000  Uiso   1.00
O361   O     0.43055   0.97520   0.59158   0.00000  Uiso   1.00
O362   O     0.27269   0.99954   0.55880   0.00000  Uiso   1.00
N363   N     0.37389   0.55192   0.11899   0.00000  Uiso   1.00
N364   N     0.37321   0.91736   0.71244   0.00000  Uiso   1.00
N365   N     0.26072   0.93473   0.40166   0.00000  Uiso   1.00
N366   N     0.45850   0.57397   0.17194   0.00000  Uiso   1.00
N367   N     0.45782   0.93941   0.76539   0.00000  Uiso   1.00
N368   N     0.34533   0.95678   0.45461   0.00000  Uiso   1.00
