data_job_03801
_audit_creation_date              2018-12-19
_audit_creation_method            'Materials Studio'
_symmetry_space_group_name_H-M    'P1'
_symmetry_Int_Tables_number       1
_symmetry_cell_setting            triclinic
loop_
_symmetry_equiv_pos_as_xyz
  x,y,z
_cell_length_a                    14.3637
_cell_length_b                    14.3637
_cell_length_c                    47.3269
_cell_angle_alpha                 90.0000
_cell_angle_beta                  90.0000
_cell_angle_gamma                 120.0000
loop_
_atom_site_label
_atom_site_type_symbol
_atom_site_fract_x
_atom_site_fract_y
_atom_site_fract_z
_atom_site_U_iso_or_equiv
_atom_site_adp_type
_atom_site_occupancy
C1     C     0.69545   0.56837   0.95704   0.00000  Uiso   1.00
C2     C     0.77388   0.57296   0.93461   0.00000  Uiso   1.00
C3     C     0.74797   0.50402   0.91171   0.00000  Uiso   1.00
C4     C     0.83123   0.52152   0.89359   0.00000  Uiso   1.00
C5     C     0.93701   0.51592   0.85808   0.00000  Uiso   1.00
C6     C     0.74059   0.55858   0.98534   0.00000  Uiso   1.00
C7     C     0.68667   0.47754   0.00508   0.00000  Uiso   1.00
C8     C     0.74190   0.48294   0.02967   0.00000  Uiso   1.00
C9     C     0.79595   0.45505   0.07291   0.00000  Uiso   1.00
C10    C     0.70477   0.67889   0.95703   0.00000  Uiso   1.00
C11    C     0.62075   0.69902   0.95298   0.00000  Uiso   1.00
C12    C     0.64582   0.80572   0.95373   0.00000  Uiso   1.00
C13    C     0.64427   0.96462   0.95302   0.00000  Uiso   1.00
C14    C     0.88938   0.72206   0.96560   0.00000  Uiso   1.00
C15    C     0.87922   0.65644   0.93927   0.00000  Uiso   1.00
C16    C     0.96254   0.67406   0.92118   0.00000  Uiso   1.00
C17    C     0.93675   0.60515   0.89825   0.00000  Uiso   1.00
C18    C     0.84592   0.64205   0.98999   0.00000  Uiso   1.00
C19    C     0.90124   0.64758   0.01455   0.00000  Uiso   1.00
C20    C     0.84743   0.56657   0.03433   0.00000  Uiso   1.00
C21    C     0.81011   0.76237   0.96168   0.00000  Uiso   1.00
C22    C     0.83531   0.86905   0.96245   0.00000  Uiso   1.00
C23    C     0.75134   0.88934   0.95839   0.00000  Uiso   1.00
H24    H     0.61344   0.50338   0.95342   0.00000  Uiso   1.00
H25    H     0.66645   0.43942   0.90812   0.00000  Uiso   1.00
H26    H     0.60516   0.41296   0.00148   0.00000  Uiso   1.00
H27    H     0.53924   0.63440   0.94938   0.00000  Uiso   1.00
H28    H     0.77168   0.40530   0.85995   0.00000  Uiso   1.00
H29    H     0.64243   0.34952   0.05681   0.00000  Uiso   1.00
H30    H     0.50343   0.81647   0.94695   0.00000  Uiso   1.00
H31    H     0.97139   0.78705   0.96922   0.00000  Uiso   1.00
H32    H     0.04404   0.73866   0.92479   0.00000  Uiso   1.00
H33    H     0.98275   0.71219   0.01815   0.00000  Uiso   1.00
H34    H     0.91684   0.93363   0.96605   0.00000  Uiso   1.00
H35    H     0.07815   0.64817   0.87348   0.00000  Uiso   1.00
H36    H     0.94889   0.59239   0.07034   0.00000  Uiso   1.00
H37    H     0.80990   0.05934   0.96048   0.00000  Uiso   1.00
O38    O     0.96625   0.48976   0.83721   0.00000  Uiso   1.00
O39    O     0.79667   0.41659   0.09548   0.00000  Uiso   1.00
O40    O     0.61432   0.02921   0.95134   0.00000  Uiso   1.00
N41    N     0.83383   0.46911   0.86923   0.00000  Uiso   1.00
N42    N     0.71299   0.41695   0.05328   0.00000  Uiso   1.00
N43    N     0.58304   0.85351   0.95057   0.00000  Uiso   1.00
N44    N     0.99874   0.59980   0.87651   0.00000  Uiso   1.00
N45    N     0.87790   0.54764   0.06056   0.00000  Uiso   1.00
N46    N     0.74795   0.98420   0.95785   0.00000  Uiso   1.00
C47    C     0.43163   0.12707   0.62370   0.00000  Uiso   1.00
C48    C     0.42704   0.20092   0.60128   0.00000  Uiso   1.00
C49    C     0.49598   0.24395   0.57838   0.00000  Uiso   1.00
C50    C     0.47848   0.30971   0.56026   0.00000  Uiso   1.00
C51    C     0.48408   0.42109   0.52475   0.00000  Uiso   1.00
C52    C     0.44142   0.18201   0.65201   0.00000  Uiso   1.00
C53    C     0.52246   0.20913   0.67175   0.00000  Uiso   1.00
C54    C     0.51706   0.25896   0.69633   0.00000  Uiso   1.00
C55    C     0.54495   0.34091   0.73958   0.00000  Uiso   1.00
C56    C     0.32111   0.02589   0.62370   0.00000  Uiso   1.00
C57    C     0.30098   0.92173   0.61964   0.00000  Uiso   1.00
C58    C     0.19428   0.84010   0.62040   0.00000  Uiso   1.00
C59    C     0.03538   0.67965   0.61969   0.00000  Uiso   1.00
C60    C     0.27794   0.16732   0.63227   0.00000  Uiso   1.00
C61    C     0.34356   0.22278   0.60593   0.00000  Uiso   1.00
C62    C     0.32594   0.28848   0.58785   0.00000  Uiso   1.00
C63    C     0.39485   0.33161   0.56492   0.00000  Uiso   1.00
C64    C     0.35795   0.20387   0.65666   0.00000  Uiso   1.00
C65    C     0.35242   0.25366   0.68122   0.00000  Uiso   1.00
C66    C     0.43343   0.28086   0.70099   0.00000  Uiso   1.00
C67    C     0.23763   0.04774   0.62835   0.00000  Uiso   1.00
C68    C     0.13095   0.96626   0.62911   0.00000  Uiso   1.00
C69    C     0.11066   0.86200   0.62506   0.00000  Uiso   1.00
H70    H     0.49662   0.11006   0.62008   0.00000  Uiso   1.00
H71    H     0.56058   0.22703   0.57478   0.00000  Uiso   1.00
H72    H     0.58704   0.19220   0.66814   0.00000  Uiso   1.00
H73    H     0.36560   0.90484   0.61604   0.00000  Uiso   1.00
H74    H     0.59470   0.36638   0.52662   0.00000  Uiso   1.00
H75    H     0.65048   0.29291   0.72347   0.00000  Uiso   1.00
H76    H     0.18353   0.68696   0.61361   0.00000  Uiso   1.00
H77    H     0.21295   0.18434   0.63589   0.00000  Uiso   1.00
H78    H     0.26134   0.30538   0.59145   0.00000  Uiso   1.00
H79    H     0.28781   0.27056   0.68481   0.00000  Uiso   1.00
H80    H     0.06637   0.98320   0.63271   0.00000  Uiso   1.00
H81    H     0.35183   0.42998   0.54015   0.00000  Uiso   1.00
H82    H     0.40761   0.35651   0.73701   0.00000  Uiso   1.00
H83    H     0.94066   0.75056   0.62714   0.00000  Uiso   1.00
O84    O     0.51024   0.47650   0.50387   0.00000  Uiso   1.00
O85    O     0.58341   0.38008   0.76214   0.00000  Uiso   1.00
O86    O     0.97079   0.58510   0.61801   0.00000  Uiso   1.00
N87    N     0.53089   0.36472   0.53590   0.00000  Uiso   1.00
N88    N     0.58305   0.29604   0.71994   0.00000  Uiso   1.00
N89    N     0.14649   0.72953   0.61724   0.00000  Uiso   1.00
N90    N     0.40020   0.39894   0.54318   0.00000  Uiso   1.00
N91    N     0.45236   0.33027   0.72722   0.00000  Uiso   1.00
N92    N     0.01580   0.76376   0.62452   0.00000  Uiso   1.00
C93    C     0.87293   0.30455   0.29037   0.00000  Uiso   1.00
C94    C     0.79908   0.22612   0.26795   0.00000  Uiso   1.00
C95    C     0.75605   0.25203   0.24504   0.00000  Uiso   1.00
C96    C     0.69029   0.16877   0.22693   0.00000  Uiso   1.00
C97    C     0.57891   0.06299   0.19141   0.00000  Uiso   1.00
C98    C     0.81799   0.25941   0.31867   0.00000  Uiso   1.00
C99    C     0.79087   0.31333   0.33841   0.00000  Uiso   1.00
C100   C     0.74104   0.25810   0.36300   0.00000  Uiso   1.00
C101   C     0.65909   0.20405   0.40624   0.00000  Uiso   1.00
C102   C     0.97411   0.29523   0.29036   0.00000  Uiso   1.00
C103   C     0.07827   0.37925   0.28631   0.00000  Uiso   1.00
C104   C     0.15990   0.35418   0.28707   0.00000  Uiso   1.00
C105   C     0.32035   0.35573   0.28635   0.00000  Uiso   1.00
C106   C     0.83268   0.11062   0.29893   0.00000  Uiso   1.00
C107   C     0.77722   0.12078   0.27260   0.00000  Uiso   1.00
C108   C     0.71152   0.03746   0.25452   0.00000  Uiso   1.00
C109   C     0.66839   0.06325   0.23159   0.00000  Uiso   1.00
C110   C     0.79613   0.15408   0.32332   0.00000  Uiso   1.00
C111   C     0.74634   0.09876   0.34789   0.00000  Uiso   1.00
C112   C     0.71914   0.15257   0.36766   0.00000  Uiso   1.00
C113   C     0.95226   0.18989   0.29501   0.00000  Uiso   1.00
C114   C     0.03374   0.16469   0.29578   0.00000  Uiso   1.00
C115   C     0.13800   0.24866   0.29173   0.00000  Uiso   1.00
H116   H     0.88994   0.38656   0.28675   0.00000  Uiso   1.00
H117   H     0.77297   0.33355   0.24145   0.00000  Uiso   1.00
H118   H     0.80780   0.39484   0.33481   0.00000  Uiso   1.00
H119   H     0.09516   0.46076   0.28271   0.00000  Uiso   1.00
H120   H     0.63362   0.22832   0.19328   0.00000  Uiso   1.00
H121   H     0.70709   0.35757   0.39014   0.00000  Uiso   1.00
H122   H     0.31304   0.49657   0.28028   0.00000  Uiso   1.00
H123   H     0.81566   0.02861   0.30256   0.00000  Uiso   1.00
H124   H     0.69462   0.95596   0.25812   0.00000  Uiso   1.00
H125   H     0.72944   0.01725   0.35148   0.00000  Uiso   1.00
H126   H     0.01680   0.08316   0.29938   0.00000  Uiso   1.00
H127   H     0.57002   0.92185   0.20682   0.00000  Uiso   1.00
H128   H     0.64349   0.05111   0.40367   0.00000  Uiso   1.00
H129   H     0.24944   0.19010   0.29381   0.00000  Uiso   1.00
O130   O     0.52350   0.03375   0.17054   0.00000  Uiso   1.00
O131   O     0.61992   0.20333   0.42881   0.00000  Uiso   1.00
O132   O     0.41490   0.38568   0.28467   0.00000  Uiso   1.00
N133   N     0.63528   0.16617   0.20256   0.00000  Uiso   1.00
N134   N     0.70396   0.28701   0.38661   0.00000  Uiso   1.00
N135   N     0.27047   0.41696   0.28391   0.00000  Uiso   1.00
N136   N     0.60106   0.00126   0.20984   0.00000  Uiso   1.00
N137   N     0.66973   0.12210   0.39389   0.00000  Uiso   1.00
N138   N     0.23624   0.25205   0.29119   0.00000  Uiso   1.00
C139   C     0.30455   0.43163   0.45704   0.00000  Uiso   1.00
C140   C     0.22612   0.42704   0.43461   0.00000  Uiso   1.00
C141   C     0.25203   0.49598   0.41171   0.00000  Uiso   1.00
C142   C     0.16877   0.47848   0.39359   0.00000  Uiso   1.00
C143   C     0.06299   0.48408   0.35808   0.00000  Uiso   1.00
C144   C     0.25941   0.44142   0.48534   0.00000  Uiso   1.00
C145   C     0.31333   0.52246   0.50508   0.00000  Uiso   1.00
C146   C     0.25810   0.51706   0.52967   0.00000  Uiso   1.00
C147   C     0.20405   0.54495   0.57291   0.00000  Uiso   1.00
C148   C     0.29523   0.32111   0.45703   0.00000  Uiso   1.00
C149   C     0.37925   0.30098   0.45298   0.00000  Uiso   1.00
C150   C     0.35418   0.19428   0.45373   0.00000  Uiso   1.00
C151   C     0.35573   0.03538   0.45302   0.00000  Uiso   1.00
C152   C     0.11062   0.27794   0.46560   0.00000  Uiso   1.00
C153   C     0.12078   0.34356   0.43927   0.00000  Uiso   1.00
C154   C     0.03746   0.32594   0.42118   0.00000  Uiso   1.00
C155   C     0.06325   0.39485   0.39825   0.00000  Uiso   1.00
C156   C     0.15408   0.35795   0.48999   0.00000  Uiso   1.00
C157   C     0.09876   0.35242   0.51455   0.00000  Uiso   1.00
C158   C     0.15257   0.43343   0.53433   0.00000  Uiso   1.00
C159   C     0.18989   0.23763   0.46168   0.00000  Uiso   1.00
C160   C     0.16469   0.13095   0.46245   0.00000  Uiso   1.00
C161   C     0.24866   0.11066   0.45839   0.00000  Uiso   1.00
H162   H     0.38656   0.49662   0.45342   0.00000  Uiso   1.00
H163   H     0.33355   0.56058   0.40812   0.00000  Uiso   1.00
H164   H     0.39484   0.58704   0.50148   0.00000  Uiso   1.00
H165   H     0.46076   0.36560   0.44938   0.00000  Uiso   1.00
H166   H     0.22832   0.59470   0.35995   0.00000  Uiso   1.00
H167   H     0.35757   0.65048   0.55681   0.00000  Uiso   1.00
H168   H     0.49657   0.18353   0.44695   0.00000  Uiso   1.00
H169   H     0.02861   0.21295   0.46922   0.00000  Uiso   1.00
H170   H     0.95596   0.26134   0.42479   0.00000  Uiso   1.00
H171   H     0.01725   0.28781   0.51815   0.00000  Uiso   1.00
H172   H     0.08316   0.06637   0.46605   0.00000  Uiso   1.00
H173   H     0.92185   0.35183   0.37348   0.00000  Uiso   1.00
H174   H     0.05111   0.40761   0.57034   0.00000  Uiso   1.00
H175   H     0.19010   0.94066   0.46048   0.00000  Uiso   1.00
O176   O     0.03375   0.51024   0.33721   0.00000  Uiso   1.00
O177   O     0.20333   0.58341   0.59548   0.00000  Uiso   1.00
O178   O     0.38568   0.97079   0.45134   0.00000  Uiso   1.00
N179   N     0.16617   0.53089   0.36923   0.00000  Uiso   1.00
N180   N     0.28701   0.58305   0.55328   0.00000  Uiso   1.00
N181   N     0.41696   0.14649   0.45057   0.00000  Uiso   1.00
N182   N     0.00126   0.40020   0.37651   0.00000  Uiso   1.00
N183   N     0.12210   0.45236   0.56056   0.00000  Uiso   1.00
N184   N     0.25205   0.01580   0.45785   0.00000  Uiso   1.00
C185   C     0.56837   0.87293   0.12370   0.00000  Uiso   1.00
C186   C     0.57296   0.79908   0.10128   0.00000  Uiso   1.00
C187   C     0.50402   0.75605   0.07838   0.00000  Uiso   1.00
C188   C     0.52152   0.69029   0.06026   0.00000  Uiso   1.00
C189   C     0.51592   0.57891   0.02475   0.00000  Uiso   1.00
C190   C     0.55858   0.81799   0.15201   0.00000  Uiso   1.00
C191   C     0.47754   0.79087   0.17175   0.00000  Uiso   1.00
C192   C     0.48294   0.74104   0.19633   0.00000  Uiso   1.00
C193   C     0.45505   0.65909   0.23958   0.00000  Uiso   1.00
C194   C     0.67889   0.97411   0.12370   0.00000  Uiso   1.00
C195   C     0.69902   0.07827   0.11964   0.00000  Uiso   1.00
C196   C     0.80572   0.15990   0.12040   0.00000  Uiso   1.00
C197   C     0.96462   0.32035   0.11969   0.00000  Uiso   1.00
C198   C     0.72206   0.83268   0.13227   0.00000  Uiso   1.00
C199   C     0.65644   0.77722   0.10593   0.00000  Uiso   1.00
C200   C     0.67406   0.71152   0.08785   0.00000  Uiso   1.00
C201   C     0.60515   0.66839   0.06492   0.00000  Uiso   1.00
C202   C     0.64205   0.79613   0.15666   0.00000  Uiso   1.00
C203   C     0.64758   0.74634   0.18122   0.00000  Uiso   1.00
C204   C     0.56657   0.71914   0.20099   0.00000  Uiso   1.00
C205   C     0.76237   0.95226   0.12835   0.00000  Uiso   1.00
C206   C     0.86905   0.03374   0.12911   0.00000  Uiso   1.00
C207   C     0.88934   0.13800   0.12506   0.00000  Uiso   1.00
H208   H     0.50338   0.88994   0.12008   0.00000  Uiso   1.00
H209   H     0.43942   0.77297   0.07478   0.00000  Uiso   1.00
H210   H     0.41296   0.80780   0.16814   0.00000  Uiso   1.00
H211   H     0.63440   0.09516   0.11604   0.00000  Uiso   1.00
H212   H     0.40530   0.63362   0.02662   0.00000  Uiso   1.00
H213   H     0.34952   0.70709   0.22347   0.00000  Uiso   1.00
H214   H     0.81647   0.31304   0.11361   0.00000  Uiso   1.00
H215   H     0.78705   0.81566   0.13589   0.00000  Uiso   1.00
H216   H     0.73866   0.69462   0.09145   0.00000  Uiso   1.00
H217   H     0.71219   0.72944   0.18481   0.00000  Uiso   1.00
H218   H     0.93363   0.01680   0.13271   0.00000  Uiso   1.00
H219   H     0.64817   0.57002   0.04015   0.00000  Uiso   1.00
H220   H     0.59239   0.64349   0.23701   0.00000  Uiso   1.00
H221   H     0.05934   0.24944   0.12714   0.00000  Uiso   1.00
O222   O     0.48976   0.52350   0.00387   0.00000  Uiso   1.00
O223   O     0.41659   0.61992   0.26214   0.00000  Uiso   1.00
O224   O     0.02921   0.41490   0.11801   0.00000  Uiso   1.00
N225   N     0.46911   0.63528   0.03590   0.00000  Uiso   1.00
N226   N     0.41695   0.70396   0.21994   0.00000  Uiso   1.00
N227   N     0.85351   0.27047   0.11724   0.00000  Uiso   1.00
N228   N     0.59980   0.60106   0.04318   0.00000  Uiso   1.00
N229   N     0.54764   0.66973   0.22722   0.00000  Uiso   1.00
N230   N     0.98420   0.23624   0.12452   0.00000  Uiso   1.00
C231   C     0.12707   0.69545   0.79037   0.00000  Uiso   1.00
C232   C     0.20092   0.77388   0.76795   0.00000  Uiso   1.00
C233   C     0.24395   0.74797   0.74504   0.00000  Uiso   1.00
C234   C     0.30971   0.83123   0.72693   0.00000  Uiso   1.00
C235   C     0.42109   0.93701   0.69141   0.00000  Uiso   1.00
C236   C     0.18201   0.74059   0.81867   0.00000  Uiso   1.00
C237   C     0.20913   0.68667   0.83841   0.00000  Uiso   1.00
C238   C     0.25896   0.74190   0.86300   0.00000  Uiso   1.00
C239   C     0.34091   0.79595   0.90624   0.00000  Uiso   1.00
C240   C     0.02589   0.70477   0.79036   0.00000  Uiso   1.00
C241   C     0.92173   0.62075   0.78631   0.00000  Uiso   1.00
C242   C     0.84010   0.64582   0.78707   0.00000  Uiso   1.00
C243   C     0.67965   0.64427   0.78635   0.00000  Uiso   1.00
C244   C     0.16732   0.88938   0.79893   0.00000  Uiso   1.00
C245   C     0.22278   0.87922   0.77260   0.00000  Uiso   1.00
C246   C     0.28848   0.96254   0.75452   0.00000  Uiso   1.00
C247   C     0.33161   0.93675   0.73159   0.00000  Uiso   1.00
C248   C     0.20387   0.84592   0.82332   0.00000  Uiso   1.00
C249   C     0.25366   0.90124   0.84789   0.00000  Uiso   1.00
C250   C     0.28086   0.84743   0.86766   0.00000  Uiso   1.00
C251   C     0.04774   0.81011   0.79501   0.00000  Uiso   1.00
C252   C     0.96626   0.83531   0.79578   0.00000  Uiso   1.00
C253   C     0.86200   0.75134   0.79173   0.00000  Uiso   1.00
H254   H     0.11006   0.61344   0.78675   0.00000  Uiso   1.00
H255   H     0.22703   0.66645   0.74145   0.00000  Uiso   1.00
H256   H     0.19220   0.60516   0.83481   0.00000  Uiso   1.00
H257   H     0.90484   0.53924   0.78271   0.00000  Uiso   1.00
H258   H     0.36638   0.77168   0.69328   0.00000  Uiso   1.00
H259   H     0.29291   0.64243   0.89014   0.00000  Uiso   1.00
H260   H     0.68696   0.50343   0.78028   0.00000  Uiso   1.00
H261   H     0.18434   0.97139   0.80256   0.00000  Uiso   1.00
H262   H     0.30538   0.04404   0.75812   0.00000  Uiso   1.00
H263   H     0.27056   0.98275   0.85148   0.00000  Uiso   1.00
H264   H     0.98320   0.91684   0.79938   0.00000  Uiso   1.00
H265   H     0.42998   0.07815   0.70682   0.00000  Uiso   1.00
H266   H     0.35651   0.94889   0.90367   0.00000  Uiso   1.00
H267   H     0.75056   0.80990   0.79381   0.00000  Uiso   1.00
O268   O     0.47650   0.96625   0.67054   0.00000  Uiso   1.00
O269   O     0.38008   0.79667   0.92881   0.00000  Uiso   1.00
O270   O     0.58510   0.61432   0.78467   0.00000  Uiso   1.00
N271   N     0.36472   0.83383   0.70256   0.00000  Uiso   1.00
N272   N     0.29604   0.71299   0.88661   0.00000  Uiso   1.00
N273   N     0.72953   0.58304   0.78391   0.00000  Uiso   1.00
N274   N     0.39894   0.99874   0.70984   0.00000  Uiso   1.00
N275   N     0.33027   0.87790   0.89389   0.00000  Uiso   1.00
N276   N     0.76376   0.74795   0.79119   0.00000  Uiso   1.00
C277   C     0.56837   0.69545   0.70963   0.00000  Uiso   1.00
C278   C     0.57296   0.77388   0.73205   0.00000  Uiso   1.00
C279   C     0.50402   0.74797   0.75496   0.00000  Uiso   1.00
C280   C     0.52152   0.83123   0.77307   0.00000  Uiso   1.00
C281   C     0.51592   0.93701   0.80859   0.00000  Uiso   1.00
C282   C     0.55858   0.74059   0.68133   0.00000  Uiso   1.00
C283   C     0.47754   0.68667   0.66159   0.00000  Uiso   1.00
C284   C     0.48294   0.74190   0.63700   0.00000  Uiso   1.00
C285   C     0.45505   0.79595   0.59376   0.00000  Uiso   1.00
C286   C     0.67889   0.70477   0.70964   0.00000  Uiso   1.00
C287   C     0.69902   0.62075   0.71369   0.00000  Uiso   1.00
C288   C     0.80572   0.64582   0.71293   0.00000  Uiso   1.00
C289   C     0.96462   0.64427   0.71365   0.00000  Uiso   1.00
C290   C     0.72206   0.88938   0.70107   0.00000  Uiso   1.00
C291   C     0.65644   0.87922   0.72740   0.00000  Uiso   1.00
C292   C     0.67406   0.96254   0.74548   0.00000  Uiso   1.00
C293   C     0.60515   0.93675   0.76841   0.00000  Uiso   1.00
C294   C     0.64205   0.84592   0.67668   0.00000  Uiso   1.00
C295   C     0.64758   0.90124   0.65211   0.00000  Uiso   1.00
C296   C     0.56657   0.84743   0.63234   0.00000  Uiso   1.00
C297   C     0.76237   0.81011   0.70499   0.00000  Uiso   1.00
C298   C     0.86905   0.83531   0.70422   0.00000  Uiso   1.00
C299   C     0.88934   0.75134   0.70827   0.00000  Uiso   1.00
H300   H     0.50338   0.61344   0.71325   0.00000  Uiso   1.00
H301   H     0.43942   0.66645   0.75855   0.00000  Uiso   1.00
H302   H     0.41296   0.60516   0.66519   0.00000  Uiso   1.00
H303   H     0.63440   0.53924   0.71729   0.00000  Uiso   1.00
H304   H     0.40530   0.77168   0.80672   0.00000  Uiso   1.00
H305   H     0.34952   0.64243   0.60986   0.00000  Uiso   1.00
H306   H     0.81647   0.50343   0.71972   0.00000  Uiso   1.00
H307   H     0.78705   0.97139   0.69744   0.00000  Uiso   1.00
H308   H     0.73866   0.04404   0.74188   0.00000  Uiso   1.00
H309   H     0.71219   0.98275   0.64852   0.00000  Uiso   1.00
H310   H     0.93363   0.91684   0.70062   0.00000  Uiso   1.00
H311   H     0.64817   0.07815   0.79318   0.00000  Uiso   1.00
H312   H     0.59239   0.94889   0.59633   0.00000  Uiso   1.00
H313   H     0.05934   0.80990   0.70619   0.00000  Uiso   1.00
O314   O     0.48976   0.96625   0.82946   0.00000  Uiso   1.00
O315   O     0.41659   0.79667   0.57119   0.00000  Uiso   1.00
O316   O     0.02921   0.61432   0.71533   0.00000  Uiso   1.00
N317   N     0.46911   0.83383   0.79744   0.00000  Uiso   1.00
N318   N     0.41695   0.71299   0.61339   0.00000  Uiso   1.00
N319   N     0.85351   0.58304   0.71609   0.00000  Uiso   1.00
N320   N     0.59980   0.99874   0.79016   0.00000  Uiso   1.00
N321   N     0.54764   0.87790   0.60611   0.00000  Uiso   1.00
N322   N     0.98420   0.74795   0.70881   0.00000  Uiso   1.00
C323   C     0.12707   0.43163   0.04296   0.00000  Uiso   1.00
C324   C     0.20092   0.42704   0.06539   0.00000  Uiso   1.00
C325   C     0.24395   0.49598   0.08829   0.00000  Uiso   1.00
C326   C     0.30971   0.47848   0.10641   0.00000  Uiso   1.00
C327   C     0.42109   0.48408   0.14192   0.00000  Uiso   1.00
C328   C     0.18201   0.44142   0.01466   0.00000  Uiso   1.00
C329   C     0.20913   0.52246   0.99492   0.00000  Uiso   1.00
C330   C     0.25896   0.51706   0.97033   0.00000  Uiso   1.00
C331   C     0.34091   0.54495   0.92709   0.00000  Uiso   1.00
C332   C     0.02589   0.32111   0.04297   0.00000  Uiso   1.00
C333   C     0.92173   0.30098   0.04702   0.00000  Uiso   1.00
C334   C     0.84010   0.19428   0.04627   0.00000  Uiso   1.00
C335   C     0.67965   0.03538   0.04698   0.00000  Uiso   1.00
C336   C     0.16732   0.27794   0.03440   0.00000  Uiso   1.00
C337   C     0.22278   0.34356   0.06073   0.00000  Uiso   1.00
C338   C     0.28848   0.32594   0.07882   0.00000  Uiso   1.00
C339   C     0.33161   0.39485   0.10175   0.00000  Uiso   1.00
C340   C     0.20387   0.35795   0.01001   0.00000  Uiso   1.00
C341   C     0.25366   0.35242   0.98545   0.00000  Uiso   1.00
C342   C     0.28086   0.43343   0.96567   0.00000  Uiso   1.00
C343   C     0.04774   0.23763   0.03832   0.00000  Uiso   1.00
C344   C     0.96626   0.13095   0.03755   0.00000  Uiso   1.00
C345   C     0.86200   0.11066   0.04161   0.00000  Uiso   1.00
H346   H     0.11006   0.49662   0.04658   0.00000  Uiso   1.00
H347   H     0.22703   0.56058   0.09188   0.00000  Uiso   1.00
H348   H     0.19220   0.58704   0.99852   0.00000  Uiso   1.00
H349   H     0.90484   0.36560   0.05062   0.00000  Uiso   1.00
H350   H     0.36638   0.59470   0.14005   0.00000  Uiso   1.00
H351   H     0.29291   0.65048   0.94319   0.00000  Uiso   1.00
H352   H     0.68696   0.18353   0.05305   0.00000  Uiso   1.00
H353   H     0.18434   0.21295   0.03078   0.00000  Uiso   1.00
H354   H     0.30538   0.26134   0.07521   0.00000  Uiso   1.00
H355   H     0.27056   0.28781   0.98185   0.00000  Uiso   1.00
H356   H     0.98320   0.06637   0.03395   0.00000  Uiso   1.00
H357   H     0.42998   0.35183   0.12652   0.00000  Uiso   1.00
H358   H     0.35651   0.40761   0.92966   0.00000  Uiso   1.00
H359   H     0.75056   0.94066   0.03952   0.00000  Uiso   1.00
O360   O     0.47650   0.51024   0.16279   0.00000  Uiso   1.00
O361   O     0.38008   0.58341   0.90452   0.00000  Uiso   1.00
O362   O     0.58510   0.97079   0.04866   0.00000  Uiso   1.00
N363   N     0.36472   0.53089   0.13077   0.00000  Uiso   1.00
N364   N     0.29604   0.58305   0.94672   0.00000  Uiso   1.00
N365   N     0.72953   0.14649   0.04943   0.00000  Uiso   1.00
N366   N     0.39894   0.40020   0.12349   0.00000  Uiso   1.00
N367   N     0.33027   0.45236   0.93944   0.00000  Uiso   1.00
N368   N     0.76376   0.01580   0.04215   0.00000  Uiso   1.00
C369   C     0.30455   0.87293   0.37630   0.00000  Uiso   1.00
C370   C     0.22612   0.79908   0.39872   0.00000  Uiso   1.00
C371   C     0.25203   0.75605   0.42162   0.00000  Uiso   1.00
C372   C     0.16877   0.69029   0.43974   0.00000  Uiso   1.00
C373   C     0.06299   0.57891   0.47525   0.00000  Uiso   1.00
C374   C     0.25941   0.81799   0.34799   0.00000  Uiso   1.00
C375   C     0.31333   0.79087   0.32825   0.00000  Uiso   1.00
C376   C     0.25810   0.74104   0.30367   0.00000  Uiso   1.00
C377   C     0.20405   0.65909   0.26042   0.00000  Uiso   1.00
C378   C     0.29523   0.97411   0.37630   0.00000  Uiso   1.00
C379   C     0.37925   0.07827   0.38036   0.00000  Uiso   1.00
C380   C     0.35418   0.15990   0.37960   0.00000  Uiso   1.00
C381   C     0.35573   0.32035   0.38031   0.00000  Uiso   1.00
C382   C     0.11062   0.83268   0.36773   0.00000  Uiso   1.00
C383   C     0.12078   0.77722   0.39407   0.00000  Uiso   1.00
C384   C     0.03746   0.71152   0.41215   0.00000  Uiso   1.00
C385   C     0.06325   0.66839   0.43508   0.00000  Uiso   1.00
C386   C     0.15408   0.79613   0.34334   0.00000  Uiso   1.00
C387   C     0.09876   0.74634   0.31878   0.00000  Uiso   1.00
C388   C     0.15257   0.71914   0.29901   0.00000  Uiso   1.00
C389   C     0.18989   0.95226   0.37165   0.00000  Uiso   1.00
C390   C     0.16469   0.03374   0.37089   0.00000  Uiso   1.00
C391   C     0.24866   0.13800   0.37494   0.00000  Uiso   1.00
H392   H     0.38656   0.88994   0.37992   0.00000  Uiso   1.00
H393   H     0.33355   0.77297   0.42522   0.00000  Uiso   1.00
H394   H     0.39484   0.80780   0.33186   0.00000  Uiso   1.00
H395   H     0.46076   0.09516   0.38396   0.00000  Uiso   1.00
H396   H     0.22832   0.63362   0.47338   0.00000  Uiso   1.00
H397   H     0.35757   0.70709   0.27653   0.00000  Uiso   1.00
H398   H     0.49657   0.31304   0.38639   0.00000  Uiso   1.00
H399   H     0.02861   0.81566   0.36411   0.00000  Uiso   1.00
H400   H     0.95596   0.69462   0.40855   0.00000  Uiso   1.00
H401   H     0.01725   0.72944   0.31519   0.00000  Uiso   1.00
H402   H     0.08316   0.01680   0.36729   0.00000  Uiso   1.00
H403   H     0.92185   0.57002   0.45985   0.00000  Uiso   1.00
H404   H     0.05111   0.64349   0.26299   0.00000  Uiso   1.00
H405   H     0.19010   0.24944   0.37286   0.00000  Uiso   1.00
O406   O     0.03375   0.52350   0.49613   0.00000  Uiso   1.00
O407   O     0.20333   0.61992   0.23786   0.00000  Uiso   1.00
O408   O     0.38568   0.41490   0.38199   0.00000  Uiso   1.00
N409   N     0.16617   0.63528   0.46410   0.00000  Uiso   1.00
N410   N     0.28701   0.70396   0.28006   0.00000  Uiso   1.00
N411   N     0.41696   0.27047   0.38276   0.00000  Uiso   1.00
N412   N     0.00126   0.60106   0.45682   0.00000  Uiso   1.00
N413   N     0.12210   0.66973   0.27278   0.00000  Uiso   1.00
N414   N     0.25205   0.23624   0.37548   0.00000  Uiso   1.00
C415   C     0.43163   0.30455   0.20963   0.00000  Uiso   1.00
C416   C     0.42704   0.22612   0.23205   0.00000  Uiso   1.00
C417   C     0.49598   0.25203   0.25496   0.00000  Uiso   1.00
C418   C     0.47848   0.16877   0.27307   0.00000  Uiso   1.00
C419   C     0.48408   0.06299   0.30859   0.00000  Uiso   1.00
C420   C     0.44142   0.25941   0.18133   0.00000  Uiso   1.00
C421   C     0.52246   0.31333   0.16159   0.00000  Uiso   1.00
C422   C     0.51706   0.25810   0.13700   0.00000  Uiso   1.00
C423   C     0.54495   0.20405   0.09376   0.00000  Uiso   1.00
C424   C     0.32111   0.29523   0.20964   0.00000  Uiso   1.00
C425   C     0.30098   0.37925   0.21369   0.00000  Uiso   1.00
C426   C     0.19428   0.35418   0.21293   0.00000  Uiso   1.00
C427   C     0.03538   0.35573   0.21365   0.00000  Uiso   1.00
C428   C     0.27794   0.11062   0.20107   0.00000  Uiso   1.00
C429   C     0.34356   0.12078   0.22740   0.00000  Uiso   1.00
C430   C     0.32594   0.03746   0.24548   0.00000  Uiso   1.00
C431   C     0.39485   0.06325   0.26841   0.00000  Uiso   1.00
C432   C     0.35795   0.15408   0.17668   0.00000  Uiso   1.00
C433   C     0.35242   0.09876   0.15211   0.00000  Uiso   1.00
C434   C     0.43343   0.15257   0.13234   0.00000  Uiso   1.00
C435   C     0.23763   0.18989   0.20499   0.00000  Uiso   1.00
C436   C     0.13095   0.16469   0.20422   0.00000  Uiso   1.00
C437   C     0.11066   0.24866   0.20827   0.00000  Uiso   1.00
H438   H     0.49662   0.38656   0.21325   0.00000  Uiso   1.00
H439   H     0.56058   0.33355   0.25855   0.00000  Uiso   1.00
H440   H     0.58704   0.39484   0.16519   0.00000  Uiso   1.00
H441   H     0.36560   0.46076   0.21729   0.00000  Uiso   1.00
H442   H     0.59470   0.22832   0.30672   0.00000  Uiso   1.00
H443   H     0.65048   0.35757   0.10986   0.00000  Uiso   1.00
H444   H     0.18353   0.49657   0.21972   0.00000  Uiso   1.00
H445   H     0.21295   0.02861   0.19744   0.00000  Uiso   1.00
H446   H     0.26134   0.95596   0.24188   0.00000  Uiso   1.00
H447   H     0.28781   0.01725   0.14852   0.00000  Uiso   1.00
H448   H     0.06637   0.08316   0.20062   0.00000  Uiso   1.00
H449   H     0.35183   0.92185   0.29318   0.00000  Uiso   1.00
H450   H     0.40761   0.05111   0.09633   0.00000  Uiso   1.00
H451   H     0.94066   0.19010   0.20619   0.00000  Uiso   1.00
O452   O     0.51024   0.03375   0.32946   0.00000  Uiso   1.00
O453   O     0.58341   0.20333   0.07119   0.00000  Uiso   1.00
O454   O     0.97079   0.38568   0.21533   0.00000  Uiso   1.00
N455   N     0.53089   0.16617   0.29744   0.00000  Uiso   1.00
N456   N     0.58305   0.28701   0.11339   0.00000  Uiso   1.00
N457   N     0.14649   0.41696   0.21609   0.00000  Uiso   1.00
N458   N     0.40020   0.00126   0.29016   0.00000  Uiso   1.00
N459   N     0.45236   0.12210   0.10611   0.00000  Uiso   1.00
N460   N     0.01580   0.25205   0.20881   0.00000  Uiso   1.00
C461   C     0.87293   0.56837   0.54296   0.00000  Uiso   1.00
C462   C     0.79908   0.57296   0.56539   0.00000  Uiso   1.00
C463   C     0.75605   0.50402   0.58829   0.00000  Uiso   1.00
C464   C     0.69029   0.52152   0.60641   0.00000  Uiso   1.00
C465   C     0.57891   0.51592   0.64192   0.00000  Uiso   1.00
C466   C     0.81799   0.55858   0.51466   0.00000  Uiso   1.00
C467   C     0.79087   0.47754   0.49492   0.00000  Uiso   1.00
C468   C     0.74104   0.48294   0.47033   0.00000  Uiso   1.00
C469   C     0.65909   0.45505   0.42709   0.00000  Uiso   1.00
C470   C     0.97411   0.67889   0.54297   0.00000  Uiso   1.00
C471   C     0.07827   0.69902   0.54702   0.00000  Uiso   1.00
C472   C     0.15990   0.80572   0.54627   0.00000  Uiso   1.00
C473   C     0.32035   0.96462   0.54698   0.00000  Uiso   1.00
C474   C     0.83268   0.72206   0.53440   0.00000  Uiso   1.00
C475   C     0.77722   0.65644   0.56073   0.00000  Uiso   1.00
C476   C     0.71152   0.67406   0.57882   0.00000  Uiso   1.00
C477   C     0.66839   0.60515   0.60175   0.00000  Uiso   1.00
C478   C     0.79613   0.64205   0.51001   0.00000  Uiso   1.00
C479   C     0.74634   0.64758   0.48545   0.00000  Uiso   1.00
C480   C     0.71914   0.56657   0.46567   0.00000  Uiso   1.00
C481   C     0.95226   0.76237   0.53832   0.00000  Uiso   1.00
C482   C     0.03374   0.86905   0.53755   0.00000  Uiso   1.00
C483   C     0.13800   0.88934   0.54161   0.00000  Uiso   1.00
H484   H     0.88994   0.50338   0.54658   0.00000  Uiso   1.00
H485   H     0.77297   0.43942   0.59188   0.00000  Uiso   1.00
H486   H     0.80780   0.41296   0.49852   0.00000  Uiso   1.00
H487   H     0.09516   0.63440   0.55062   0.00000  Uiso   1.00
H488   H     0.63362   0.40530   0.64005   0.00000  Uiso   1.00
H489   H     0.70709   0.34952   0.44319   0.00000  Uiso   1.00
H490   H     0.31304   0.81647   0.55305   0.00000  Uiso   1.00
H491   H     0.81566   0.78705   0.53078   0.00000  Uiso   1.00
H492   H     0.69462   0.73866   0.57521   0.00000  Uiso   1.00
H493   H     0.72944   0.71219   0.48185   0.00000  Uiso   1.00
H494   H     0.01680   0.93363   0.53395   0.00000  Uiso   1.00
H495   H     0.57002   0.64817   0.62652   0.00000  Uiso   1.00
H496   H     0.64349   0.59239   0.42966   0.00000  Uiso   1.00
H497   H     0.24944   0.05934   0.53952   0.00000  Uiso   1.00
O498   O     0.52350   0.48976   0.66279   0.00000  Uiso   1.00
O499   O     0.61992   0.41659   0.40452   0.00000  Uiso   1.00
O500   O     0.41490   0.02921   0.54866   0.00000  Uiso   1.00
N501   N     0.63528   0.46911   0.63077   0.00000  Uiso   1.00
N502   N     0.70396   0.41695   0.44672   0.00000  Uiso   1.00
N503   N     0.27047   0.85351   0.54943   0.00000  Uiso   1.00
N504   N     0.60106   0.59980   0.62349   0.00000  Uiso   1.00
N505   N     0.66973   0.54764   0.43944   0.00000  Uiso   1.00
N506   N     0.23624   0.98420   0.54215   0.00000  Uiso   1.00
C507   C     0.69545   0.12707   0.87630   0.00000  Uiso   1.00
C508   C     0.77388   0.20092   0.89872   0.00000  Uiso   1.00
C509   C     0.74797   0.24395   0.92162   0.00000  Uiso   1.00
C510   C     0.83123   0.30971   0.93974   0.00000  Uiso   1.00
C511   C     0.93701   0.42109   0.97525   0.00000  Uiso   1.00
C512   C     0.74059   0.18201   0.84799   0.00000  Uiso   1.00
C513   C     0.68667   0.20913   0.82825   0.00000  Uiso   1.00
C514   C     0.74190   0.25896   0.80367   0.00000  Uiso   1.00
C515   C     0.79595   0.34091   0.76042   0.00000  Uiso   1.00
C516   C     0.70477   0.02589   0.87630   0.00000  Uiso   1.00
C517   C     0.62075   0.92173   0.88036   0.00000  Uiso   1.00
C518   C     0.64582   0.84010   0.87960   0.00000  Uiso   1.00
C519   C     0.64427   0.67965   0.88031   0.00000  Uiso   1.00
C520   C     0.88938   0.16732   0.86773   0.00000  Uiso   1.00
C521   C     0.87922   0.22278   0.89407   0.00000  Uiso   1.00
C522   C     0.96254   0.28848   0.91215   0.00000  Uiso   1.00
C523   C     0.93675   0.33161   0.93508   0.00000  Uiso   1.00
C524   C     0.84592   0.20387   0.84334   0.00000  Uiso   1.00
C525   C     0.90124   0.25366   0.81878   0.00000  Uiso   1.00
C526   C     0.84743   0.28086   0.79901   0.00000  Uiso   1.00
C527   C     0.81011   0.04774   0.87165   0.00000  Uiso   1.00
C528   C     0.83531   0.96626   0.87089   0.00000  Uiso   1.00
C529   C     0.75134   0.86200   0.87494   0.00000  Uiso   1.00
H530   H     0.61344   0.11006   0.87992   0.00000  Uiso   1.00
H531   H     0.66645   0.22703   0.92522   0.00000  Uiso   1.00
H532   H     0.60516   0.19220   0.83186   0.00000  Uiso   1.00
H533   H     0.53924   0.90484   0.88396   0.00000  Uiso   1.00
H534   H     0.77168   0.36638   0.97338   0.00000  Uiso   1.00
H535   H     0.64243   0.29291   0.77653   0.00000  Uiso   1.00
H536   H     0.50343   0.68696   0.88639   0.00000  Uiso   1.00
H537   H     0.97139   0.18434   0.86411   0.00000  Uiso   1.00
H538   H     0.04404   0.30538   0.90855   0.00000  Uiso   1.00
H539   H     0.98275   0.27056   0.81519   0.00000  Uiso   1.00
H540   H     0.91684   0.98320   0.86729   0.00000  Uiso   1.00
H541   H     0.07815   0.42998   0.95985   0.00000  Uiso   1.00
H542   H     0.94889   0.35651   0.76299   0.00000  Uiso   1.00
H543   H     0.80990   0.75056   0.87286   0.00000  Uiso   1.00
O544   O     0.96625   0.47650   0.99613   0.00000  Uiso   1.00
O545   O     0.79667   0.38008   0.73786   0.00000  Uiso   1.00
O546   O     0.61432   0.58510   0.88199   0.00000  Uiso   1.00
N547   N     0.83383   0.36472   0.96410   0.00000  Uiso   1.00
N548   N     0.71299   0.29604   0.78006   0.00000  Uiso   1.00
N549   N     0.58304   0.72953   0.88276   0.00000  Uiso   1.00
N550   N     0.99874   0.39894   0.95682   0.00000  Uiso   1.00
N551   N     0.87790   0.33027   0.77278   0.00000  Uiso   1.00
N552   N     0.74795   0.76376   0.87548   0.00000  Uiso   1.00
