data_job_00843
_audit_creation_date              2018-12-19
_audit_creation_method            'Materials Studio'
_symmetry_space_group_name_H-M    'P1'
_symmetry_Int_Tables_number       1
_symmetry_cell_setting            triclinic
loop_
_symmetry_equiv_pos_as_xyz
  x,y,z
_cell_length_a                    20.9153
_cell_length_b                    20.9153
_cell_length_c                    12.6565
_cell_angle_alpha                 90.0000
_cell_angle_beta                  90.0000
_cell_angle_gamma                 90.0000
loop_
_atom_site_label
_atom_site_type_symbol
_atom_site_fract_x
_atom_site_fract_y
_atom_site_fract_z
_atom_site_U_iso_or_equiv
_atom_site_adp_type
_atom_site_occupancy
C1     C     0.68778   0.70699   0.55472   0.00000  Uiso   1.00
C2     C     0.68145   0.66763   0.65560   0.00000  Uiso   1.00
C3     C     0.73173   0.64352   0.71502   0.00000  Uiso   1.00
C4     C     0.71597   0.60869   0.80470   0.00000  Uiso   1.00
C5     C     0.71583   0.54911   0.95688   0.00000  Uiso   1.00
C6     C     0.64990   0.67126   0.47040   0.00000  Uiso   1.00
C7     C     0.67366   0.65021   0.37410   0.00000  Uiso   1.00
C8     C     0.63134   0.61844   0.30787   0.00000  Uiso   1.00
C9     C     0.58222   0.56453   0.17248   0.00000  Uiso   1.00
C10    C     0.65154   0.76907   0.57489   0.00000  Uiso   1.00
C11    C     0.67668   0.83026   0.56642   0.00000  Uiso   1.00
C12    C     0.63574   0.88084   0.58814   0.00000  Uiso   1.00
C13    C     0.58916   0.97880   0.61500   0.00000  Uiso   1.00
C14    C     0.57038   0.68800   0.60831   0.00000  Uiso   1.00
C15    C     0.61768   0.65731   0.68470   0.00000  Uiso   1.00
C16    C     0.60184   0.62251   0.77432   0.00000  Uiso   1.00
C17    C     0.65209   0.59835   0.83386   0.00000  Uiso   1.00
C18    C     0.58613   0.66094   0.49950   0.00000  Uiso   1.00
C19    C     0.54377   0.62919   0.43339   0.00000  Uiso   1.00
C20    C     0.56746   0.60810   0.33703   0.00000  Uiso   1.00
C21    C     0.58777   0.75875   0.60400   0.00000  Uiso   1.00
C22    C     0.54678   0.80924   0.62572   0.00000  Uiso   1.00
C23    C     0.57185   0.87050   0.61730   0.00000  Uiso   1.00
H24    H     0.73743   0.71502   0.53206   0.00000  Uiso   1.00
H25    H     0.78107   0.65151   0.69246   0.00000  Uiso   1.00
H26    H     0.72301   0.65821   0.35159   0.00000  Uiso   1.00
H27    H     0.72603   0.83823   0.54390   0.00000  Uiso   1.00
H28    H     0.80134   0.57653   0.88312   0.00000  Uiso   1.00
H29    H     0.67890   0.59066   0.16436   0.00000  Uiso   1.00
H30    H     0.68527   0.97027   0.56986   0.00000  Uiso   1.00
H31    H     0.52073   0.67996   0.63097   0.00000  Uiso   1.00
H32    H     0.55248   0.61453   0.79682   0.00000  Uiso   1.00
H33    H     0.49442   0.62122   0.45594   0.00000  Uiso   1.00
H34    H     0.49744   0.80124   0.64825   0.00000  Uiso   1.00
H35    H     0.61581   0.54651   0.96782   0.00000  Uiso   1.00
H36    H     0.49337   0.56065   0.24905   0.00000  Uiso   1.00
H37    H     0.49974   0.94025   0.65456   0.00000  Uiso   1.00
O38    O     0.73337   0.51909   0.03277   0.00000  Uiso   1.00
O39    O     0.57274   0.53764   0.08977   0.00000  Uiso   1.00
O40    O     0.58109   0.03568   0.62179   0.00000  Uiso   1.00
N41    N     0.75332   0.57846   0.88031   0.00000  Uiso   1.00
N42    N     0.63885   0.59166   0.20832   0.00000  Uiso   1.00
N43    N     0.64480   0.94657   0.58740   0.00000  Uiso   1.00
N44    N     0.65348   0.56230   0.92589   0.00000  Uiso   1.00
N45    N     0.53902   0.57551   0.25389   0.00000  Uiso   1.00
N46    N     0.54496   0.93041   0.63297   0.00000  Uiso   1.00
C47    C     0.18778   0.20699   0.05472   0.00000  Uiso   1.00
C48    C     0.18145   0.16763   0.15560   0.00000  Uiso   1.00
C49    C     0.23173   0.14352   0.21502   0.00000  Uiso   1.00
C50    C     0.21597   0.10869   0.30470   0.00000  Uiso   1.00
C51    C     0.21583   0.04911   0.45688   0.00000  Uiso   1.00
C52    C     0.14990   0.17126   0.97040   0.00000  Uiso   1.00
C53    C     0.17366   0.15021   0.87410   0.00000  Uiso   1.00
C54    C     0.13134   0.11844   0.80787   0.00000  Uiso   1.00
C55    C     0.08222   0.06453   0.67248   0.00000  Uiso   1.00
C56    C     0.15154   0.26907   0.07489   0.00000  Uiso   1.00
C57    C     0.17668   0.33026   0.06642   0.00000  Uiso   1.00
C58    C     0.13574   0.38084   0.08814   0.00000  Uiso   1.00
C59    C     0.08916   0.47880   0.11500   0.00000  Uiso   1.00
C60    C     0.07038   0.18800   0.10831   0.00000  Uiso   1.00
C61    C     0.11768   0.15731   0.18470   0.00000  Uiso   1.00
C62    C     0.10184   0.12251   0.27432   0.00000  Uiso   1.00
C63    C     0.15209   0.09835   0.33386   0.00000  Uiso   1.00
C64    C     0.08613   0.16094   0.99950   0.00000  Uiso   1.00
C65    C     0.04377   0.12919   0.93339   0.00000  Uiso   1.00
C66    C     0.06746   0.10810   0.83703   0.00000  Uiso   1.00
C67    C     0.08777   0.25875   0.10400   0.00000  Uiso   1.00
C68    C     0.04678   0.30924   0.12572   0.00000  Uiso   1.00
C69    C     0.07185   0.37050   0.11730   0.00000  Uiso   1.00
H70    H     0.23743   0.21502   0.03206   0.00000  Uiso   1.00
H71    H     0.28107   0.15151   0.19246   0.00000  Uiso   1.00
H72    H     0.22301   0.15821   0.85159   0.00000  Uiso   1.00
H73    H     0.22603   0.33823   0.04390   0.00000  Uiso   1.00
H74    H     0.30134   0.07653   0.38312   0.00000  Uiso   1.00
H75    H     0.17890   0.09066   0.66436   0.00000  Uiso   1.00
H76    H     0.18527   0.47027   0.06986   0.00000  Uiso   1.00
H77    H     0.02073   0.17996   0.13097   0.00000  Uiso   1.00
H78    H     0.05248   0.11453   0.29682   0.00000  Uiso   1.00
H79    H     0.99442   0.12122   0.95594   0.00000  Uiso   1.00
H80    H     0.99744   0.30124   0.14825   0.00000  Uiso   1.00
H81    H     0.11581   0.04651   0.46782   0.00000  Uiso   1.00
H82    H     0.99337   0.06065   0.74905   0.00000  Uiso   1.00
H83    H     0.99974   0.44025   0.15456   0.00000  Uiso   1.00
O84    O     0.23337   0.01909   0.53277   0.00000  Uiso   1.00
O85    O     0.07274   0.03764   0.58977   0.00000  Uiso   1.00
O86    O     0.08109   0.53568   0.12179   0.00000  Uiso   1.00
N87    N     0.25332   0.07846   0.38031   0.00000  Uiso   1.00
N88    N     0.13885   0.09166   0.70832   0.00000  Uiso   1.00
N89    N     0.14480   0.44657   0.08740   0.00000  Uiso   1.00
N90    N     0.15348   0.06230   0.42589   0.00000  Uiso   1.00
N91    N     0.03902   0.07551   0.75389   0.00000  Uiso   1.00
N92    N     0.04496   0.43041   0.13297   0.00000  Uiso   1.00
C93    C     0.31222   0.29301   0.55472   0.00000  Uiso   1.00
C94    C     0.31855   0.33237   0.65560   0.00000  Uiso   1.00
C95    C     0.26827   0.35648   0.71502   0.00000  Uiso   1.00
C96    C     0.28403   0.39131   0.80470   0.00000  Uiso   1.00
C97    C     0.28417   0.45089   0.95688   0.00000  Uiso   1.00
C98    C     0.35010   0.32874   0.47040   0.00000  Uiso   1.00
C99    C     0.32634   0.34979   0.37410   0.00000  Uiso   1.00
C100   C     0.36866   0.38156   0.30787   0.00000  Uiso   1.00
C101   C     0.41778   0.43547   0.17248   0.00000  Uiso   1.00
C102   C     0.34846   0.23093   0.57489   0.00000  Uiso   1.00
C103   C     0.32332   0.16974   0.56642   0.00000  Uiso   1.00
C104   C     0.36426   0.11916   0.58814   0.00000  Uiso   1.00
C105   C     0.41084   0.02120   0.61500   0.00000  Uiso   1.00
C106   C     0.42962   0.31200   0.60831   0.00000  Uiso   1.00
C107   C     0.38232   0.34269   0.68470   0.00000  Uiso   1.00
C108   C     0.39816   0.37749   0.77432   0.00000  Uiso   1.00
C109   C     0.34791   0.40165   0.83386   0.00000  Uiso   1.00
C110   C     0.41387   0.33906   0.49950   0.00000  Uiso   1.00
C111   C     0.45623   0.37081   0.43339   0.00000  Uiso   1.00
C112   C     0.43254   0.39190   0.33703   0.00000  Uiso   1.00
C113   C     0.41223   0.24125   0.60400   0.00000  Uiso   1.00
C114   C     0.45322   0.19076   0.62572   0.00000  Uiso   1.00
C115   C     0.42815   0.12950   0.61730   0.00000  Uiso   1.00
H116   H     0.26257   0.28498   0.53206   0.00000  Uiso   1.00
H117   H     0.21893   0.34849   0.69246   0.00000  Uiso   1.00
H118   H     0.27699   0.34179   0.35159   0.00000  Uiso   1.00
H119   H     0.27397   0.16177   0.54390   0.00000  Uiso   1.00
H120   H     0.19866   0.42347   0.88312   0.00000  Uiso   1.00
H121   H     0.32110   0.40934   0.16436   0.00000  Uiso   1.00
H122   H     0.31473   0.02973   0.56986   0.00000  Uiso   1.00
H123   H     0.47927   0.32004   0.63097   0.00000  Uiso   1.00
H124   H     0.44752   0.38547   0.79682   0.00000  Uiso   1.00
H125   H     0.50558   0.37878   0.45594   0.00000  Uiso   1.00
H126   H     0.50256   0.19876   0.64825   0.00000  Uiso   1.00
H127   H     0.38419   0.45349   0.96782   0.00000  Uiso   1.00
H128   H     0.50663   0.43935   0.24905   0.00000  Uiso   1.00
H129   H     0.50026   0.05975   0.65456   0.00000  Uiso   1.00
O130   O     0.26663   0.48091   0.03277   0.00000  Uiso   1.00
O131   O     0.42726   0.46236   0.08977   0.00000  Uiso   1.00
O132   O     0.41891   0.96432   0.62179   0.00000  Uiso   1.00
N133   N     0.24668   0.42154   0.88031   0.00000  Uiso   1.00
N134   N     0.36115   0.40834   0.20832   0.00000  Uiso   1.00
N135   N     0.35520   0.05343   0.58740   0.00000  Uiso   1.00
N136   N     0.34652   0.43770   0.92589   0.00000  Uiso   1.00
N137   N     0.46098   0.42449   0.25389   0.00000  Uiso   1.00
N138   N     0.45504   0.06959   0.63297   0.00000  Uiso   1.00
C139   C     0.81222   0.79301   0.05472   0.00000  Uiso   1.00
C140   C     0.81855   0.83237   0.15560   0.00000  Uiso   1.00
C141   C     0.76827   0.85648   0.21502   0.00000  Uiso   1.00
C142   C     0.78403   0.89131   0.30470   0.00000  Uiso   1.00
C143   C     0.78417   0.95089   0.45688   0.00000  Uiso   1.00
C144   C     0.85010   0.82874   0.97040   0.00000  Uiso   1.00
C145   C     0.82634   0.84979   0.87410   0.00000  Uiso   1.00
C146   C     0.86866   0.88156   0.80787   0.00000  Uiso   1.00
C147   C     0.91778   0.93547   0.67248   0.00000  Uiso   1.00
C148   C     0.84846   0.73093   0.07489   0.00000  Uiso   1.00
C149   C     0.82332   0.66974   0.06642   0.00000  Uiso   1.00
C150   C     0.86426   0.61916   0.08814   0.00000  Uiso   1.00
C151   C     0.91084   0.52120   0.11500   0.00000  Uiso   1.00
C152   C     0.92962   0.81200   0.10831   0.00000  Uiso   1.00
C153   C     0.88232   0.84269   0.18470   0.00000  Uiso   1.00
C154   C     0.89816   0.87749   0.27432   0.00000  Uiso   1.00
C155   C     0.84791   0.90165   0.33386   0.00000  Uiso   1.00
C156   C     0.91387   0.83906   0.99950   0.00000  Uiso   1.00
C157   C     0.95623   0.87081   0.93339   0.00000  Uiso   1.00
C158   C     0.93254   0.89190   0.83703   0.00000  Uiso   1.00
C159   C     0.91223   0.74125   0.10400   0.00000  Uiso   1.00
C160   C     0.95322   0.69076   0.12572   0.00000  Uiso   1.00
C161   C     0.92815   0.62950   0.11730   0.00000  Uiso   1.00
H162   H     0.76257   0.78498   0.03206   0.00000  Uiso   1.00
H163   H     0.71893   0.84849   0.19246   0.00000  Uiso   1.00
H164   H     0.77699   0.84179   0.85159   0.00000  Uiso   1.00
H165   H     0.77397   0.66177   0.04390   0.00000  Uiso   1.00
H166   H     0.69866   0.92347   0.38312   0.00000  Uiso   1.00
H167   H     0.82110   0.90934   0.66436   0.00000  Uiso   1.00
H168   H     0.81473   0.52973   0.06986   0.00000  Uiso   1.00
H169   H     0.97927   0.82004   0.13097   0.00000  Uiso   1.00
H170   H     0.94752   0.88547   0.29682   0.00000  Uiso   1.00
H171   H     0.00558   0.87878   0.95594   0.00000  Uiso   1.00
H172   H     0.00256   0.69876   0.14825   0.00000  Uiso   1.00
H173   H     0.88419   0.95349   0.46782   0.00000  Uiso   1.00
H174   H     0.00663   0.93935   0.74905   0.00000  Uiso   1.00
H175   H     0.00026   0.55975   0.15456   0.00000  Uiso   1.00
O176   O     0.76663   0.98091   0.53277   0.00000  Uiso   1.00
O177   O     0.92726   0.96236   0.58977   0.00000  Uiso   1.00
O178   O     0.91891   0.46432   0.12179   0.00000  Uiso   1.00
N179   N     0.74668   0.92154   0.38031   0.00000  Uiso   1.00
N180   N     0.86115   0.90834   0.70832   0.00000  Uiso   1.00
N181   N     0.85520   0.55343   0.08740   0.00000  Uiso   1.00
N182   N     0.84652   0.93770   0.42589   0.00000  Uiso   1.00
N183   N     0.96098   0.92449   0.75389   0.00000  Uiso   1.00
N184   N     0.95504   0.56959   0.13297   0.00000  Uiso   1.00
C185   C     0.70699   0.31222   0.44528   0.00000  Uiso   1.00
C186   C     0.66763   0.31855   0.34440   0.00000  Uiso   1.00
C187   C     0.64352   0.26827   0.28498   0.00000  Uiso   1.00
C188   C     0.60869   0.28403   0.19530   0.00000  Uiso   1.00
C189   C     0.54911   0.28417   0.04312   0.00000  Uiso   1.00
C190   C     0.67126   0.35010   0.52960   0.00000  Uiso   1.00
C191   C     0.65021   0.32634   0.62590   0.00000  Uiso   1.00
C192   C     0.61844   0.36866   0.69213   0.00000  Uiso   1.00
C193   C     0.56453   0.41778   0.82752   0.00000  Uiso   1.00
C194   C     0.76907   0.34846   0.42511   0.00000  Uiso   1.00
C195   C     0.83026   0.32332   0.43358   0.00000  Uiso   1.00
C196   C     0.88084   0.36426   0.41186   0.00000  Uiso   1.00
C197   C     0.97880   0.41084   0.38500   0.00000  Uiso   1.00
C198   C     0.68800   0.42962   0.39169   0.00000  Uiso   1.00
C199   C     0.65731   0.38232   0.31530   0.00000  Uiso   1.00
C200   C     0.62251   0.39816   0.22568   0.00000  Uiso   1.00
C201   C     0.59835   0.34791   0.16614   0.00000  Uiso   1.00
C202   C     0.66094   0.41387   0.50050   0.00000  Uiso   1.00
C203   C     0.62919   0.45623   0.56661   0.00000  Uiso   1.00
C204   C     0.60810   0.43254   0.66297   0.00000  Uiso   1.00
C205   C     0.75875   0.41223   0.39600   0.00000  Uiso   1.00
C206   C     0.80924   0.45322   0.37428   0.00000  Uiso   1.00
C207   C     0.87050   0.42815   0.38270   0.00000  Uiso   1.00
H208   H     0.71502   0.26257   0.46794   0.00000  Uiso   1.00
H209   H     0.65151   0.21893   0.30754   0.00000  Uiso   1.00
H210   H     0.65821   0.27699   0.64841   0.00000  Uiso   1.00
H211   H     0.83823   0.27397   0.45610   0.00000  Uiso   1.00
H212   H     0.57653   0.19866   0.11688   0.00000  Uiso   1.00
H213   H     0.59066   0.32110   0.83564   0.00000  Uiso   1.00
H214   H     0.97027   0.31473   0.43014   0.00000  Uiso   1.00
H215   H     0.67996   0.47927   0.36903   0.00000  Uiso   1.00
H216   H     0.61453   0.44752   0.20318   0.00000  Uiso   1.00
H217   H     0.62122   0.50558   0.54406   0.00000  Uiso   1.00
H218   H     0.80124   0.50256   0.35175   0.00000  Uiso   1.00
H219   H     0.54651   0.38419   0.03218   0.00000  Uiso   1.00
H220   H     0.56065   0.50663   0.75095   0.00000  Uiso   1.00
H221   H     0.94025   0.50026   0.34544   0.00000  Uiso   1.00
O222   O     0.51909   0.26663   0.96723   0.00000  Uiso   1.00
O223   O     0.53764   0.42726   0.91023   0.00000  Uiso   1.00
O224   O     0.03568   0.41891   0.37821   0.00000  Uiso   1.00
N225   N     0.57846   0.24668   0.11969   0.00000  Uiso   1.00
N226   N     0.59166   0.36115   0.79168   0.00000  Uiso   1.00
N227   N     0.94657   0.35520   0.41260   0.00000  Uiso   1.00
N228   N     0.56230   0.34652   0.07411   0.00000  Uiso   1.00
N229   N     0.57551   0.46098   0.74611   0.00000  Uiso   1.00
N230   N     0.93041   0.45504   0.36703   0.00000  Uiso   1.00
C231   C     0.20699   0.81222   0.94528   0.00000  Uiso   1.00
C232   C     0.16763   0.81855   0.84440   0.00000  Uiso   1.00
C233   C     0.14352   0.76827   0.78498   0.00000  Uiso   1.00
C234   C     0.10869   0.78403   0.69530   0.00000  Uiso   1.00
C235   C     0.04911   0.78417   0.54312   0.00000  Uiso   1.00
C236   C     0.17126   0.85010   0.02960   0.00000  Uiso   1.00
C237   C     0.15021   0.82634   0.12590   0.00000  Uiso   1.00
C238   C     0.11844   0.86866   0.19213   0.00000  Uiso   1.00
C239   C     0.06453   0.91778   0.32752   0.00000  Uiso   1.00
C240   C     0.26907   0.84846   0.92511   0.00000  Uiso   1.00
C241   C     0.33026   0.82332   0.93358   0.00000  Uiso   1.00
C242   C     0.38084   0.86426   0.91186   0.00000  Uiso   1.00
C243   C     0.47880   0.91084   0.88500   0.00000  Uiso   1.00
C244   C     0.18800   0.92962   0.89169   0.00000  Uiso   1.00
C245   C     0.15731   0.88232   0.81530   0.00000  Uiso   1.00
C246   C     0.12251   0.89816   0.72568   0.00000  Uiso   1.00
C247   C     0.09835   0.84791   0.66614   0.00000  Uiso   1.00
C248   C     0.16094   0.91387   0.00050   0.00000  Uiso   1.00
C249   C     0.12919   0.95623   0.06661   0.00000  Uiso   1.00
C250   C     0.10810   0.93254   0.16297   0.00000  Uiso   1.00
C251   C     0.25875   0.91223   0.89600   0.00000  Uiso   1.00
C252   C     0.30924   0.95322   0.87428   0.00000  Uiso   1.00
C253   C     0.37050   0.92815   0.88270   0.00000  Uiso   1.00
H254   H     0.21502   0.76257   0.96794   0.00000  Uiso   1.00
H255   H     0.15151   0.71893   0.80754   0.00000  Uiso   1.00
H256   H     0.15821   0.77699   0.14841   0.00000  Uiso   1.00
H257   H     0.33823   0.77397   0.95610   0.00000  Uiso   1.00
H258   H     0.07653   0.69866   0.61688   0.00000  Uiso   1.00
H259   H     0.09066   0.82110   0.33564   0.00000  Uiso   1.00
H260   H     0.47027   0.81473   0.93014   0.00000  Uiso   1.00
H261   H     0.17996   0.97927   0.86903   0.00000  Uiso   1.00
H262   H     0.11453   0.94752   0.70318   0.00000  Uiso   1.00
H263   H     0.12122   0.00558   0.04406   0.00000  Uiso   1.00
H264   H     0.30124   0.00256   0.85175   0.00000  Uiso   1.00
H265   H     0.04651   0.88419   0.53218   0.00000  Uiso   1.00
H266   H     0.06065   0.00663   0.25095   0.00000  Uiso   1.00
H267   H     0.44025   0.00026   0.84544   0.00000  Uiso   1.00
O268   O     0.01909   0.76663   0.46723   0.00000  Uiso   1.00
O269   O     0.03764   0.92726   0.41023   0.00000  Uiso   1.00
O270   O     0.53568   0.91891   0.87821   0.00000  Uiso   1.00
N271   N     0.07846   0.74668   0.61969   0.00000  Uiso   1.00
N272   N     0.09166   0.86115   0.29168   0.00000  Uiso   1.00
N273   N     0.44657   0.85520   0.91260   0.00000  Uiso   1.00
N274   N     0.06230   0.84652   0.57411   0.00000  Uiso   1.00
N275   N     0.07551   0.96098   0.24611   0.00000  Uiso   1.00
N276   N     0.43041   0.95504   0.86703   0.00000  Uiso   1.00
C277   C     0.29301   0.68778   0.44528   0.00000  Uiso   1.00
C278   C     0.33237   0.68145   0.34440   0.00000  Uiso   1.00
C279   C     0.35648   0.73173   0.28498   0.00000  Uiso   1.00
C280   C     0.39131   0.71597   0.19530   0.00000  Uiso   1.00
C281   C     0.45089   0.71583   0.04312   0.00000  Uiso   1.00
C282   C     0.32874   0.64990   0.52960   0.00000  Uiso   1.00
C283   C     0.34979   0.67366   0.62590   0.00000  Uiso   1.00
C284   C     0.38156   0.63134   0.69213   0.00000  Uiso   1.00
C285   C     0.43547   0.58222   0.82752   0.00000  Uiso   1.00
C286   C     0.23093   0.65154   0.42511   0.00000  Uiso   1.00
C287   C     0.16974   0.67668   0.43358   0.00000  Uiso   1.00
C288   C     0.11916   0.63574   0.41186   0.00000  Uiso   1.00
C289   C     0.02120   0.58916   0.38500   0.00000  Uiso   1.00
C290   C     0.31200   0.57038   0.39169   0.00000  Uiso   1.00
C291   C     0.34269   0.61768   0.31530   0.00000  Uiso   1.00
C292   C     0.37749   0.60184   0.22568   0.00000  Uiso   1.00
C293   C     0.40165   0.65209   0.16614   0.00000  Uiso   1.00
C294   C     0.33906   0.58613   0.50050   0.00000  Uiso   1.00
C295   C     0.37081   0.54377   0.56661   0.00000  Uiso   1.00
C296   C     0.39190   0.56746   0.66297   0.00000  Uiso   1.00
C297   C     0.24125   0.58777   0.39600   0.00000  Uiso   1.00
C298   C     0.19076   0.54678   0.37428   0.00000  Uiso   1.00
C299   C     0.12950   0.57185   0.38270   0.00000  Uiso   1.00
H300   H     0.28498   0.73743   0.46794   0.00000  Uiso   1.00
H301   H     0.34849   0.78107   0.30754   0.00000  Uiso   1.00
H302   H     0.34179   0.72301   0.64841   0.00000  Uiso   1.00
H303   H     0.16177   0.72603   0.45610   0.00000  Uiso   1.00
H304   H     0.42347   0.80134   0.11688   0.00000  Uiso   1.00
H305   H     0.40934   0.67890   0.83564   0.00000  Uiso   1.00
H306   H     0.02973   0.68527   0.43014   0.00000  Uiso   1.00
H307   H     0.32004   0.52073   0.36903   0.00000  Uiso   1.00
H308   H     0.38547   0.55248   0.20318   0.00000  Uiso   1.00
H309   H     0.37878   0.49442   0.54406   0.00000  Uiso   1.00
H310   H     0.19876   0.49744   0.35175   0.00000  Uiso   1.00
H311   H     0.45349   0.61581   0.03218   0.00000  Uiso   1.00
H312   H     0.43935   0.49337   0.75095   0.00000  Uiso   1.00
H313   H     0.05975   0.49974   0.34544   0.00000  Uiso   1.00
O314   O     0.48091   0.73337   0.96723   0.00000  Uiso   1.00
O315   O     0.46236   0.57274   0.91023   0.00000  Uiso   1.00
O316   O     0.96432   0.58109   0.37821   0.00000  Uiso   1.00
N317   N     0.42154   0.75332   0.11969   0.00000  Uiso   1.00
N318   N     0.40834   0.63885   0.79168   0.00000  Uiso   1.00
N319   N     0.05343   0.64480   0.41260   0.00000  Uiso   1.00
N320   N     0.43770   0.65348   0.07411   0.00000  Uiso   1.00
N321   N     0.42449   0.53902   0.74611   0.00000  Uiso   1.00
N322   N     0.06959   0.54496   0.36703   0.00000  Uiso   1.00
C323   C     0.79301   0.18778   0.94528   0.00000  Uiso   1.00
C324   C     0.83237   0.18145   0.84440   0.00000  Uiso   1.00
C325   C     0.85648   0.23173   0.78498   0.00000  Uiso   1.00
C326   C     0.89131   0.21597   0.69530   0.00000  Uiso   1.00
C327   C     0.95089   0.21583   0.54312   0.00000  Uiso   1.00
C328   C     0.82874   0.14990   0.02960   0.00000  Uiso   1.00
C329   C     0.84979   0.17366   0.12590   0.00000  Uiso   1.00
C330   C     0.88156   0.13134   0.19213   0.00000  Uiso   1.00
C331   C     0.93547   0.08222   0.32752   0.00000  Uiso   1.00
C332   C     0.73093   0.15154   0.92511   0.00000  Uiso   1.00
C333   C     0.66974   0.17668   0.93358   0.00000  Uiso   1.00
C334   C     0.61916   0.13574   0.91186   0.00000  Uiso   1.00
C335   C     0.52120   0.08916   0.88500   0.00000  Uiso   1.00
C336   C     0.81200   0.07038   0.89169   0.00000  Uiso   1.00
C337   C     0.84269   0.11768   0.81530   0.00000  Uiso   1.00
C338   C     0.87749   0.10184   0.72568   0.00000  Uiso   1.00
C339   C     0.90165   0.15209   0.66614   0.00000  Uiso   1.00
C340   C     0.83906   0.08613   0.00050   0.00000  Uiso   1.00
C341   C     0.87081   0.04377   0.06661   0.00000  Uiso   1.00
C342   C     0.89190   0.06746   0.16297   0.00000  Uiso   1.00
C343   C     0.74125   0.08777   0.89600   0.00000  Uiso   1.00
C344   C     0.69076   0.04678   0.87428   0.00000  Uiso   1.00
C345   C     0.62950   0.07185   0.88270   0.00000  Uiso   1.00
H346   H     0.78498   0.23743   0.96794   0.00000  Uiso   1.00
H347   H     0.84849   0.28107   0.80754   0.00000  Uiso   1.00
H348   H     0.84179   0.22301   0.14841   0.00000  Uiso   1.00
H349   H     0.66177   0.22603   0.95610   0.00000  Uiso   1.00
H350   H     0.92347   0.30134   0.61688   0.00000  Uiso   1.00
H351   H     0.90934   0.17890   0.33564   0.00000  Uiso   1.00
H352   H     0.52973   0.18527   0.93014   0.00000  Uiso   1.00
H353   H     0.82004   0.02073   0.86903   0.00000  Uiso   1.00
H354   H     0.88547   0.05248   0.70318   0.00000  Uiso   1.00
H355   H     0.87878   0.99442   0.04406   0.00000  Uiso   1.00
H356   H     0.69876   0.99744   0.85175   0.00000  Uiso   1.00
H357   H     0.95349   0.11581   0.53218   0.00000  Uiso   1.00
H358   H     0.93935   0.99337   0.25095   0.00000  Uiso   1.00
H359   H     0.55975   0.99974   0.84544   0.00000  Uiso   1.00
O360   O     0.98091   0.23337   0.46723   0.00000  Uiso   1.00
O361   O     0.96236   0.07274   0.41023   0.00000  Uiso   1.00
O362   O     0.46432   0.08109   0.87821   0.00000  Uiso   1.00
N363   N     0.92154   0.25332   0.61969   0.00000  Uiso   1.00
N364   N     0.90834   0.13885   0.29168   0.00000  Uiso   1.00
N365   N     0.55343   0.14480   0.91260   0.00000  Uiso   1.00
N366   N     0.93770   0.15348   0.57411   0.00000  Uiso   1.00
N367   N     0.92449   0.03902   0.24611   0.00000  Uiso   1.00
N368   N     0.56959   0.04496   0.86703   0.00000  Uiso   1.00
