data_job_02562
_audit_creation_date              2018-12-19
_audit_creation_method            'Materials Studio'
_symmetry_space_group_name_H-M    'P1'
_symmetry_Int_Tables_number       1
_symmetry_cell_setting            triclinic
loop_
_symmetry_equiv_pos_as_xyz
  x,y,z
_cell_length_a                    29.8090
_cell_length_b                    12.4791
_cell_length_c                    27.1248
_cell_angle_alpha                 90.0000
_cell_angle_beta                  121.6930
_cell_angle_gamma                 90.0000
loop_
_atom_site_label
_atom_site_type_symbol
_atom_site_fract_x
_atom_site_fract_y
_atom_site_fract_z
_atom_site_U_iso_or_equiv
_atom_site_adp_type
_atom_site_occupancy
C1     C     0.97844   0.73015   0.31829   0.00000  Uiso   1.00
C2     C     0.01293   0.69802   0.38181   0.00000  Uiso   1.00
C3     C     0.06764   0.69755   0.41401   0.00000  Uiso   1.00
C4     C     0.09186   0.66551   0.47147   0.00000  Uiso   1.00
C5     C     0.14990   0.62020   0.56640   0.00000  Uiso   1.00
C6     C     0.94260   0.63454   0.28745   0.00000  Uiso   1.00
C7     C     0.93817   0.58073   0.24031   0.00000  Uiso   1.00
C8     C     0.90318   0.49525   0.21833   0.00000  Uiso   1.00
C9     C     0.85200   0.35145   0.16674   0.00000  Uiso   1.00
C10    C     0.94259   0.81944   0.31628   0.00000  Uiso   1.00
C11    C     0.93814   0.92107   0.29336   0.00000  Uiso   1.00
C12    C     0.90313   0.99126   0.29563   0.00000  Uiso   1.00
C13    C     0.85194   0.13453   0.28880   0.00000  Uiso   1.00
C14    C     0.92416   0.67406   0.36306   0.00000  Uiso   1.00
C15    C     0.98344   0.66755   0.40613   0.00000  Uiso   1.00
C16    C     0.00758   0.63550   0.46355   0.00000  Uiso   1.00
C17    C     0.06232   0.63499   0.49583   0.00000  Uiso   1.00
C18    C     0.91311   0.60408   0.31177   0.00000  Uiso   1.00
C19    C     0.87812   0.51867   0.28985   0.00000  Uiso   1.00
C20    C     0.87364   0.46473   0.24269   0.00000  Uiso   1.00
C21    C     0.91311   0.78898   0.34060   0.00000  Uiso   1.00
C22    C     0.87809   0.85902   0.34290   0.00000  Uiso   1.00
C23    C     0.87359   0.96074   0.32000   0.00000  Uiso   1.00
H24    H     0.00139   0.75386   0.29935   0.00000  Uiso   1.00
H25    H     0.09044   0.72113   0.39518   0.00000  Uiso   1.00
H26    H     0.96099   0.60432   0.22150   0.00000  Uiso   1.00
H27    H     0.96096   0.94462   0.27455   0.00000  Uiso   1.00
H28    H     0.17617   0.67136   0.51213   0.00000  Uiso   1.00
H29    H     0.90320   0.42510   0.14592   0.00000  Uiso   1.00
H30    H     0.90314   0.14268   0.25777   0.00000  Uiso   1.00
H31    H     0.90120   0.65034   0.38200   0.00000  Uiso   1.00
H32    H     0.98476   0.61193   0.48236   0.00000  Uiso   1.00
H33    H     0.85530   0.49513   0.30868   0.00000  Uiso   1.00
H34    H     0.85528   0.83542   0.36173   0.00000  Uiso   1.00
H35    H     0.09039   0.58273   0.58289   0.00000  Uiso   1.00
H36    H     0.81742   0.33647   0.21667   0.00000  Uiso   1.00
H37    H     0.81737   0.05404   0.32853   0.00000  Uiso   1.00
O38    O     0.19005   0.60361   0.61204   0.00000  Uiso   1.00
O39    O     0.83192   0.28054   0.13157   0.00000  Uiso   1.00
O40    O     0.83185   0.22198   0.27832   0.00000  Uiso   1.00
N41    N     0.14451   0.65579   0.51502   0.00000  Uiso   1.00
N42    N     0.88931   0.42554   0.17263   0.00000  Uiso   1.00
N43    N     0.88925   0.09641   0.27719   0.00000  Uiso   1.00
N44    N     0.09836   0.60810   0.55309   0.00000  Uiso   1.00
N45    N     0.84315   0.37785   0.21071   0.00000  Uiso   1.00
N46    N     0.84309   0.04872   0.31526   0.00000  Uiso   1.00
C47    C     0.35051   0.33146   0.01419   0.00000  Uiso   1.00
C48    C     0.37479   0.29954   0.97892   0.00000  Uiso   1.00
C49    C     0.34929   0.30100   0.91894   0.00000  Uiso   1.00
C50    C     0.37833   0.26880   0.89492   0.00000  Uiso   1.00
C51    C     0.40802   0.22413   0.83486   0.00000  Uiso   1.00
C52    C     0.35723   0.23484   0.05191   0.00000  Uiso   1.00
C53    C     0.31696   0.18191   0.05331   0.00000  Uiso   1.00
C54    C     0.33122   0.09527   0.09075   0.00000  Uiso   1.00
C55    C     0.33364   0.95020   0.14404   0.00000  Uiso   1.00
C56    C     0.38594   0.41903   0.05562   0.00000  Uiso   1.00
C57    C     0.36981   0.52096   0.06014   0.00000  Uiso   1.00
C58    C     0.40825   0.58937   0.10072   0.00000  Uiso   1.00
C59    C     0.45524   0.73028   0.15977   0.00000  Uiso   1.00
C60    C     0.44744   0.27170   0.07822   0.00000  Uiso   1.00
C61    C     0.42744   0.26708   0.01370   0.00000  Uiso   1.00
C62    C     0.45653   0.23488   0.98977   0.00000  Uiso   1.00
C63    C     0.43108   0.23629   0.92976   0.00000  Uiso   1.00
C64    C     0.40987   0.20238   0.08669   0.00000  Uiso   1.00
C65    C     0.42420   0.11580   0.12414   0.00000  Uiso   1.00
C66    C     0.38396   0.06275   0.12559   0.00000  Uiso   1.00
C67    C     0.43859   0.38657   0.09040   0.00000  Uiso   1.00
C68    C     0.47705   0.45484   0.13097   0.00000  Uiso   1.00
C69    C     0.46099   0.55685   0.13556   0.00000  Uiso   1.00
H70    H     0.30952   0.35672   0.98712   0.00000  Uiso   1.00
H71    H     0.30855   0.32611   0.89204   0.00000  Uiso   1.00
H72    H     0.27622   0.20706   0.02639   0.00000  Uiso   1.00
H73    H     0.32907   0.54605   0.03323   0.00000  Uiso   1.00
H74    H     0.33067   0.27782   0.80196   0.00000  Uiso   1.00
H75    H     0.26252   0.02681   0.08527   0.00000  Uiso   1.00
H76    H     0.37395   0.74164   0.09968   0.00000  Uiso   1.00
H77    H     0.48843   0.24643   0.10529   0.00000  Uiso   1.00
H78    H     0.49727   0.20977   0.01669   0.00000  Uiso   1.00
H79    H     0.46494   0.09071   0.15105   0.00000  Uiso   1.00
H80    H     0.51779   0.42969   0.15788   0.00000  Uiso   1.00
H81    H     0.48385   0.18338   0.90313   0.00000  Uiso   1.00
H82    H     0.41569   0.93237   0.18644   0.00000  Uiso   1.00
H83    H     0.52712   0.64720   0.20085   0.00000  Uiso   1.00
O84    O     0.40984   0.20844   0.79213   0.00000  Uiso   1.00
O85    O     0.32043   0.87914   0.16383   0.00000  Uiso   1.00
O86    O     0.46662   0.81697   0.18273   0.00000  Uiso   1.00
N87    N     0.36551   0.26065   0.83793   0.00000  Uiso   1.00
N88    N     0.30179   0.02596   0.10280   0.00000  Uiso   1.00
N89    N     0.40597   0.69425   0.11628   0.00000  Uiso   1.00
N90    N     0.44793   0.20983   0.89237   0.00000  Uiso   1.00
N91    N     0.38421   0.97514   0.15724   0.00000  Uiso   1.00
N92    N     0.48839   0.64343   0.17072   0.00000  Uiso   1.00
C93    C     0.68661   0.11376   0.64852   0.00000  Uiso   1.00
C94    C     0.62864   0.08158   0.61681   0.00000  Uiso   1.00
C95    C     0.59690   0.08193   0.64015   0.00000  Uiso   1.00
C96    C     0.54491   0.04968   0.60408   0.00000  Uiso   1.00
C97    C     0.45787   0.00444   0.56356   0.00000  Uiso   1.00
C98    C     0.71600   0.01775   0.64417   0.00000  Uiso   1.00
C99    C     0.75771   0.96445   0.69051   0.00000  Uiso   1.00
C100   C     0.77926   0.87848   0.67747   0.00000  Uiso   1.00
C101   C     0.82786   0.73420   0.67944   0.00000  Uiso   1.00
C102   C     0.69061   0.20226   0.61225   0.00000  Uiso   1.00
C103   C     0.71099   0.30409   0.63176   0.00000  Uiso   1.00
C104   C     0.71118   0.37345   0.59185   0.00000  Uiso   1.00
C105   C     0.72038   0.51564   0.54425   0.00000  Uiso   1.00
C106   C     0.65074   0.05586   0.54296   0.00000  Uiso   1.00
C107   C     0.60916   0.05012   0.55947   0.00000  Uiso   1.00
C108   C     0.55721   0.01787   0.52335   0.00000  Uiso   1.00
C109   C     0.52539   0.01818   0.54663   0.00000  Uiso   1.00
C110   C     0.69652   0.98630   0.58683   0.00000  Uiso   1.00
C111   C     0.71802   0.90039   0.57372   0.00000  Uiso   1.00
C112   C     0.75974   0.84697   0.62003   0.00000  Uiso   1.00
C113   C     0.67113   0.17081   0.55491   0.00000  Uiso   1.00
C114   C     0.67130   0.24002   0.51496   0.00000  Uiso   1.00
C115   C     0.69167   0.34194   0.53441   0.00000  Uiso   1.00
H116   H     0.70178   0.13824   0.69316   0.00000  Uiso   1.00
H117   H     0.61199   0.10627   0.68453   0.00000  Uiso   1.00
H118   H     0.77278   0.98882   0.73488   0.00000  Uiso   1.00
H119   H     0.72607   0.32839   0.67613   0.00000  Uiso   1.00
H120   H     0.50385   0.05691   0.64967   0.00000  Uiso   1.00
H121   H     0.84289   0.80928   0.75585   0.00000  Uiso   1.00
H122   H     0.74439   0.52535   0.63197   0.00000  Uiso   1.00
H123   H     0.63557   0.03137   0.49831   0.00000  Uiso   1.00
H124   H     0.54214   0.99353   0.47898   0.00000  Uiso   1.00
H125   H     0.70293   0.87608   0.52934   0.00000  Uiso   1.00
H126   H     0.65622   0.21566   0.47059   0.00000  Uiso   1.00
H127   H     0.44716   0.96541   0.48284   0.00000  Uiso   1.00
H128   H     0.78620   0.71778   0.58902   0.00000  Uiso   1.00
H129   H     0.68770   0.43385   0.46514   0.00000  Uiso   1.00
O130   O     0.41524   0.98817   0.55706   0.00000  Uiso   1.00
O131   O     0.86005   0.66330   0.69636   0.00000  Uiso   1.00
O132   O     0.73082   0.60277   0.53384   0.00000  Uiso   1.00
N133   N     0.50333   0.04059   0.61305   0.00000  Uiso   1.00
N134   N     0.82030   0.80906   0.71233   0.00000  Uiso   1.00
N135   N     0.72823   0.47852   0.59652   0.00000  Uiso   1.00
N136   N     0.47282   0.99136   0.52329   0.00000  Uiso   1.00
N137   N     0.78980   0.75982   0.62256   0.00000  Uiso   1.00
N138   N     0.69772   0.42928   0.50675   0.00000  Uiso   1.00
C139   C     0.31711   0.87664   0.95062   0.00000  Uiso   1.00
C140   C     0.37505   0.90754   0.97932   0.00000  Uiso   1.00
C141   C     0.41206   0.90513   0.03835   0.00000  Uiso   1.00
C142   C     0.46304   0.93648   0.05597   0.00000  Uiso   1.00
C143   C     0.55096   0.97956   0.10662   0.00000  Uiso   1.00
C144   C     0.28571   0.97397   0.91535   0.00000  Uiso   1.00
C145   C     0.24758   0.02738   0.92061   0.00000  Uiso   1.00
C146   C     0.22334   0.11465   0.88437   0.00000  Uiso   1.00
C147   C     0.17253   0.26080   0.83569   0.00000  Uiso   1.00
C148   C     0.30751   0.78954   0.90669   0.00000  Uiso   1.00
C149   C     0.28770   0.68789   0.90464   0.00000  Uiso   1.00
C150   C     0.28181   0.61989   0.86110   0.00000  Uiso   1.00
C151   C     0.26484   0.47968   0.79896   0.00000  Uiso   1.00
C152   C     0.34184   0.93662   0.87692   0.00000  Uiso   1.00
C153   C     0.38848   0.94012   0.93929   0.00000  Uiso   1.00
C154   C     0.43942   0.97149   0.95682   0.00000  Uiso   1.00
C155   C     0.47649   0.96912   0.01587   0.00000  Uiso   1.00
C156   C     0.29914   0.00655   0.87533   0.00000  Uiso   1.00
C157   C     0.27494   0.09375   0.83907   0.00000  Uiso   1.00
C158   C     0.23680   0.14729   0.84427   0.00000  Uiso   1.00
C159   C     0.32094   0.82211   0.86666   0.00000  Uiso   1.00
C160   C     0.31507   0.75426   0.82311   0.00000  Uiso   1.00
C161   C     0.29526   0.65253   0.82100   0.00000  Uiso   1.00
H162   H     0.30665   0.85128   0.98178   0.00000  Uiso   1.00
H163   H     0.40165   0.87992   0.06931   0.00000  Uiso   1.00
H164   H     0.23719   0.00215   0.95158   0.00000  Uiso   1.00
H165   H     0.27731   0.66271   0.93562   0.00000  Uiso   1.00
H166   H     0.51289   0.92607   0.14871   0.00000  Uiso   1.00
H167   H     0.16612   0.18378   0.90045   0.00000  Uiso   1.00
H168   H     0.25072   0.46800   0.86680   0.00000  Uiso   1.00
H169   H     0.35229   0.96199   0.84576   0.00000  Uiso   1.00
H170   H     0.44980   0.99670   0.92583   0.00000  Uiso   1.00
H171   H     0.28535   0.11893   0.80810   0.00000  Uiso   1.00
H172   H     0.32547   0.77949   0.79214   0.00000  Uiso   1.00
H173   H     0.55197   0.02086   0.03225   0.00000  Uiso   1.00
H174   H     0.20520   0.27856   0.78399   0.00000  Uiso   1.00
H175   H     0.28980   0.56279   0.75034   0.00000  Uiso   1.00
O176   O     0.59575   0.99433   0.14561   0.00000  Uiso   1.00
O177   O     0.14079   0.33242   0.81990   0.00000  Uiso   1.00
O178   O     0.25178   0.39334   0.77575   0.00000  Uiso   1.00
N179   N     0.50871   0.94359   0.11031   0.00000  Uiso   1.00
N180   N     0.18451   0.18455   0.87821   0.00000  Uiso   1.00
N181   N     0.26358   0.51537   0.84674   0.00000  Uiso   1.00
N182   N     0.52974   0.99460   0.04765   0.00000  Uiso   1.00
N183   N     0.20554   0.23555   0.81555   0.00000  Uiso   1.00
N184   N     0.28461   0.56637   0.78407   0.00000  Uiso   1.00
C185   C     0.04874   0.26817   0.35495   0.00000  Uiso   1.00
C186   C     0.02089   0.30059   0.38640   0.00000  Uiso   1.00
C187   C     0.96680   0.30016   0.36286   0.00000  Uiso   1.00
C188   C     0.94910   0.33266   0.39871   0.00000  Uiso   1.00
C189   C     0.90049   0.37821   0.43882   0.00000  Uiso   1.00
C190   C     0.08230   0.36417   0.35929   0.00000  Uiso   1.00
C191   C     0.07984   0.41718   0.31295   0.00000  Uiso   1.00
C192   C     0.11384   0.50319   0.32599   0.00000  Uiso   1.00
C193   C     0.16060   0.64739   0.32401   0.00000  Uiso   1.00
C194   C     0.08742   0.17986   0.39147   0.00000  Uiso   1.00
C195   C     0.08928   0.07790   0.37218   0.00000  Uiso   1.00
C196   C     0.12761   0.00874   0.41230   0.00000  Uiso   1.00
C197   C     0.18232   0.86678   0.46028   0.00000  Uiso   1.00
C198   C     0.11350   0.32666   0.46049   0.00000  Uiso   1.00
C199   C     0.05606   0.33236   0.44373   0.00000  Uiso   1.00
C200   C     0.03844   0.36486   0.47962   0.00000  Uiso   1.00
C201   C     0.98433   0.36448   0.45614   0.00000  Uiso   1.00
C202   C     0.11747   0.39593   0.41662   0.00000  Uiso   1.00
C203   C     0.15149   0.48188   0.42972   0.00000  Uiso   1.00
C204   C     0.14908   0.53501   0.38341   0.00000  Uiso   1.00
C205   C     0.12260   0.21162   0.44880   0.00000  Uiso   1.00
C206   C     0.16093   0.14261   0.48895   0.00000  Uiso   1.00
C207   C     0.16284   0.04057   0.46973   0.00000  Uiso   1.00
H208   H     0.02136   0.24345   0.31032   0.00000  Uiso   1.00
H209   H     0.93959   0.27558   0.31849   0.00000  Uiso   1.00
H210   H     0.05262   0.39257   0.26860   0.00000  Uiso   1.00
H211   H     0.06206   0.05335   0.32782   0.00000  Uiso   1.00
H212   H     0.86444   0.32525   0.35283   0.00000  Uiso   1.00
H213   H     0.10279   0.57191   0.24763   0.00000  Uiso   1.00
H214   H     0.12269   0.85659   0.37250   0.00000  Uiso   1.00
H215   H     0.14089   0.35139   0.50512   0.00000  Uiso   1.00
H216   H     0.06567   0.38944   0.52398   0.00000  Uiso   1.00
H217   H     0.17870   0.50644   0.47409   0.00000  Uiso   1.00
H218   H     0.18814   0.16722   0.53331   0.00000  Uiso   1.00
H219   H     0.96677   0.41767   0.51961   0.00000  Uiso   1.00
H220   H     0.20512   0.66433   0.41441   0.00000  Uiso   1.00
H221   H     0.22502   0.94901   0.53928   0.00000  Uiso   1.00
O222   O     0.86397   0.39457   0.44511   0.00000  Uiso   1.00
O223   O     0.17668   0.71817   0.30709   0.00000  Uiso   1.00
O224   O     0.20278   0.77969   0.47092   0.00000  Uiso   1.00
N225   N     0.89884   0.34175   0.38949   0.00000  Uiso   1.00
N226   N     0.12168   0.57238   0.29114   0.00000  Uiso   1.00
N227   N     0.14029   0.90363   0.40788   0.00000  Uiso   1.00
N228   N     0.95391   0.39148   0.47924   0.00000  Uiso   1.00
N229   N     0.17674   0.62211   0.38088   0.00000  Uiso   1.00
N230   N     0.19536   0.95336   0.49762   0.00000  Uiso   1.00
C231   C     0.65013   0.64996   0.68572   0.00000  Uiso   1.00
C232   C     0.62484   0.68210   0.62230   0.00000  Uiso   1.00
C233   C     0.64952   0.68163   0.59089   0.00000  Uiso   1.00
C234   C     0.61961   0.71387   0.53340   0.00000  Uiso   1.00
C235   C     0.58836   0.75902   0.43876   0.00000  Uiso   1.00
C236   C     0.64366   0.74604   0.71619   0.00000  Uiso   1.00
C237   C     0.68416   0.79931   0.76372   0.00000  Uiso   1.00
C238   C     0.67009   0.88536   0.78526   0.00000  Uiso   1.00
C239   C     0.66805   0.02973   0.83640   0.00000  Uiso   1.00
C240   C     0.61544   0.56156   0.68698   0.00000  Uiso   1.00
C241   C     0.63221   0.45972   0.70996   0.00000  Uiso   1.00
C242   C     0.59438   0.39045   0.70692   0.00000  Uiso   1.00
C243   C     0.54852   0.24838   0.71272   0.00000  Uiso   1.00
C244   C     0.55314   0.70803   0.63948   0.00000  Uiso   1.00
C245   C     0.57216   0.71365   0.59719   0.00000  Uiso   1.00
C246   C     0.54220   0.74588   0.53973   0.00000  Uiso   1.00
C247   C     0.56683   0.74546   0.50823   0.00000  Uiso   1.00
C248   C     0.59097   0.77758   0.69107   0.00000  Uiso   1.00
C249   C     0.57684   0.86356   0.71255   0.00000  Uiso   1.00
C250   C     0.61731   0.91696   0.76010   0.00000  Uiso   1.00
C251   C     0.56275   0.59310   0.66186   0.00000  Uiso   1.00
C252   C     0.52489   0.52397   0.65879   0.00000  Uiso   1.00
C253   C     0.54160   0.42205   0.68176   0.00000  Uiso   1.00
H254   H     0.69115   0.62541   0.70527   0.00000  Uiso   1.00
H255   H     0.69029   0.65723   0.61034   0.00000  Uiso   1.00
H256   H     0.72492   0.77488   0.78315   0.00000  Uiso   1.00
H257   H     0.67298   0.43534   0.72939   0.00000  Uiso   1.00
H258   H     0.66611   0.70645   0.49403   0.00000  Uiso   1.00
H259   H     0.73913   0.95450   0.85840   0.00000  Uiso   1.00
H260   H     0.62960   0.23852   0.74506   0.00000  Uiso   1.00
H261   H     0.51212   0.73259   0.61992   0.00000  Uiso   1.00
H262   H     0.50144   0.77029   0.52030   0.00000  Uiso   1.00
H263   H     0.53607   0.88794   0.69311   0.00000  Uiso   1.00
H264   H     0.48413   0.54841   0.63936   0.00000  Uiso   1.00
H265   H     0.51283   0.79822   0.42095   0.00000  Uiso   1.00
H266   H     0.58585   0.04627   0.78532   0.00000  Uiso   1.00
H267   H     0.47632   0.33029   0.67198   0.00000  Uiso   1.00
O268   O     0.58568   0.77523   0.39350   0.00000  Uiso   1.00
O269   O     0.68148   0.10065   0.87155   0.00000  Uiso   1.00
O270   O     0.53778   0.16130   0.72284   0.00000  Uiso   1.00
N271   N     0.63150   0.72285   0.49049   0.00000  Uiso   1.00
N272   N     0.69977   0.95478   0.83116   0.00000  Uiso   1.00
N273   N     0.59737   0.28540   0.72520   0.00000  Uiso   1.00
N274   N     0.54902   0.77223   0.45117   0.00000  Uiso   1.00
N275   N     0.61729   0.00416   0.79183   0.00000  Uiso   1.00
N276   N     0.51489   0.33478   0.68588   0.00000  Uiso   1.00
C277   C     0.02156   0.23015   0.68171   0.00000  Uiso   1.00
C278   C     0.98707   0.19802   0.61819   0.00000  Uiso   1.00
C279   C     0.93236   0.19755   0.58599   0.00000  Uiso   1.00
C280   C     0.90814   0.16551   0.52853   0.00000  Uiso   1.00
C281   C     0.85010   0.12020   0.43360   0.00000  Uiso   1.00
C282   C     0.05740   0.13454   0.71255   0.00000  Uiso   1.00
C283   C     0.06183   0.08073   0.75969   0.00000  Uiso   1.00
C284   C     0.09682   0.99525   0.78167   0.00000  Uiso   1.00
C285   C     0.14800   0.85145   0.83326   0.00000  Uiso   1.00
C286   C     0.05741   0.31944   0.68372   0.00000  Uiso   1.00
C287   C     0.06186   0.42107   0.70664   0.00000  Uiso   1.00
C288   C     0.09687   0.49126   0.70437   0.00000  Uiso   1.00
C289   C     0.14806   0.63453   0.71120   0.00000  Uiso   1.00
C290   C     0.07584   0.17406   0.63694   0.00000  Uiso   1.00
C291   C     0.01656   0.16755   0.59387   0.00000  Uiso   1.00
C292   C     0.99242   0.13550   0.53645   0.00000  Uiso   1.00
C293   C     0.93768   0.13499   0.50417   0.00000  Uiso   1.00
C294   C     0.08689   0.10408   0.68823   0.00000  Uiso   1.00
C295   C     0.12188   0.01867   0.71015   0.00000  Uiso   1.00
C296   C     0.12636   0.96473   0.75731   0.00000  Uiso   1.00
C297   C     0.08689   0.28898   0.65940   0.00000  Uiso   1.00
C298   C     0.12191   0.35902   0.65710   0.00000  Uiso   1.00
C299   C     0.12641   0.46074   0.68000   0.00000  Uiso   1.00
H300   H     0.99861   0.25386   0.70065   0.00000  Uiso   1.00
H301   H     0.90956   0.22113   0.60482   0.00000  Uiso   1.00
H302   H     0.03901   0.10432   0.77850   0.00000  Uiso   1.00
H303   H     0.03904   0.44462   0.72545   0.00000  Uiso   1.00
H304   H     0.82383   0.17136   0.48787   0.00000  Uiso   1.00
H305   H     0.09680   0.92510   0.85408   0.00000  Uiso   1.00
H306   H     0.09686   0.64268   0.74223   0.00000  Uiso   1.00
H307   H     0.09880   0.15034   0.61800   0.00000  Uiso   1.00
H308   H     0.01524   0.11193   0.51764   0.00000  Uiso   1.00
H309   H     0.14470   0.99513   0.69132   0.00000  Uiso   1.00
H310   H     0.14472   0.33542   0.63827   0.00000  Uiso   1.00
H311   H     0.90961   0.08273   0.41711   0.00000  Uiso   1.00
H312   H     0.18258   0.83647   0.78333   0.00000  Uiso   1.00
H313   H     0.18263   0.55404   0.67147   0.00000  Uiso   1.00
O314   O     0.80995   0.10361   0.38796   0.00000  Uiso   1.00
O315   O     0.16808   0.78054   0.86843   0.00000  Uiso   1.00
O316   O     0.16815   0.72198   0.72168   0.00000  Uiso   1.00
N317   N     0.85549   0.15579   0.48498   0.00000  Uiso   1.00
N318   N     0.11069   0.92554   0.82737   0.00000  Uiso   1.00
N319   N     0.11075   0.59641   0.72281   0.00000  Uiso   1.00
N320   N     0.90164   0.10810   0.44691   0.00000  Uiso   1.00
N321   N     0.15685   0.87785   0.78929   0.00000  Uiso   1.00
N322   N     0.15691   0.54872   0.68474   0.00000  Uiso   1.00
C323   C     0.64949   0.83146   0.98581   0.00000  Uiso   1.00
C324   C     0.62521   0.79954   0.02108   0.00000  Uiso   1.00
C325   C     0.65071   0.80100   0.08106   0.00000  Uiso   1.00
C326   C     0.62167   0.76880   0.10508   0.00000  Uiso   1.00
C327   C     0.59198   0.72413   0.16514   0.00000  Uiso   1.00
C328   C     0.64277   0.73484   0.94809   0.00000  Uiso   1.00
C329   C     0.68304   0.68191   0.94669   0.00000  Uiso   1.00
C330   C     0.66878   0.59527   0.90925   0.00000  Uiso   1.00
C331   C     0.66636   0.45020   0.85596   0.00000  Uiso   1.00
C332   C     0.61406   0.91903   0.94438   0.00000  Uiso   1.00
C333   C     0.63019   0.02096   0.93986   0.00000  Uiso   1.00
C334   C     0.59175   0.08937   0.89928   0.00000  Uiso   1.00
C335   C     0.54476   0.23028   0.84023   0.00000  Uiso   1.00
C336   C     0.55256   0.77170   0.92178   0.00000  Uiso   1.00
C337   C     0.57256   0.76708   0.98630   0.00000  Uiso   1.00
C338   C     0.54347   0.73488   0.01023   0.00000  Uiso   1.00
C339   C     0.56892   0.73629   0.07024   0.00000  Uiso   1.00
C340   C     0.59013   0.70238   0.91331   0.00000  Uiso   1.00
C341   C     0.57580   0.61580   0.87586   0.00000  Uiso   1.00
C342   C     0.61604   0.56275   0.87441   0.00000  Uiso   1.00
C343   C     0.56141   0.88657   0.90960   0.00000  Uiso   1.00
C344   C     0.52295   0.95484   0.86903   0.00000  Uiso   1.00
C345   C     0.53901   0.05685   0.86444   0.00000  Uiso   1.00
H346   H     0.69048   0.85672   0.01288   0.00000  Uiso   1.00
H347   H     0.69145   0.82611   0.10796   0.00000  Uiso   1.00
H348   H     0.72378   0.70706   0.97361   0.00000  Uiso   1.00
H349   H     0.67093   0.04605   0.96677   0.00000  Uiso   1.00
H350   H     0.66933   0.77782   0.19804   0.00000  Uiso   1.00
H351   H     0.73748   0.52681   0.91473   0.00000  Uiso   1.00
H352   H     0.62605   0.24164   0.90032   0.00000  Uiso   1.00
H353   H     0.51157   0.74643   0.89471   0.00000  Uiso   1.00
H354   H     0.50273   0.70977   0.98331   0.00000  Uiso   1.00
H355   H     0.53506   0.59071   0.84895   0.00000  Uiso   1.00
H356   H     0.48221   0.92969   0.84212   0.00000  Uiso   1.00
H357   H     0.51615   0.68338   0.09687   0.00000  Uiso   1.00
H358   H     0.58431   0.43237   0.81356   0.00000  Uiso   1.00
H359   H     0.47288   0.14720   0.79915   0.00000  Uiso   1.00
O360   O     0.59016   0.70844   0.20787   0.00000  Uiso   1.00
O361   O     0.67957   0.37914   0.83617   0.00000  Uiso   1.00
O362   O     0.53338   0.31697   0.81727   0.00000  Uiso   1.00
N363   N     0.63449   0.76065   0.16207   0.00000  Uiso   1.00
N364   N     0.69821   0.52596   0.89720   0.00000  Uiso   1.00
N365   N     0.59403   0.19425   0.88372   0.00000  Uiso   1.00
N366   N     0.55207   0.70983   0.10763   0.00000  Uiso   1.00
N367   N     0.61579   0.47514   0.84276   0.00000  Uiso   1.00
N368   N     0.51161   0.14343   0.82928   0.00000  Uiso   1.00
C369   C     0.31339   0.61376   0.35148   0.00000  Uiso   1.00
C370   C     0.37136   0.58158   0.38319   0.00000  Uiso   1.00
C371   C     0.40310   0.58193   0.35985   0.00000  Uiso   1.00
C372   C     0.45509   0.54968   0.39592   0.00000  Uiso   1.00
C373   C     0.54213   0.50444   0.43644   0.00000  Uiso   1.00
C374   C     0.28400   0.51775   0.35583   0.00000  Uiso   1.00
C375   C     0.24229   0.46445   0.30949   0.00000  Uiso   1.00
C376   C     0.22074   0.37848   0.32253   0.00000  Uiso   1.00
C377   C     0.17214   0.23420   0.32056   0.00000  Uiso   1.00
C378   C     0.30939   0.70226   0.38775   0.00000  Uiso   1.00
C379   C     0.28901   0.80409   0.36824   0.00000  Uiso   1.00
C380   C     0.28882   0.87345   0.40815   0.00000  Uiso   1.00
C381   C     0.27962   0.01564   0.45575   0.00000  Uiso   1.00
C382   C     0.34926   0.55586   0.45704   0.00000  Uiso   1.00
C383   C     0.39084   0.55012   0.44053   0.00000  Uiso   1.00
C384   C     0.44279   0.51787   0.47665   0.00000  Uiso   1.00
C385   C     0.47461   0.51818   0.45337   0.00000  Uiso   1.00
C386   C     0.30348   0.48630   0.41317   0.00000  Uiso   1.00
C387   C     0.28198   0.40039   0.42628   0.00000  Uiso   1.00
C388   C     0.24026   0.34697   0.37997   0.00000  Uiso   1.00
C389   C     0.32887   0.67081   0.44509   0.00000  Uiso   1.00
C390   C     0.32870   0.74002   0.48504   0.00000  Uiso   1.00
C391   C     0.30833   0.84194   0.46559   0.00000  Uiso   1.00
H392   H     0.29822   0.63824   0.30684   0.00000  Uiso   1.00
H393   H     0.38801   0.60627   0.31547   0.00000  Uiso   1.00
H394   H     0.22722   0.48882   0.26512   0.00000  Uiso   1.00
H395   H     0.27393   0.82839   0.32387   0.00000  Uiso   1.00
H396   H     0.49615   0.55691   0.35033   0.00000  Uiso   1.00
H397   H     0.15711   0.30928   0.24415   0.00000  Uiso   1.00
H398   H     0.25561   0.02535   0.36803   0.00000  Uiso   1.00
H399   H     0.36443   0.53137   0.50169   0.00000  Uiso   1.00
H400   H     0.45786   0.49353   0.52102   0.00000  Uiso   1.00
H401   H     0.29707   0.37608   0.47066   0.00000  Uiso   1.00
H402   H     0.34378   0.71566   0.52941   0.00000  Uiso   1.00
H403   H     0.55284   0.46541   0.51716   0.00000  Uiso   1.00
H404   H     0.21380   0.21778   0.41098   0.00000  Uiso   1.00
H405   H     0.31230   0.93385   0.53486   0.00000  Uiso   1.00
O406   O     0.58476   0.48817   0.44294   0.00000  Uiso   1.00
O407   O     0.13995   0.16330   0.30364   0.00000  Uiso   1.00
O408   O     0.26918   0.10277   0.46616   0.00000  Uiso   1.00
N409   N     0.49667   0.54059   0.38695   0.00000  Uiso   1.00
N410   N     0.17970   0.30906   0.28767   0.00000  Uiso   1.00
N411   N     0.27177   0.97852   0.40348   0.00000  Uiso   1.00
N412   N     0.52718   0.49136   0.47671   0.00000  Uiso   1.00
N413   N     0.21020   0.25982   0.37744   0.00000  Uiso   1.00
N414   N     0.30228   0.92928   0.49325   0.00000  Uiso   1.00
C415   C     0.68289   0.37664   0.04938   0.00000  Uiso   1.00
C416   C     0.62495   0.40754   0.02068   0.00000  Uiso   1.00
C417   C     0.58794   0.40513   0.96165   0.00000  Uiso   1.00
C418   C     0.53696   0.43648   0.94403   0.00000  Uiso   1.00
C419   C     0.44904   0.47956   0.89338   0.00000  Uiso   1.00
C420   C     0.71429   0.47397   0.08465   0.00000  Uiso   1.00
C421   C     0.75242   0.52738   0.07939   0.00000  Uiso   1.00
C422   C     0.77666   0.61465   0.11563   0.00000  Uiso   1.00
C423   C     0.82747   0.76080   0.16431   0.00000  Uiso   1.00
C424   C     0.69249   0.28954   0.09331   0.00000  Uiso   1.00
C425   C     0.71230   0.18789   0.09536   0.00000  Uiso   1.00
C426   C     0.71819   0.11989   0.13890   0.00000  Uiso   1.00
C427   C     0.73516   0.97968   0.20104   0.00000  Uiso   1.00
C428   C     0.65816   0.43662   0.12308   0.00000  Uiso   1.00
C429   C     0.61152   0.44012   0.06071   0.00000  Uiso   1.00
C430   C     0.56058   0.47149   0.04318   0.00000  Uiso   1.00
C431   C     0.52351   0.46912   0.98413   0.00000  Uiso   1.00
C432   C     0.70086   0.50655   0.12467   0.00000  Uiso   1.00
C433   C     0.72506   0.59375   0.16093   0.00000  Uiso   1.00
C434   C     0.76320   0.64729   0.15573   0.00000  Uiso   1.00
C435   C     0.67906   0.32211   0.13334   0.00000  Uiso   1.00
C436   C     0.68493   0.25426   0.17689   0.00000  Uiso   1.00
C437   C     0.70474   0.15253   0.17900   0.00000  Uiso   1.00
H438   H     0.69335   0.35128   0.01822   0.00000  Uiso   1.00
H439   H     0.59835   0.37992   0.93069   0.00000  Uiso   1.00
H440   H     0.76281   0.50215   0.04842   0.00000  Uiso   1.00
H441   H     0.72269   0.16271   0.06438   0.00000  Uiso   1.00
H442   H     0.48711   0.42607   0.85129   0.00000  Uiso   1.00
H443   H     0.83388   0.68378   0.09955   0.00000  Uiso   1.00
H444   H     0.74928   0.96800   0.13320   0.00000  Uiso   1.00
H445   H     0.64771   0.46199   0.15424   0.00000  Uiso   1.00
H446   H     0.55020   0.49670   0.07417   0.00000  Uiso   1.00
H447   H     0.71465   0.61893   0.19190   0.00000  Uiso   1.00
H448   H     0.67453   0.27949   0.20786   0.00000  Uiso   1.00
H449   H     0.44803   0.52086   0.96775   0.00000  Uiso   1.00
H450   H     0.79480   0.77856   0.21601   0.00000  Uiso   1.00
H451   H     0.71020   0.06279   0.24966   0.00000  Uiso   1.00
O452   O     0.40425   0.49433   0.85439   0.00000  Uiso   1.00
O453   O     0.85921   0.83242   0.18010   0.00000  Uiso   1.00
O454   O     0.74822   0.89334   0.22425   0.00000  Uiso   1.00
N455   N     0.49129   0.44359   0.88969   0.00000  Uiso   1.00
N456   N     0.81549   0.68455   0.12179   0.00000  Uiso   1.00
N457   N     0.73642   0.01537   0.15326   0.00000  Uiso   1.00
N458   N     0.47026   0.49460   0.95235   0.00000  Uiso   1.00
N459   N     0.79446   0.73555   0.18445   0.00000  Uiso   1.00
N460   N     0.71539   0.06637   0.21593   0.00000  Uiso   1.00
C461   C     0.95126   0.76817   0.64505   0.00000  Uiso   1.00
C462   C     0.97911   0.80059   0.61360   0.00000  Uiso   1.00
C463   C     0.03320   0.80016   0.63714   0.00000  Uiso   1.00
C464   C     0.05090   0.83266   0.60129   0.00000  Uiso   1.00
C465   C     0.09951   0.87821   0.56118   0.00000  Uiso   1.00
C466   C     0.91770   0.86417   0.64071   0.00000  Uiso   1.00
C467   C     0.92016   0.91718   0.68705   0.00000  Uiso   1.00
C468   C     0.88616   0.00319   0.67401   0.00000  Uiso   1.00
C469   C     0.83940   0.14739   0.67599   0.00000  Uiso   1.00
C470   C     0.91258   0.67986   0.60853   0.00000  Uiso   1.00
C471   C     0.91072   0.57790   0.62782   0.00000  Uiso   1.00
C472   C     0.87239   0.50874   0.58770   0.00000  Uiso   1.00
C473   C     0.81768   0.36678   0.53972   0.00000  Uiso   1.00
C474   C     0.88650   0.82666   0.53951   0.00000  Uiso   1.00
C475   C     0.94394   0.83236   0.55627   0.00000  Uiso   1.00
C476   C     0.96156   0.86486   0.52038   0.00000  Uiso   1.00
C477   C     0.01567   0.86448   0.54386   0.00000  Uiso   1.00
C478   C     0.88253   0.89593   0.58338   0.00000  Uiso   1.00
C479   C     0.84851   0.98188   0.57028   0.00000  Uiso   1.00
C480   C     0.85092   0.03501   0.61659   0.00000  Uiso   1.00
C481   C     0.87740   0.71162   0.55120   0.00000  Uiso   1.00
C482   C     0.83907   0.64261   0.51105   0.00000  Uiso   1.00
C483   C     0.83716   0.54057   0.53027   0.00000  Uiso   1.00
H484   H     0.97864   0.74345   0.68968   0.00000  Uiso   1.00
H485   H     0.06041   0.77558   0.68151   0.00000  Uiso   1.00
H486   H     0.94738   0.89257   0.73140   0.00000  Uiso   1.00
H487   H     0.93794   0.55335   0.67218   0.00000  Uiso   1.00
H488   H     0.13556   0.82525   0.64717   0.00000  Uiso   1.00
H489   H     0.89721   0.07191   0.75237   0.00000  Uiso   1.00
H490   H     0.87731   0.35659   0.62750   0.00000  Uiso   1.00
H491   H     0.85911   0.85139   0.49488   0.00000  Uiso   1.00
H492   H     0.93433   0.88944   0.47602   0.00000  Uiso   1.00
H493   H     0.82130   0.00644   0.52591   0.00000  Uiso   1.00
H494   H     0.81186   0.66722   0.46669   0.00000  Uiso   1.00
H495   H     0.03323   0.91767   0.48039   0.00000  Uiso   1.00
H496   H     0.79488   0.16433   0.58559   0.00000  Uiso   1.00
H497   H     0.77498   0.44901   0.46072   0.00000  Uiso   1.00
O498   O     0.13603   0.89457   0.55489   0.00000  Uiso   1.00
O499   O     0.82332   0.21817   0.69291   0.00000  Uiso   1.00
O500   O     0.79722   0.27969   0.52908   0.00000  Uiso   1.00
N501   N     0.10116   0.84175   0.61051   0.00000  Uiso   1.00
N502   N     0.87832   0.07238   0.70886   0.00000  Uiso   1.00
N503   N     0.85971   0.40363   0.59212   0.00000  Uiso   1.00
N504   N     0.04609   0.89148   0.52076   0.00000  Uiso   1.00
N505   N     0.82326   0.12211   0.61912   0.00000  Uiso   1.00
N506   N     0.80464   0.45336   0.50238   0.00000  Uiso   1.00
C507   C     0.34987   0.14996   0.31428   0.00000  Uiso   1.00
C508   C     0.37516   0.18210   0.37770   0.00000  Uiso   1.00
C509   C     0.35048   0.18163   0.40911   0.00000  Uiso   1.00
C510   C     0.38039   0.21387   0.46660   0.00000  Uiso   1.00
C511   C     0.41164   0.25902   0.56124   0.00000  Uiso   1.00
C512   C     0.35634   0.24604   0.28381   0.00000  Uiso   1.00
C513   C     0.31584   0.29931   0.23628   0.00000  Uiso   1.00
C514   C     0.32991   0.38536   0.21474   0.00000  Uiso   1.00
C515   C     0.33195   0.52973   0.16360   0.00000  Uiso   1.00
C516   C     0.38456   0.06156   0.31302   0.00000  Uiso   1.00
C517   C     0.36779   0.95972   0.29004   0.00000  Uiso   1.00
C518   C     0.40562   0.89045   0.29308   0.00000  Uiso   1.00
C519   C     0.45148   0.74838   0.28728   0.00000  Uiso   1.00
C520   C     0.44686   0.20803   0.36052   0.00000  Uiso   1.00
C521   C     0.42784   0.21365   0.40281   0.00000  Uiso   1.00
C522   C     0.45780   0.24588   0.46027   0.00000  Uiso   1.00
C523   C     0.43317   0.24546   0.49177   0.00000  Uiso   1.00
C524   C     0.40903   0.27758   0.30893   0.00000  Uiso   1.00
C525   C     0.42316   0.36356   0.28745   0.00000  Uiso   1.00
C526   C     0.38269   0.41696   0.23990   0.00000  Uiso   1.00
C527   C     0.43725   0.09310   0.33814   0.00000  Uiso   1.00
C528   C     0.47511   0.02397   0.34121   0.00000  Uiso   1.00
C529   C     0.45840   0.92205   0.31824   0.00000  Uiso   1.00
H530   H     0.30885   0.12541   0.29473   0.00000  Uiso   1.00
H531   H     0.30971   0.15723   0.38966   0.00000  Uiso   1.00
H532   H     0.27508   0.27488   0.21685   0.00000  Uiso   1.00
H533   H     0.32702   0.93534   0.27061   0.00000  Uiso   1.00
H534   H     0.33389   0.20645   0.50597   0.00000  Uiso   1.00
H535   H     0.26087   0.45450   0.14160   0.00000  Uiso   1.00
H536   H     0.37040   0.73852   0.25494   0.00000  Uiso   1.00
H537   H     0.48788   0.23259   0.38008   0.00000  Uiso   1.00
H538   H     0.49856   0.27029   0.47970   0.00000  Uiso   1.00
H539   H     0.46393   0.38794   0.30689   0.00000  Uiso   1.00
H540   H     0.51587   0.04841   0.36064   0.00000  Uiso   1.00
H541   H     0.48717   0.29822   0.57905   0.00000  Uiso   1.00
H542   H     0.41415   0.54627   0.21468   0.00000  Uiso   1.00
H543   H     0.52368   0.83029   0.32802   0.00000  Uiso   1.00
O544   O     0.41432   0.27523   0.60650   0.00000  Uiso   1.00
O545   O     0.31852   0.60065   0.12845   0.00000  Uiso   1.00
O546   O     0.46222   0.66130   0.27716   0.00000  Uiso   1.00
N547   N     0.36850   0.22285   0.50951   0.00000  Uiso   1.00
N548   N     0.30023   0.45478   0.16884   0.00000  Uiso   1.00
N549   N     0.40263   0.78540   0.27480   0.00000  Uiso   1.00
N550   N     0.45098   0.27223   0.54883   0.00000  Uiso   1.00
N551   N     0.38271   0.50416   0.20817   0.00000  Uiso   1.00
N552   N     0.48511   0.83478   0.31412   0.00000  Uiso   1.00
