data_job_01424
_audit_creation_date              2018-12-19
_audit_creation_method            'Materials Studio'
_symmetry_space_group_name_H-M    'P1'
_symmetry_Int_Tables_number       1
_symmetry_cell_setting            triclinic
loop_
_symmetry_equiv_pos_as_xyz
  x,y,z
_cell_length_a                    15.0774
_cell_length_b                    19.7753
_cell_length_c                    22.5065
_cell_angle_alpha                 90.0000
_cell_angle_beta                  107.2040
_cell_angle_gamma                 90.0000
loop_
_atom_site_label
_atom_site_type_symbol
_atom_site_fract_x
_atom_site_fract_y
_atom_site_fract_z
_atom_site_U_iso_or_equiv
_atom_site_adp_type
_atom_site_occupancy
C1     C     0.65587   0.95833   0.87010   0.00000  Uiso   1.00
C2     C     0.64314   0.91867   0.92511   0.00000  Uiso   1.00
C3     C     0.55913   0.89622   0.93131   0.00000  Uiso   1.00
C4     C     0.56216   0.86079   0.98514   0.00000  Uiso   1.00
C5     C     0.52961   0.80113   0.06358   0.00000  Uiso   1.00
C6     C     0.70681   0.02309   0.89724   0.00000  Uiso   1.00
C7     C     0.67632   0.08844   0.87999   0.00000  Uiso   1.00
C8     C     0.73295   0.14092   0.91035   0.00000  Uiso   1.00
C9     C     0.79927   0.24338   0.94549   0.00000  Uiso   1.00
C10    C     0.72372   0.91749   0.84590   0.00000  Uiso   1.00
C11    C     0.70748   0.89406   0.78550   0.00000  Uiso   1.00
C12    C     0.77836   0.85764   0.77263   0.00000  Uiso   1.00
C13    C     0.87095   0.79614   0.72807   0.00000  Uiso   1.00
C14    C     0.81065   0.93535   0.95466   0.00000  Uiso   1.00
C15    C     0.72722   0.90619   0.97104   0.00000  Uiso   1.00
C16    C     0.73038   0.87078   0.02487   0.00000  Uiso   1.00
C17    C     0.64638   0.84828   0.03115   0.00000  Uiso   1.00
C18    C     0.79088   0.01061   0.94316   0.00000  Uiso   1.00
C19    C     0.84757   0.06300   0.97355   0.00000  Uiso   1.00
C20    C     0.81718   0.12841   0.95636   0.00000  Uiso   1.00
C21    C     0.80780   0.90500   0.89183   0.00000  Uiso   1.00
C22    C     0.87873   0.86862   0.87905   0.00000  Uiso   1.00
C23    C     0.86259   0.84514   0.81864   0.00000  Uiso   1.00
H24    H     0.59042   0.96806   0.83434   0.00000  Uiso   1.00
H25    H     0.49408   0.90590   0.89576   0.00000  Uiso   1.00
H26    H     0.61126   0.09808   0.84445   0.00000  Uiso   1.00
H27    H     0.64241   0.90373   0.74997   0.00000  Uiso   1.00
H28    H     0.42434   0.83149   0.98412   0.00000  Uiso   1.00
H29    H     0.67144   0.23673   0.87591   0.00000  Uiso   1.00
H30    H     0.73713   0.82691   0.67667   0.00000  Uiso   1.00
H31    H     0.87611   0.92563   0.99042   0.00000  Uiso   1.00
H32    H     0.79545   0.86113   0.06040   0.00000  Uiso   1.00
H33    H     0.91263   0.05332   0.00909   0.00000  Uiso   1.00
H34    H     0.94378   0.85897   0.91461   0.00000  Uiso   1.00
H35    H     0.66895   0.79516   0.11775   0.00000  Uiso   1.00
H36    H     0.91605   0.20040   0.00953   0.00000  Uiso   1.00
H37    H     0.98173   0.79058   0.81030   0.00000  Uiso   1.00
O38    O     0.48843   0.77168   0.09417   0.00000  Uiso   1.00
O39    O     0.81262   0.30334   0.95218   0.00000  Uiso   1.00
O40    O     0.89879   0.76566   0.69080   0.00000  Uiso   1.00
N41    N     0.49298   0.83178   0.00596   0.00000  Uiso   1.00
N42    N     0.72400   0.21066   0.90479   0.00000  Uiso   1.00
N43    N     0.78542   0.82752   0.71852   0.00000  Uiso   1.00
N44    N     0.62460   0.81223   0.07787   0.00000  Uiso   1.00
N45    N     0.85562   0.19110   0.97670   0.00000  Uiso   1.00
N46    N     0.91704   0.80797   0.79043   0.00000  Uiso   1.00
C47    C     0.15587   0.45833   0.87010   0.00000  Uiso   1.00
C48    C     0.14314   0.41867   0.92511   0.00000  Uiso   1.00
C49    C     0.05913   0.39622   0.93131   0.00000  Uiso   1.00
C50    C     0.06216   0.36079   0.98514   0.00000  Uiso   1.00
C51    C     0.02961   0.30113   0.06358   0.00000  Uiso   1.00
C52    C     0.20681   0.52309   0.89724   0.00000  Uiso   1.00
C53    C     0.17632   0.58844   0.87999   0.00000  Uiso   1.00
C54    C     0.23295   0.64092   0.91035   0.00000  Uiso   1.00
C55    C     0.29927   0.74338   0.94549   0.00000  Uiso   1.00
C56    C     0.22372   0.41749   0.84590   0.00000  Uiso   1.00
C57    C     0.20748   0.39406   0.78550   0.00000  Uiso   1.00
C58    C     0.27836   0.35764   0.77263   0.00000  Uiso   1.00
C59    C     0.37095   0.29614   0.72807   0.00000  Uiso   1.00
C60    C     0.31065   0.43535   0.95466   0.00000  Uiso   1.00
C61    C     0.22722   0.40619   0.97104   0.00000  Uiso   1.00
C62    C     0.23038   0.37078   0.02487   0.00000  Uiso   1.00
C63    C     0.14638   0.34828   0.03115   0.00000  Uiso   1.00
C64    C     0.29088   0.51061   0.94316   0.00000  Uiso   1.00
C65    C     0.34757   0.56300   0.97355   0.00000  Uiso   1.00
C66    C     0.31718   0.62841   0.95636   0.00000  Uiso   1.00
C67    C     0.30780   0.40500   0.89183   0.00000  Uiso   1.00
C68    C     0.37873   0.36862   0.87905   0.00000  Uiso   1.00
C69    C     0.36259   0.34514   0.81864   0.00000  Uiso   1.00
H70    H     0.09042   0.46806   0.83434   0.00000  Uiso   1.00
H71    H     0.99408   0.40590   0.89576   0.00000  Uiso   1.00
H72    H     0.11126   0.59808   0.84445   0.00000  Uiso   1.00
H73    H     0.14241   0.40373   0.74997   0.00000  Uiso   1.00
H74    H     0.92434   0.33149   0.98412   0.00000  Uiso   1.00
H75    H     0.17144   0.73673   0.87591   0.00000  Uiso   1.00
H76    H     0.23713   0.32691   0.67667   0.00000  Uiso   1.00
H77    H     0.37611   0.42563   0.99042   0.00000  Uiso   1.00
H78    H     0.29545   0.36113   0.06040   0.00000  Uiso   1.00
H79    H     0.41263   0.55332   0.00909   0.00000  Uiso   1.00
H80    H     0.44378   0.35897   0.91461   0.00000  Uiso   1.00
H81    H     0.16895   0.29516   0.11775   0.00000  Uiso   1.00
H82    H     0.41605   0.70040   0.00953   0.00000  Uiso   1.00
H83    H     0.48173   0.29058   0.81030   0.00000  Uiso   1.00
O84    O     0.98843   0.27168   0.09417   0.00000  Uiso   1.00
O85    O     0.31262   0.80334   0.95218   0.00000  Uiso   1.00
O86    O     0.39879   0.26566   0.69080   0.00000  Uiso   1.00
N87    N     0.99298   0.33178   0.00596   0.00000  Uiso   1.00
N88    N     0.22400   0.71066   0.90479   0.00000  Uiso   1.00
N89    N     0.28542   0.32752   0.71852   0.00000  Uiso   1.00
N90    N     0.12460   0.31223   0.07787   0.00000  Uiso   1.00
N91    N     0.35562   0.69110   0.97670   0.00000  Uiso   1.00
N92    N     0.41704   0.30797   0.79043   0.00000  Uiso   1.00
C93    C     0.34413   0.95833   0.62990   0.00000  Uiso   1.00
C94    C     0.35686   0.91867   0.57489   0.00000  Uiso   1.00
C95    C     0.44087   0.89622   0.56869   0.00000  Uiso   1.00
C96    C     0.43784   0.86079   0.51486   0.00000  Uiso   1.00
C97    C     0.47039   0.80113   0.43642   0.00000  Uiso   1.00
C98    C     0.29319   0.02309   0.60276   0.00000  Uiso   1.00
C99    C     0.32368   0.08844   0.62001   0.00000  Uiso   1.00
C100   C     0.26705   0.14092   0.58965   0.00000  Uiso   1.00
C101   C     0.20073   0.24338   0.55451   0.00000  Uiso   1.00
C102   C     0.27628   0.91749   0.65410   0.00000  Uiso   1.00
C103   C     0.29252   0.89406   0.71450   0.00000  Uiso   1.00
C104   C     0.22164   0.85764   0.72737   0.00000  Uiso   1.00
C105   C     0.12905   0.79614   0.77193   0.00000  Uiso   1.00
C106   C     0.18935   0.93535   0.54534   0.00000  Uiso   1.00
C107   C     0.27278   0.90619   0.52896   0.00000  Uiso   1.00
C108   C     0.26962   0.87078   0.47513   0.00000  Uiso   1.00
C109   C     0.35362   0.84828   0.46885   0.00000  Uiso   1.00
C110   C     0.20912   0.01061   0.55684   0.00000  Uiso   1.00
C111   C     0.15243   0.06300   0.52645   0.00000  Uiso   1.00
C112   C     0.18282   0.12841   0.54364   0.00000  Uiso   1.00
C113   C     0.19220   0.90500   0.60817   0.00000  Uiso   1.00
C114   C     0.12127   0.86862   0.62095   0.00000  Uiso   1.00
C115   C     0.13741   0.84514   0.68136   0.00000  Uiso   1.00
H116   H     0.40958   0.96806   0.66566   0.00000  Uiso   1.00
H117   H     0.50592   0.90590   0.60424   0.00000  Uiso   1.00
H118   H     0.38874   0.09808   0.65555   0.00000  Uiso   1.00
H119   H     0.35759   0.90373   0.75003   0.00000  Uiso   1.00
H120   H     0.57566   0.83149   0.51588   0.00000  Uiso   1.00
H121   H     0.32856   0.23673   0.62409   0.00000  Uiso   1.00
H122   H     0.26287   0.82691   0.82333   0.00000  Uiso   1.00
H123   H     0.12389   0.92563   0.50958   0.00000  Uiso   1.00
H124   H     0.20455   0.86113   0.43960   0.00000  Uiso   1.00
H125   H     0.08737   0.05332   0.49091   0.00000  Uiso   1.00
H126   H     0.05622   0.85897   0.58539   0.00000  Uiso   1.00
H127   H     0.33105   0.79516   0.38225   0.00000  Uiso   1.00
H128   H     0.08395   0.20040   0.49047   0.00000  Uiso   1.00
H129   H     0.01827   0.79058   0.68970   0.00000  Uiso   1.00
O130   O     0.51157   0.77168   0.40583   0.00000  Uiso   1.00
O131   O     0.18738   0.30334   0.54782   0.00000  Uiso   1.00
O132   O     0.10121   0.76566   0.80920   0.00000  Uiso   1.00
N133   N     0.50702   0.83178   0.49404   0.00000  Uiso   1.00
N134   N     0.27600   0.21066   0.59521   0.00000  Uiso   1.00
N135   N     0.21458   0.82752   0.78148   0.00000  Uiso   1.00
N136   N     0.37540   0.81223   0.42213   0.00000  Uiso   1.00
N137   N     0.14438   0.19110   0.52330   0.00000  Uiso   1.00
N138   N     0.08296   0.80797   0.70957   0.00000  Uiso   1.00
C139   C     0.84413   0.45833   0.62990   0.00000  Uiso   1.00
C140   C     0.85686   0.41867   0.57489   0.00000  Uiso   1.00
C141   C     0.94087   0.39622   0.56869   0.00000  Uiso   1.00
C142   C     0.93784   0.36079   0.51486   0.00000  Uiso   1.00
C143   C     0.97039   0.30113   0.43642   0.00000  Uiso   1.00
C144   C     0.79319   0.52309   0.60276   0.00000  Uiso   1.00
C145   C     0.82368   0.58844   0.62001   0.00000  Uiso   1.00
C146   C     0.76705   0.64092   0.58965   0.00000  Uiso   1.00
C147   C     0.70073   0.74338   0.55451   0.00000  Uiso   1.00
C148   C     0.77628   0.41749   0.65410   0.00000  Uiso   1.00
C149   C     0.79252   0.39406   0.71450   0.00000  Uiso   1.00
C150   C     0.72164   0.35764   0.72737   0.00000  Uiso   1.00
C151   C     0.62905   0.29614   0.77193   0.00000  Uiso   1.00
C152   C     0.68935   0.43535   0.54534   0.00000  Uiso   1.00
C153   C     0.77278   0.40619   0.52896   0.00000  Uiso   1.00
C154   C     0.76962   0.37078   0.47513   0.00000  Uiso   1.00
C155   C     0.85362   0.34828   0.46885   0.00000  Uiso   1.00
C156   C     0.70912   0.51061   0.55684   0.00000  Uiso   1.00
C157   C     0.65243   0.56300   0.52645   0.00000  Uiso   1.00
C158   C     0.68282   0.62841   0.54364   0.00000  Uiso   1.00
C159   C     0.69220   0.40500   0.60817   0.00000  Uiso   1.00
C160   C     0.62127   0.36862   0.62095   0.00000  Uiso   1.00
C161   C     0.63741   0.34514   0.68136   0.00000  Uiso   1.00
H162   H     0.90958   0.46806   0.66566   0.00000  Uiso   1.00
H163   H     0.00592   0.40590   0.60424   0.00000  Uiso   1.00
H164   H     0.88874   0.59808   0.65555   0.00000  Uiso   1.00
H165   H     0.85759   0.40373   0.75003   0.00000  Uiso   1.00
H166   H     0.07566   0.33149   0.51588   0.00000  Uiso   1.00
H167   H     0.82856   0.73673   0.62409   0.00000  Uiso   1.00
H168   H     0.76287   0.32691   0.82333   0.00000  Uiso   1.00
H169   H     0.62389   0.42563   0.50958   0.00000  Uiso   1.00
H170   H     0.70455   0.36113   0.43960   0.00000  Uiso   1.00
H171   H     0.58737   0.55332   0.49091   0.00000  Uiso   1.00
H172   H     0.55622   0.35897   0.58539   0.00000  Uiso   1.00
H173   H     0.83105   0.29516   0.38225   0.00000  Uiso   1.00
H174   H     0.58395   0.70040   0.49047   0.00000  Uiso   1.00
H175   H     0.51827   0.29058   0.68970   0.00000  Uiso   1.00
O176   O     0.01157   0.27168   0.40583   0.00000  Uiso   1.00
O177   O     0.68738   0.80334   0.54782   0.00000  Uiso   1.00
O178   O     0.60121   0.26566   0.80920   0.00000  Uiso   1.00
N179   N     0.00702   0.33178   0.49404   0.00000  Uiso   1.00
N180   N     0.77600   0.71066   0.59521   0.00000  Uiso   1.00
N181   N     0.71458   0.32752   0.78148   0.00000  Uiso   1.00
N182   N     0.87540   0.31223   0.42213   0.00000  Uiso   1.00
N183   N     0.64438   0.69110   0.52330   0.00000  Uiso   1.00
N184   N     0.58296   0.30797   0.70957   0.00000  Uiso   1.00
C185   C     0.34413   0.04167   0.12990   0.00000  Uiso   1.00
C186   C     0.35686   0.08133   0.07489   0.00000  Uiso   1.00
C187   C     0.44087   0.10378   0.06869   0.00000  Uiso   1.00
C188   C     0.43784   0.13921   0.01486   0.00000  Uiso   1.00
C189   C     0.47039   0.19887   0.93642   0.00000  Uiso   1.00
C190   C     0.29319   0.97691   0.10276   0.00000  Uiso   1.00
C191   C     0.32368   0.91156   0.12001   0.00000  Uiso   1.00
C192   C     0.26705   0.85908   0.08965   0.00000  Uiso   1.00
C193   C     0.20073   0.75662   0.05451   0.00000  Uiso   1.00
C194   C     0.27628   0.08251   0.15410   0.00000  Uiso   1.00
C195   C     0.29252   0.10594   0.21450   0.00000  Uiso   1.00
C196   C     0.22164   0.14236   0.22737   0.00000  Uiso   1.00
C197   C     0.12905   0.20386   0.27193   0.00000  Uiso   1.00
C198   C     0.18935   0.06465   0.04534   0.00000  Uiso   1.00
C199   C     0.27278   0.09381   0.02896   0.00000  Uiso   1.00
C200   C     0.26962   0.12922   0.97513   0.00000  Uiso   1.00
C201   C     0.35362   0.15172   0.96885   0.00000  Uiso   1.00
C202   C     0.20912   0.98939   0.05684   0.00000  Uiso   1.00
C203   C     0.15243   0.93700   0.02645   0.00000  Uiso   1.00
C204   C     0.18282   0.87159   0.04364   0.00000  Uiso   1.00
C205   C     0.19220   0.09500   0.10817   0.00000  Uiso   1.00
C206   C     0.12127   0.13138   0.12095   0.00000  Uiso   1.00
C207   C     0.13741   0.15486   0.18136   0.00000  Uiso   1.00
H208   H     0.40958   0.03194   0.16566   0.00000  Uiso   1.00
H209   H     0.50592   0.09410   0.10424   0.00000  Uiso   1.00
H210   H     0.38874   0.90192   0.15555   0.00000  Uiso   1.00
H211   H     0.35759   0.09627   0.25003   0.00000  Uiso   1.00
H212   H     0.57566   0.16851   0.01588   0.00000  Uiso   1.00
H213   H     0.32856   0.76327   0.12409   0.00000  Uiso   1.00
H214   H     0.26287   0.17309   0.32333   0.00000  Uiso   1.00
H215   H     0.12389   0.07437   0.00958   0.00000  Uiso   1.00
H216   H     0.20455   0.13887   0.93960   0.00000  Uiso   1.00
H217   H     0.08737   0.94668   0.99091   0.00000  Uiso   1.00
H218   H     0.05622   0.14103   0.08539   0.00000  Uiso   1.00
H219   H     0.33105   0.20484   0.88225   0.00000  Uiso   1.00
H220   H     0.08395   0.79960   0.99047   0.00000  Uiso   1.00
H221   H     0.01827   0.20942   0.18970   0.00000  Uiso   1.00
O222   O     0.51157   0.22832   0.90583   0.00000  Uiso   1.00
O223   O     0.18738   0.69666   0.04782   0.00000  Uiso   1.00
O224   O     0.10121   0.23434   0.30920   0.00000  Uiso   1.00
N225   N     0.50702   0.16822   0.99404   0.00000  Uiso   1.00
N226   N     0.27600   0.78934   0.09521   0.00000  Uiso   1.00
N227   N     0.21458   0.17248   0.28148   0.00000  Uiso   1.00
N228   N     0.37540   0.18777   0.92213   0.00000  Uiso   1.00
N229   N     0.14438   0.80890   0.02330   0.00000  Uiso   1.00
N230   N     0.08296   0.19203   0.20957   0.00000  Uiso   1.00
C231   C     0.84413   0.54167   0.12990   0.00000  Uiso   1.00
C232   C     0.85686   0.58133   0.07489   0.00000  Uiso   1.00
C233   C     0.94087   0.60378   0.06869   0.00000  Uiso   1.00
C234   C     0.93784   0.63921   0.01486   0.00000  Uiso   1.00
C235   C     0.97039   0.69887   0.93642   0.00000  Uiso   1.00
C236   C     0.79319   0.47691   0.10276   0.00000  Uiso   1.00
C237   C     0.82368   0.41156   0.12001   0.00000  Uiso   1.00
C238   C     0.76705   0.35908   0.08965   0.00000  Uiso   1.00
C239   C     0.70073   0.25662   0.05451   0.00000  Uiso   1.00
C240   C     0.77628   0.58251   0.15410   0.00000  Uiso   1.00
C241   C     0.79252   0.60594   0.21450   0.00000  Uiso   1.00
C242   C     0.72164   0.64236   0.22737   0.00000  Uiso   1.00
C243   C     0.62905   0.70386   0.27193   0.00000  Uiso   1.00
C244   C     0.68935   0.56465   0.04534   0.00000  Uiso   1.00
C245   C     0.77278   0.59381   0.02896   0.00000  Uiso   1.00
C246   C     0.76962   0.62922   0.97513   0.00000  Uiso   1.00
C247   C     0.85362   0.65172   0.96885   0.00000  Uiso   1.00
C248   C     0.70912   0.48939   0.05684   0.00000  Uiso   1.00
C249   C     0.65243   0.43700   0.02645   0.00000  Uiso   1.00
C250   C     0.68282   0.37159   0.04364   0.00000  Uiso   1.00
C251   C     0.69220   0.59500   0.10817   0.00000  Uiso   1.00
C252   C     0.62127   0.63138   0.12095   0.00000  Uiso   1.00
C253   C     0.63741   0.65486   0.18136   0.00000  Uiso   1.00
H254   H     0.90958   0.53194   0.16566   0.00000  Uiso   1.00
H255   H     0.00592   0.59410   0.10424   0.00000  Uiso   1.00
H256   H     0.88874   0.40192   0.15555   0.00000  Uiso   1.00
H257   H     0.85759   0.59627   0.25003   0.00000  Uiso   1.00
H258   H     0.07566   0.66851   0.01588   0.00000  Uiso   1.00
H259   H     0.82856   0.26327   0.12409   0.00000  Uiso   1.00
H260   H     0.76287   0.67309   0.32333   0.00000  Uiso   1.00
H261   H     0.62389   0.57437   0.00958   0.00000  Uiso   1.00
H262   H     0.70455   0.63887   0.93960   0.00000  Uiso   1.00
H263   H     0.58737   0.44668   0.99091   0.00000  Uiso   1.00
H264   H     0.55622   0.64103   0.08539   0.00000  Uiso   1.00
H265   H     0.83105   0.70484   0.88225   0.00000  Uiso   1.00
H266   H     0.58395   0.29960   0.99047   0.00000  Uiso   1.00
H267   H     0.51827   0.70942   0.18970   0.00000  Uiso   1.00
O268   O     0.01157   0.72832   0.90583   0.00000  Uiso   1.00
O269   O     0.68738   0.19666   0.04782   0.00000  Uiso   1.00
O270   O     0.60121   0.73434   0.30920   0.00000  Uiso   1.00
N271   N     0.00702   0.66822   0.99404   0.00000  Uiso   1.00
N272   N     0.77600   0.28934   0.09521   0.00000  Uiso   1.00
N273   N     0.71458   0.67248   0.28148   0.00000  Uiso   1.00
N274   N     0.87540   0.68777   0.92213   0.00000  Uiso   1.00
N275   N     0.64438   0.30890   0.02330   0.00000  Uiso   1.00
N276   N     0.58296   0.69203   0.20957   0.00000  Uiso   1.00
C277   C     0.65587   0.04167   0.37010   0.00000  Uiso   1.00
C278   C     0.64314   0.08133   0.42511   0.00000  Uiso   1.00
C279   C     0.55913   0.10378   0.43131   0.00000  Uiso   1.00
C280   C     0.56216   0.13921   0.48514   0.00000  Uiso   1.00
C281   C     0.52961   0.19887   0.56358   0.00000  Uiso   1.00
C282   C     0.70681   0.97691   0.39724   0.00000  Uiso   1.00
C283   C     0.67632   0.91156   0.37999   0.00000  Uiso   1.00
C284   C     0.73295   0.85908   0.41035   0.00000  Uiso   1.00
C285   C     0.79927   0.75662   0.44549   0.00000  Uiso   1.00
C286   C     0.72372   0.08251   0.34590   0.00000  Uiso   1.00
C287   C     0.70748   0.10594   0.28550   0.00000  Uiso   1.00
C288   C     0.77836   0.14236   0.27263   0.00000  Uiso   1.00
C289   C     0.87095   0.20386   0.22807   0.00000  Uiso   1.00
C290   C     0.81065   0.06465   0.45466   0.00000  Uiso   1.00
C291   C     0.72722   0.09381   0.47104   0.00000  Uiso   1.00
C292   C     0.73038   0.12922   0.52487   0.00000  Uiso   1.00
C293   C     0.64638   0.15172   0.53115   0.00000  Uiso   1.00
C294   C     0.79088   0.98939   0.44316   0.00000  Uiso   1.00
C295   C     0.84757   0.93700   0.47355   0.00000  Uiso   1.00
C296   C     0.81718   0.87159   0.45636   0.00000  Uiso   1.00
C297   C     0.80780   0.09500   0.39183   0.00000  Uiso   1.00
C298   C     0.87873   0.13138   0.37905   0.00000  Uiso   1.00
C299   C     0.86259   0.15486   0.31864   0.00000  Uiso   1.00
H300   H     0.59042   0.03194   0.33434   0.00000  Uiso   1.00
H301   H     0.49408   0.09410   0.39576   0.00000  Uiso   1.00
H302   H     0.61126   0.90192   0.34445   0.00000  Uiso   1.00
H303   H     0.64241   0.09627   0.24997   0.00000  Uiso   1.00
H304   H     0.42434   0.16851   0.48412   0.00000  Uiso   1.00
H305   H     0.67144   0.76327   0.37591   0.00000  Uiso   1.00
H306   H     0.73713   0.17309   0.17667   0.00000  Uiso   1.00
H307   H     0.87611   0.07437   0.49042   0.00000  Uiso   1.00
H308   H     0.79545   0.13887   0.56040   0.00000  Uiso   1.00
H309   H     0.91263   0.94668   0.50909   0.00000  Uiso   1.00
H310   H     0.94378   0.14103   0.41461   0.00000  Uiso   1.00
H311   H     0.66895   0.20484   0.61775   0.00000  Uiso   1.00
H312   H     0.91605   0.79960   0.50953   0.00000  Uiso   1.00
H313   H     0.98173   0.20942   0.31030   0.00000  Uiso   1.00
O314   O     0.48843   0.22832   0.59417   0.00000  Uiso   1.00
O315   O     0.81262   0.69666   0.45218   0.00000  Uiso   1.00
O316   O     0.89879   0.23434   0.19080   0.00000  Uiso   1.00
N317   N     0.49298   0.16822   0.50596   0.00000  Uiso   1.00
N318   N     0.72400   0.78934   0.40479   0.00000  Uiso   1.00
N319   N     0.78542   0.17248   0.21852   0.00000  Uiso   1.00
N320   N     0.62460   0.18777   0.57787   0.00000  Uiso   1.00
N321   N     0.85562   0.80890   0.47670   0.00000  Uiso   1.00
N322   N     0.91704   0.19203   0.29043   0.00000  Uiso   1.00
C323   C     0.15587   0.54167   0.37010   0.00000  Uiso   1.00
C324   C     0.14314   0.58133   0.42511   0.00000  Uiso   1.00
C325   C     0.05913   0.60378   0.43131   0.00000  Uiso   1.00
C326   C     0.06216   0.63921   0.48514   0.00000  Uiso   1.00
C327   C     0.02961   0.69887   0.56358   0.00000  Uiso   1.00
C328   C     0.20681   0.47691   0.39724   0.00000  Uiso   1.00
C329   C     0.17632   0.41156   0.37999   0.00000  Uiso   1.00
C330   C     0.23295   0.35908   0.41035   0.00000  Uiso   1.00
C331   C     0.29927   0.25662   0.44549   0.00000  Uiso   1.00
C332   C     0.22372   0.58251   0.34590   0.00000  Uiso   1.00
C333   C     0.20748   0.60594   0.28550   0.00000  Uiso   1.00
C334   C     0.27836   0.64236   0.27263   0.00000  Uiso   1.00
C335   C     0.37095   0.70386   0.22807   0.00000  Uiso   1.00
C336   C     0.31065   0.56465   0.45466   0.00000  Uiso   1.00
C337   C     0.22722   0.59381   0.47104   0.00000  Uiso   1.00
C338   C     0.23038   0.62922   0.52487   0.00000  Uiso   1.00
C339   C     0.14638   0.65172   0.53115   0.00000  Uiso   1.00
C340   C     0.29088   0.48939   0.44316   0.00000  Uiso   1.00
C341   C     0.34757   0.43700   0.47355   0.00000  Uiso   1.00
C342   C     0.31718   0.37159   0.45636   0.00000  Uiso   1.00
C343   C     0.30780   0.59500   0.39183   0.00000  Uiso   1.00
C344   C     0.37873   0.63138   0.37905   0.00000  Uiso   1.00
C345   C     0.36259   0.65486   0.31864   0.00000  Uiso   1.00
H346   H     0.09042   0.53194   0.33434   0.00000  Uiso   1.00
H347   H     0.99408   0.59410   0.39576   0.00000  Uiso   1.00
H348   H     0.11126   0.40192   0.34445   0.00000  Uiso   1.00
H349   H     0.14241   0.59627   0.24997   0.00000  Uiso   1.00
H350   H     0.92434   0.66851   0.48412   0.00000  Uiso   1.00
H351   H     0.17144   0.26327   0.37591   0.00000  Uiso   1.00
H352   H     0.23713   0.67309   0.17667   0.00000  Uiso   1.00
H353   H     0.37611   0.57437   0.49042   0.00000  Uiso   1.00
H354   H     0.29545   0.63887   0.56040   0.00000  Uiso   1.00
H355   H     0.41263   0.44668   0.50909   0.00000  Uiso   1.00
H356   H     0.44378   0.64103   0.41461   0.00000  Uiso   1.00
H357   H     0.16895   0.70484   0.61775   0.00000  Uiso   1.00
H358   H     0.41605   0.29960   0.50953   0.00000  Uiso   1.00
H359   H     0.48173   0.70942   0.31030   0.00000  Uiso   1.00
O360   O     0.98843   0.72832   0.59417   0.00000  Uiso   1.00
O361   O     0.31262   0.19666   0.45218   0.00000  Uiso   1.00
O362   O     0.39879   0.73434   0.19080   0.00000  Uiso   1.00
N363   N     0.99298   0.66822   0.50596   0.00000  Uiso   1.00
N364   N     0.22400   0.28934   0.40479   0.00000  Uiso   1.00
N365   N     0.28542   0.67248   0.21852   0.00000  Uiso   1.00
N366   N     0.12460   0.68777   0.57787   0.00000  Uiso   1.00
N367   N     0.35562   0.30890   0.47670   0.00000  Uiso   1.00
N368   N     0.41704   0.69203   0.29043   0.00000  Uiso   1.00
