data_job_01567
_audit_creation_date              2018-12-19
_audit_creation_method            'Materials Studio'
_symmetry_space_group_name_H-M    'P1'
_symmetry_Int_Tables_number       1
_symmetry_cell_setting            triclinic
loop_
_symmetry_equiv_pos_as_xyz
  x,y,z
_cell_length_a                    11.6762
_cell_length_b                    12.4836
_cell_length_c                    12.4894
_cell_angle_alpha                 72.4258
_cell_angle_beta                  85.6574
_cell_angle_gamma                 75.7576
loop_
_atom_site_label
_atom_site_type_symbol
_atom_site_fract_x
_atom_site_fract_y
_atom_site_fract_z
_atom_site_U_iso_or_equiv
_atom_site_adp_type
_atom_site_occupancy
C1     C     0.90695   0.76196   0.11758   0.00000  Uiso   1.00
C2     C     0.86034   0.82503   0.20497   0.00000  Uiso   1.00
C3     C     0.91688   0.89421   0.24002   0.00000  Uiso   1.00
C4     C     0.85968   0.94430   0.32078   0.00000  Uiso   1.00
C5     C     0.80399   0.04509   0.44973   0.00000  Uiso   1.00
C6     C     0.81132   0.80281   0.02790   0.00000  Uiso   1.00
C7     C     0.82666   0.85329   0.91407   0.00000  Uiso   1.00
C8     C     0.72821   0.88465   0.84578   0.00000  Uiso   1.00
C9     C     0.59643   0.95085   0.69982   0.00000  Uiso   1.00
C10    C     0.91066   0.63471   0.17543   0.00000  Uiso   1.00
C11    C     0.00952   0.54383   0.18563   0.00000  Uiso   1.00
C12    C     0.99469   0.43366   0.24152   0.00000  Uiso   1.00
C13    C     0.01716   0.23887   0.32463   0.00000  Uiso   1.00
C14    C     0.70483   0.72788   0.19868   0.00000  Uiso   1.00
C15    C     0.75056   0.80652   0.24901   0.00000  Uiso   1.00
C16    C     0.69326   0.85651   0.32974   0.00000  Uiso   1.00
C17    C     0.74971   0.92575   0.36491   0.00000  Uiso   1.00
C18    C     0.70155   0.78430   0.07194   0.00000  Uiso   1.00
C19    C     0.60305   0.81558   0.00380   0.00000  Uiso   1.00
C20    C     0.61823   0.86610   0.88990   0.00000  Uiso   1.00
C21    C     0.80088   0.61619   0.21949   0.00000  Uiso   1.00
C22    C     0.78590   0.50613   0.27536   0.00000  Uiso   1.00
C23    C     0.88471   0.41512   0.28565   0.00000  Uiso   1.00
H24    H     0.99241   0.77637   0.08328   0.00000  Uiso   1.00
H25    H     0.00183   0.90853   0.20590   0.00000  Uiso   1.00
H26    H     0.91163   0.86759   0.88001   0.00000  Uiso   1.00
H27    H     0.09445   0.55819   0.15153   0.00000  Uiso   1.00
H28    H     0.96384   0.04691   0.36125   0.00000  Uiso   1.00
H29    H     0.77365   0.96056   0.67408   0.00000  Uiso   1.00
H30    H     0.15918   0.30813   0.24663   0.00000  Uiso   1.00
H31    H     0.61936   0.71347   0.23297   0.00000  Uiso   1.00
H32    H     0.60831   0.84217   0.36382   0.00000  Uiso   1.00
H33    H     0.51811   0.80124   0.03792   0.00000  Uiso   1.00
H34    H     0.70094   0.49184   0.30944   0.00000  Uiso   1.00
H35    H     0.64444   0.99306   0.48941   0.00000  Uiso   1.00
H36    H     0.45426   0.90670   0.80224   0.00000  Uiso   1.00
H37    H     0.83979   0.25428   0.37480   0.00000  Uiso   1.00
O38    O     0.80358   0.10582   0.50867   0.00000  Uiso   1.00
O39    O     0.55408   0.99250   0.60714   0.00000  Uiso   1.00
O40    O     0.05988   0.13654   0.35831   0.00000  Uiso   1.00
N41    N     0.89020   0.01656   0.37347   0.00000  Uiso   1.00
N42    N     0.71238   0.93584   0.73101   0.00000  Uiso   1.00
N43    N     0.07281   0.32587   0.26627   0.00000  Uiso   1.00
N44    N     0.71833   0.98758   0.44244   0.00000  Uiso   1.00
N45    N     0.54052   0.90686   0.79998   0.00000  Uiso   1.00
N46    N     0.90095   0.29689   0.33524   0.00000  Uiso   1.00
C47    C     0.09305   0.23804   0.88242   0.00000  Uiso   1.00
C48    C     0.13966   0.17497   0.79503   0.00000  Uiso   1.00
C49    C     0.08312   0.10579   0.75998   0.00000  Uiso   1.00
C50    C     0.14032   0.05570   0.67922   0.00000  Uiso   1.00
C51    C     0.19601   0.95491   0.55027   0.00000  Uiso   1.00
C52    C     0.18868   0.19719   0.97210   0.00000  Uiso   1.00
C53    C     0.17334   0.14671   0.08593   0.00000  Uiso   1.00
C54    C     0.27179   0.11535   0.15422   0.00000  Uiso   1.00
C55    C     0.40357   0.04915   0.30018   0.00000  Uiso   1.00
C56    C     0.08934   0.36529   0.82457   0.00000  Uiso   1.00
C57    C     0.99048   0.45617   0.81437   0.00000  Uiso   1.00
C58    C     0.00531   0.56634   0.75848   0.00000  Uiso   1.00
C59    C     0.98284   0.76113   0.67537   0.00000  Uiso   1.00
C60    C     0.29517   0.27212   0.80132   0.00000  Uiso   1.00
C61    C     0.24944   0.19348   0.75099   0.00000  Uiso   1.00
C62    C     0.30674   0.14349   0.67026   0.00000  Uiso   1.00
C63    C     0.25029   0.07425   0.63509   0.00000  Uiso   1.00
C64    C     0.29845   0.21570   0.92806   0.00000  Uiso   1.00
C65    C     0.39695   0.18442   0.99620   0.00000  Uiso   1.00
C66    C     0.38177   0.13390   0.11010   0.00000  Uiso   1.00
C67    C     0.19912   0.38381   0.78051   0.00000  Uiso   1.00
C68    C     0.21410   0.49387   0.72464   0.00000  Uiso   1.00
C69    C     0.11529   0.58488   0.71435   0.00000  Uiso   1.00
H70    H     0.00759   0.22363   0.91672   0.00000  Uiso   1.00
H71    H     0.99817   0.09147   0.79410   0.00000  Uiso   1.00
H72    H     0.08837   0.13241   0.11999   0.00000  Uiso   1.00
H73    H     0.90555   0.44181   0.84847   0.00000  Uiso   1.00
H74    H     0.03616   0.95309   0.63875   0.00000  Uiso   1.00
H75    H     0.22635   0.03944   0.32592   0.00000  Uiso   1.00
H76    H     0.84082   0.69187   0.75337   0.00000  Uiso   1.00
H77    H     0.38064   0.28653   0.76703   0.00000  Uiso   1.00
H78    H     0.39169   0.15783   0.63618   0.00000  Uiso   1.00
H79    H     0.48189   0.19876   0.96208   0.00000  Uiso   1.00
H80    H     0.29906   0.50816   0.69056   0.00000  Uiso   1.00
H81    H     0.35556   0.00694   0.51059   0.00000  Uiso   1.00
H82    H     0.54574   0.09330   0.19776   0.00000  Uiso   1.00
H83    H     0.16021   0.74572   0.62520   0.00000  Uiso   1.00
O84    O     0.19642   0.89418   0.49133   0.00000  Uiso   1.00
O85    O     0.44592   0.00750   0.39286   0.00000  Uiso   1.00
O86    O     0.94012   0.86346   0.64169   0.00000  Uiso   1.00
N87    N     0.10980   0.98344   0.62653   0.00000  Uiso   1.00
N88    N     0.28762   0.06416   0.26899   0.00000  Uiso   1.00
N89    N     0.92719   0.67413   0.73373   0.00000  Uiso   1.00
N90    N     0.28167   0.01242   0.55756   0.00000  Uiso   1.00
N91    N     0.45948   0.09314   0.20002   0.00000  Uiso   1.00
N92    N     0.09905   0.70311   0.66476   0.00000  Uiso   1.00
