data_job_04087
_audit_creation_date              2018-12-19
_audit_creation_method            'Materials Studio'
_symmetry_space_group_name_H-M    'P1'
_symmetry_Int_Tables_number       1
_symmetry_cell_setting            triclinic
loop_
_symmetry_equiv_pos_as_xyz
  x,y,z
_cell_length_a                    11.5125
_cell_length_b                    12.6365
_cell_length_c                    14.0687
_cell_angle_alpha                 108.4109
_cell_angle_beta                  111.4010
_cell_angle_gamma                 67.6910
loop_
_atom_site_label
_atom_site_type_symbol
_atom_site_fract_x
_atom_site_fract_y
_atom_site_fract_z
_atom_site_U_iso_or_equiv
_atom_site_adp_type
_atom_site_occupancy
C1     C     0.34254   0.16319   0.32262   0.00000  Uiso   1.00
C2     C     0.26988   0.27935   0.28737   0.00000  Uiso   1.00
C3     C     0.20964   0.38290   0.34629   0.00000  Uiso   1.00
C4     C     0.14829   0.47959   0.30000   0.00000  Uiso   1.00
C5     C     0.03556   0.66097   0.26069   0.00000  Uiso   1.00
C6     C     0.27688   0.07473   0.24177   0.00000  Uiso   1.00
C7     C     0.22256   0.00623   0.26237   0.00000  Uiso   1.00
C8     C     0.16712   0.93066   0.17769   0.00000  Uiso   1.00
C9     C     0.06536   0.79431   0.06761   0.00000  Uiso   1.00
C10    C     0.47958   0.12696   0.31058   0.00000  Uiso   1.00
C11    C     0.59569   0.10234   0.38902   0.00000  Uiso   1.00
C12    C     0.71091   0.07070   0.36226   0.00000  Uiso   1.00
C13    C     0.92386   0.01544   0.35900   0.00000  Uiso   1.00
C14    C     0.34070   0.15075   0.13562   0.00000  Uiso   1.00
C15    C     0.26888   0.27259   0.18579   0.00000  Uiso   1.00
C16    C     0.20761   0.36915   0.13939   0.00000  Uiso   1.00
C17    C     0.14729   0.47283   0.19825   0.00000  Uiso   1.00
C18    C     0.27588   0.06798   0.14020   0.00000  Uiso   1.00
C19    C     0.22052   0.99248   0.05547   0.00000  Uiso   1.00
C20    C     0.16612   0.92390   0.07594   0.00000  Uiso   1.00
C21    C     0.47858   0.12021   0.20900   0.00000  Uiso   1.00
C22    C     0.59365   0.08859   0.18212   0.00000  Uiso   1.00
C23    C     0.70991   0.06394   0.26050   0.00000  Uiso   1.00
H24    H     0.34331   0.16844   0.40170   0.00000  Uiso   1.00
H25    H     0.21043   0.38809   0.42490   0.00000  Uiso   1.00
H26    H     0.22336   0.01147   0.34098   0.00000  Uiso   1.00
H27    H     0.59642   0.10757   0.46761   0.00000  Uiso   1.00
H28    H     0.06261   0.62862   0.40580   0.00000  Uiso   1.00
H29    H     0.08991   0.83448   0.22888   0.00000  Uiso   1.00
H30    H     0.87660   0.03711   0.49590   0.00000  Uiso   1.00
H31    H     0.33992   0.14550   0.05653   0.00000  Uiso   1.00
H32    H     0.20685   0.36390   0.06079   0.00000  Uiso   1.00
H33    H     0.21977   0.98728   0.97688   0.00000  Uiso   1.00
H34    H     0.59284   0.08338   0.10351   0.00000  Uiso   1.00
H35    H     0.05970   0.60899   0.11028   0.00000  Uiso   1.00
H36    H     0.08701   0.81484   0.93336   0.00000  Uiso   1.00
H37    H     0.87369   0.01748   0.20037   0.00000  Uiso   1.00
O38    O     0.97364   0.76288   0.26705   0.00000  Uiso   1.00
O39    O     0.00949   0.72098   0.03495   0.00000  Uiso   1.00
O40    O     0.04159   0.98684   0.38526   0.00000  Uiso   1.00
N41    N     0.08021   0.59404   0.33567   0.00000  Uiso   1.00
N42    N     0.10572   0.85157   0.17026   0.00000  Uiso   1.00
N43    N     0.84121   0.04099   0.41989   0.00000  Uiso   1.00
N44    N     0.07865   0.58347   0.17666   0.00000  Uiso   1.00
N45    N     0.10415   0.84101   0.01124   0.00000  Uiso   1.00
N46    N     0.83964   0.03042   0.26087   0.00000  Uiso   1.00
C47    C     0.65746   0.83681   0.67738   0.00000  Uiso   1.00
C48    C     0.73012   0.72065   0.71263   0.00000  Uiso   1.00
C49    C     0.79036   0.61710   0.65371   0.00000  Uiso   1.00
C50    C     0.85171   0.52041   0.70000   0.00000  Uiso   1.00
C51    C     0.96444   0.33903   0.73931   0.00000  Uiso   1.00
C52    C     0.72312   0.92527   0.75823   0.00000  Uiso   1.00
C53    C     0.77744   0.99377   0.73763   0.00000  Uiso   1.00
C54    C     0.83288   0.06934   0.82231   0.00000  Uiso   1.00
C55    C     0.93464   0.20569   0.93239   0.00000  Uiso   1.00
C56    C     0.52042   0.87304   0.68942   0.00000  Uiso   1.00
C57    C     0.40431   0.89766   0.61098   0.00000  Uiso   1.00
C58    C     0.28909   0.92930   0.63774   0.00000  Uiso   1.00
C59    C     0.07614   0.98456   0.64100   0.00000  Uiso   1.00
C60    C     0.65930   0.84925   0.86438   0.00000  Uiso   1.00
C61    C     0.73112   0.72741   0.81421   0.00000  Uiso   1.00
C62    C     0.79239   0.63085   0.86061   0.00000  Uiso   1.00
C63    C     0.85271   0.52717   0.80175   0.00000  Uiso   1.00
C64    C     0.72412   0.93202   0.85980   0.00000  Uiso   1.00
C65    C     0.77948   0.00752   0.94453   0.00000  Uiso   1.00
C66    C     0.83388   0.07610   0.92406   0.00000  Uiso   1.00
C67    C     0.52142   0.87979   0.79100   0.00000  Uiso   1.00
C68    C     0.40635   0.91141   0.81788   0.00000  Uiso   1.00
C69    C     0.29009   0.93606   0.73950   0.00000  Uiso   1.00
H70    H     0.65669   0.83156   0.59830   0.00000  Uiso   1.00
H71    H     0.78957   0.61191   0.57510   0.00000  Uiso   1.00
H72    H     0.77664   0.98853   0.65902   0.00000  Uiso   1.00
H73    H     0.40358   0.89243   0.53239   0.00000  Uiso   1.00
H74    H     0.93739   0.37138   0.59420   0.00000  Uiso   1.00
H75    H     0.91009   0.16552   0.77112   0.00000  Uiso   1.00
H76    H     0.12340   0.96289   0.50410   0.00000  Uiso   1.00
H77    H     0.66008   0.85450   0.94347   0.00000  Uiso   1.00
H78    H     0.79315   0.63610   0.93921   0.00000  Uiso   1.00
H79    H     0.78023   0.01272   0.02312   0.00000  Uiso   1.00
H80    H     0.40716   0.91662   0.89649   0.00000  Uiso   1.00
H81    H     0.94030   0.39101   0.88972   0.00000  Uiso   1.00
H82    H     0.91299   0.18516   0.06664   0.00000  Uiso   1.00
H83    H     0.12631   0.98252   0.79963   0.00000  Uiso   1.00
O84    O     0.02636   0.23712   0.73295   0.00000  Uiso   1.00
O85    O     0.99051   0.27902   0.96505   0.00000  Uiso   1.00
O86    O     0.95841   0.01316   0.61474   0.00000  Uiso   1.00
N87    N     0.91979   0.40596   0.66433   0.00000  Uiso   1.00
N88    N     0.89428   0.14843   0.82974   0.00000  Uiso   1.00
N89    N     0.15879   0.95901   0.58011   0.00000  Uiso   1.00
N90    N     0.92135   0.41653   0.82334   0.00000  Uiso   1.00
N91    N     0.89585   0.15899   0.98876   0.00000  Uiso   1.00
N92    N     0.16036   0.96958   0.73913   0.00000  Uiso   1.00
