data_job_02935
_audit_creation_date              2018-12-19
_audit_creation_method            'Materials Studio'
_symmetry_space_group_name_H-M    'P1'
_symmetry_Int_Tables_number       1
_symmetry_cell_setting            triclinic
loop_
_symmetry_equiv_pos_as_xyz
  x,y,z
_cell_length_a                    15.4060
_cell_length_b                    19.8892
_cell_length_c                    16.6757
_cell_angle_alpha                 90.0000
_cell_angle_beta                  82.4274
_cell_angle_gamma                 90.0000
loop_
_atom_site_label
_atom_site_type_symbol
_atom_site_fract_x
_atom_site_fract_y
_atom_site_fract_z
_atom_site_U_iso_or_equiv
_atom_site_adp_type
_atom_site_occupancy
C1     C     0.62970   0.76764   0.35321   0.00000  Uiso   1.00
C2     C     0.60234   0.72702   0.28314   0.00000  Uiso   1.00
C3     C     0.51836   0.70413   0.27708   0.00000  Uiso   1.00
C4     C     0.50676   0.66782   0.20818   0.00000  Uiso   1.00
C5     C     0.45365   0.60670   0.10861   0.00000  Uiso   1.00
C6     C     0.70317   0.72786   0.38407   0.00000  Uiso   1.00
C7     C     0.70397   0.70568   0.46288   0.00000  Uiso   1.00
C8     C     0.77726   0.67008   0.47895   0.00000  Uiso   1.00
C9     C     0.88072   0.61030   0.53609   0.00000  Uiso   1.00
C10    C     0.67182   0.83172   0.31596   0.00000  Uiso   1.00
C11    C     0.64627   0.89688   0.33752   0.00000  Uiso   1.00
C12    C     0.69317   0.94872   0.29626   0.00000  Uiso   1.00
C13    C     0.74795   0.05020   0.24765   0.00000  Uiso   1.00
C14    C     0.75845   0.74386   0.24162   0.00000  Uiso   1.00
C15    C     0.67228   0.71411   0.22253   0.00000  Uiso   1.00
C16    C     0.66080   0.67782   0.15362   0.00000  Uiso   1.00
C17    C     0.57682   0.65489   0.14746   0.00000  Uiso   1.00
C18    C     0.77310   0.71494   0.32346   0.00000  Uiso   1.00
C19    C     0.84641   0.67937   0.33942   0.00000  Uiso   1.00
C20    C     0.84732   0.65714   0.41823   0.00000  Uiso   1.00
C21    C     0.74175   0.81881   0.25535   0.00000  Uiso   1.00
C22    C     0.78871   0.87056   0.21405   0.00000  Uiso   1.00
C23    C     0.76323   0.93578   0.23554   0.00000  Uiso   1.00
H24    H     0.57526   0.77769   0.40040   0.00000  Uiso   1.00
H25    H     0.46426   0.71414   0.32400   0.00000  Uiso   1.00
H26    H     0.64985   0.71569   0.50977   0.00000  Uiso   1.00
H27    H     0.59215   0.90685   0.38442   0.00000  Uiso   1.00
H28    H     0.37204   0.63795   0.21258   0.00000  Uiso   1.00
H29    H     0.76338   0.64125   0.60430   0.00000  Uiso   1.00
H30    H     0.64171   0.04435   0.33998   0.00000  Uiso   1.00
H31    H     0.81289   0.73380   0.19443   0.00000  Uiso   1.00
H32    H     0.71493   0.66784   0.10673   0.00000  Uiso   1.00
H33    H     0.90052   0.66939   0.29250   0.00000  Uiso   1.00
H34    H     0.84282   0.86055   0.16715   0.00000  Uiso   1.00
H35    H     0.57550   0.60037   0.03623   0.00000  Uiso   1.00
H36    H     0.96683   0.60368   0.42795   0.00000  Uiso   1.00
H37    H     0.84516   0.00677   0.16363   0.00000  Uiso   1.00
O38    O     0.40505   0.57654   0.07044   0.00000  Uiso   1.00
O39    O     0.91846   0.58089   0.58436   0.00000  Uiso   1.00
O40    O     0.75883   0.10974   0.23758   0.00000  Uiso   1.00
N41    N     0.43337   0.63817   0.18311   0.00000  Uiso   1.00
N42    N     0.79923   0.64125   0.54934   0.00000  Uiso   1.00
N43    N     0.68550   0.01811   0.30224   0.00000  Uiso   1.00
N44    N     0.54284   0.61795   0.08822   0.00000  Uiso   1.00
N45    N     0.90871   0.62103   0.45444   0.00000  Uiso   1.00
N46    N     0.79497   0.99789   0.20735   0.00000  Uiso   1.00
C47    C     0.12970   0.26764   0.35321   0.00000  Uiso   1.00
C48    C     0.10234   0.22702   0.28314   0.00000  Uiso   1.00
C49    C     0.01836   0.20413   0.27708   0.00000  Uiso   1.00
C50    C     0.00676   0.16782   0.20818   0.00000  Uiso   1.00
C51    C     0.95365   0.10670   0.10861   0.00000  Uiso   1.00
C52    C     0.20317   0.22786   0.38407   0.00000  Uiso   1.00
C53    C     0.20397   0.20568   0.46288   0.00000  Uiso   1.00
C54    C     0.27726   0.17008   0.47895   0.00000  Uiso   1.00
C55    C     0.38072   0.11030   0.53609   0.00000  Uiso   1.00
C56    C     0.17182   0.33172   0.31596   0.00000  Uiso   1.00
C57    C     0.14627   0.39688   0.33752   0.00000  Uiso   1.00
C58    C     0.19317   0.44872   0.29626   0.00000  Uiso   1.00
C59    C     0.24795   0.55020   0.24765   0.00000  Uiso   1.00
C60    C     0.25845   0.24386   0.24162   0.00000  Uiso   1.00
C61    C     0.17228   0.21411   0.22253   0.00000  Uiso   1.00
C62    C     0.16080   0.17782   0.15362   0.00000  Uiso   1.00
C63    C     0.07682   0.15489   0.14746   0.00000  Uiso   1.00
C64    C     0.27310   0.21494   0.32346   0.00000  Uiso   1.00
C65    C     0.34641   0.17937   0.33942   0.00000  Uiso   1.00
C66    C     0.34732   0.15714   0.41823   0.00000  Uiso   1.00
C67    C     0.24175   0.31881   0.25535   0.00000  Uiso   1.00
C68    C     0.28871   0.37056   0.21405   0.00000  Uiso   1.00
C69    C     0.26323   0.43578   0.23554   0.00000  Uiso   1.00
H70    H     0.07526   0.27769   0.40040   0.00000  Uiso   1.00
H71    H     0.96426   0.21414   0.32400   0.00000  Uiso   1.00
H72    H     0.14985   0.21569   0.50977   0.00000  Uiso   1.00
H73    H     0.09215   0.40685   0.38442   0.00000  Uiso   1.00
H74    H     0.87204   0.13795   0.21258   0.00000  Uiso   1.00
H75    H     0.26338   0.14125   0.60430   0.00000  Uiso   1.00
H76    H     0.14171   0.54435   0.33998   0.00000  Uiso   1.00
H77    H     0.31289   0.23380   0.19443   0.00000  Uiso   1.00
H78    H     0.21493   0.16784   0.10673   0.00000  Uiso   1.00
H79    H     0.40052   0.16939   0.29250   0.00000  Uiso   1.00
H80    H     0.34282   0.36055   0.16715   0.00000  Uiso   1.00
H81    H     0.07550   0.10037   0.03623   0.00000  Uiso   1.00
H82    H     0.46683   0.10368   0.42795   0.00000  Uiso   1.00
H83    H     0.34516   0.50677   0.16363   0.00000  Uiso   1.00
O84    O     0.90505   0.07654   0.07044   0.00000  Uiso   1.00
O85    O     0.41846   0.08089   0.58436   0.00000  Uiso   1.00
O86    O     0.25883   0.60974   0.23758   0.00000  Uiso   1.00
N87    N     0.93337   0.13817   0.18311   0.00000  Uiso   1.00
N88    N     0.29923   0.14125   0.54934   0.00000  Uiso   1.00
N89    N     0.18550   0.51811   0.30224   0.00000  Uiso   1.00
N90    N     0.04284   0.11795   0.08822   0.00000  Uiso   1.00
N91    N     0.40871   0.12103   0.45444   0.00000  Uiso   1.00
N92    N     0.29497   0.49789   0.20735   0.00000  Uiso   1.00
C93    C     0.37030   0.76764   0.64679   0.00000  Uiso   1.00
C94    C     0.39766   0.72702   0.71686   0.00000  Uiso   1.00
C95    C     0.48164   0.70413   0.72292   0.00000  Uiso   1.00
C96    C     0.49324   0.66782   0.79182   0.00000  Uiso   1.00
C97    C     0.54635   0.60670   0.89139   0.00000  Uiso   1.00
C98    C     0.29683   0.72786   0.61593   0.00000  Uiso   1.00
C99    C     0.29603   0.70568   0.53712   0.00000  Uiso   1.00
C100   C     0.22274   0.67008   0.52105   0.00000  Uiso   1.00
C101   C     0.11928   0.61030   0.46391   0.00000  Uiso   1.00
C102   C     0.32818   0.83172   0.68404   0.00000  Uiso   1.00
C103   C     0.35373   0.89688   0.66248   0.00000  Uiso   1.00
C104   C     0.30683   0.94872   0.70374   0.00000  Uiso   1.00
C105   C     0.25205   0.05020   0.75235   0.00000  Uiso   1.00
C106   C     0.24155   0.74386   0.75838   0.00000  Uiso   1.00
C107   C     0.32772   0.71411   0.77747   0.00000  Uiso   1.00
C108   C     0.33920   0.67782   0.84638   0.00000  Uiso   1.00
C109   C     0.42318   0.65489   0.85254   0.00000  Uiso   1.00
C110   C     0.22690   0.71494   0.67654   0.00000  Uiso   1.00
C111   C     0.15359   0.67937   0.66058   0.00000  Uiso   1.00
C112   C     0.15268   0.65714   0.58177   0.00000  Uiso   1.00
C113   C     0.25825   0.81881   0.74465   0.00000  Uiso   1.00
C114   C     0.21129   0.87056   0.78595   0.00000  Uiso   1.00
C115   C     0.23677   0.93578   0.76446   0.00000  Uiso   1.00
H116   H     0.42474   0.77769   0.59960   0.00000  Uiso   1.00
H117   H     0.53574   0.71414   0.67600   0.00000  Uiso   1.00
H118   H     0.35015   0.71569   0.49023   0.00000  Uiso   1.00
H119   H     0.40785   0.90685   0.61558   0.00000  Uiso   1.00
H120   H     0.62796   0.63795   0.78742   0.00000  Uiso   1.00
H121   H     0.23662   0.64125   0.39570   0.00000  Uiso   1.00
H122   H     0.35829   0.04435   0.66002   0.00000  Uiso   1.00
H123   H     0.18711   0.73380   0.80557   0.00000  Uiso   1.00
H124   H     0.28507   0.66784   0.89327   0.00000  Uiso   1.00
H125   H     0.09948   0.66939   0.70750   0.00000  Uiso   1.00
H126   H     0.15718   0.86055   0.83285   0.00000  Uiso   1.00
H127   H     0.42450   0.60037   0.96377   0.00000  Uiso   1.00
H128   H     0.03317   0.60368   0.57205   0.00000  Uiso   1.00
H129   H     0.15484   0.00677   0.83637   0.00000  Uiso   1.00
O130   O     0.59495   0.57654   0.92956   0.00000  Uiso   1.00
O131   O     0.08154   0.58089   0.41564   0.00000  Uiso   1.00
O132   O     0.24117   0.10974   0.76242   0.00000  Uiso   1.00
N133   N     0.56663   0.63817   0.81689   0.00000  Uiso   1.00
N134   N     0.20077   0.64125   0.45066   0.00000  Uiso   1.00
N135   N     0.31450   0.01811   0.69776   0.00000  Uiso   1.00
N136   N     0.45716   0.61795   0.91178   0.00000  Uiso   1.00
N137   N     0.09129   0.62103   0.54556   0.00000  Uiso   1.00
N138   N     0.20503   0.99789   0.79265   0.00000  Uiso   1.00
C139   C     0.87030   0.26764   0.64679   0.00000  Uiso   1.00
C140   C     0.89766   0.22702   0.71686   0.00000  Uiso   1.00
C141   C     0.98164   0.20413   0.72292   0.00000  Uiso   1.00
C142   C     0.99324   0.16782   0.79182   0.00000  Uiso   1.00
C143   C     0.04635   0.10670   0.89139   0.00000  Uiso   1.00
C144   C     0.79683   0.22786   0.61593   0.00000  Uiso   1.00
C145   C     0.79603   0.20568   0.53712   0.00000  Uiso   1.00
C146   C     0.72274   0.17008   0.52105   0.00000  Uiso   1.00
C147   C     0.61928   0.11030   0.46391   0.00000  Uiso   1.00
C148   C     0.82818   0.33172   0.68404   0.00000  Uiso   1.00
C149   C     0.85373   0.39688   0.66248   0.00000  Uiso   1.00
C150   C     0.80683   0.44872   0.70374   0.00000  Uiso   1.00
C151   C     0.75205   0.55020   0.75235   0.00000  Uiso   1.00
C152   C     0.74155   0.24386   0.75838   0.00000  Uiso   1.00
C153   C     0.82772   0.21411   0.77747   0.00000  Uiso   1.00
C154   C     0.83920   0.17782   0.84638   0.00000  Uiso   1.00
C155   C     0.92318   0.15489   0.85254   0.00000  Uiso   1.00
C156   C     0.72690   0.21494   0.67654   0.00000  Uiso   1.00
C157   C     0.65359   0.17937   0.66058   0.00000  Uiso   1.00
C158   C     0.65268   0.15714   0.58177   0.00000  Uiso   1.00
C159   C     0.75825   0.31881   0.74465   0.00000  Uiso   1.00
C160   C     0.71129   0.37056   0.78595   0.00000  Uiso   1.00
C161   C     0.73677   0.43578   0.76446   0.00000  Uiso   1.00
H162   H     0.92474   0.27769   0.59960   0.00000  Uiso   1.00
H163   H     0.03574   0.21414   0.67600   0.00000  Uiso   1.00
H164   H     0.85015   0.21569   0.49023   0.00000  Uiso   1.00
H165   H     0.90785   0.40685   0.61558   0.00000  Uiso   1.00
H166   H     0.12796   0.13795   0.78742   0.00000  Uiso   1.00
H167   H     0.73662   0.14125   0.39570   0.00000  Uiso   1.00
H168   H     0.85829   0.54435   0.66002   0.00000  Uiso   1.00
H169   H     0.68711   0.23380   0.80557   0.00000  Uiso   1.00
H170   H     0.78507   0.16784   0.89327   0.00000  Uiso   1.00
H171   H     0.59948   0.16939   0.70750   0.00000  Uiso   1.00
H172   H     0.65718   0.36055   0.83285   0.00000  Uiso   1.00
H173   H     0.92450   0.10037   0.96377   0.00000  Uiso   1.00
H174   H     0.53317   0.10368   0.57205   0.00000  Uiso   1.00
H175   H     0.65484   0.50677   0.83637   0.00000  Uiso   1.00
O176   O     0.09495   0.07654   0.92956   0.00000  Uiso   1.00
O177   O     0.58154   0.08089   0.41564   0.00000  Uiso   1.00
O178   O     0.74117   0.60974   0.76242   0.00000  Uiso   1.00
N179   N     0.06663   0.13817   0.81689   0.00000  Uiso   1.00
N180   N     0.70077   0.14125   0.45066   0.00000  Uiso   1.00
N181   N     0.81450   0.51811   0.69776   0.00000  Uiso   1.00
N182   N     0.95716   0.11795   0.91178   0.00000  Uiso   1.00
N183   N     0.59129   0.12103   0.54556   0.00000  Uiso   1.00
N184   N     0.70503   0.49789   0.79265   0.00000  Uiso   1.00
