data_job_06629
_audit_creation_date              2018-12-19
_audit_creation_method            'Materials Studio'
_symmetry_space_group_name_H-M    'P1'
_symmetry_Int_Tables_number       1
_symmetry_cell_setting            triclinic
loop_
_symmetry_equiv_pos_as_xyz
  x,y,z
_cell_length_a                    19.1318
_cell_length_b                    22.7703
_cell_length_c                    18.7736
_cell_angle_alpha                 101.3320
_cell_angle_beta                  92.6162
_cell_angle_gamma                 105.9980
loop_
_atom_site_label
_atom_site_type_symbol
_atom_site_fract_x
_atom_site_fract_y
_atom_site_fract_z
_atom_site_U_iso_or_equiv
_atom_site_adp_type
_atom_site_occupancy
C1     C     0.18997   0.91646   0.38042   0.00000  Uiso   1.00
C2     C     0.24716   0.97573   0.42219   0.00000  Uiso   1.00
C3     C     0.25870   0.99639   0.49758   0.00000  Uiso   1.00
C4     C     0.31369   0.05177   0.52520   0.00000  Uiso   1.00
C5     C     0.39609   0.13873   0.59708   0.00000  Uiso   1.00
C6     C     0.14382   0.93746   0.32773   0.00000  Uiso   1.00
C7     C     0.06848   0.92593   0.32371   0.00000  Uiso   1.00
C8     C     0.03648   0.94909   0.27180   0.00000  Uiso   1.00
C9     C     0.95844   0.97660   0.19701   0.00000  Uiso   1.00
C10    C     0.23178   0.87841   0.33306   0.00000  Uiso   1.00
C11    C     0.23038   0.81722   0.33350   0.00000  Uiso   1.00
C12    C     0.27243   0.79065   0.28607   0.00000  Uiso   1.00
C13    C     0.33096   0.72647   0.21955   0.00000  Uiso   1.00
C14    C     0.26710   0.97807   0.29539   0.00000  Uiso   1.00
C15    C     0.28905   0.00920   0.37600   0.00000  Uiso   1.00
C16    C     0.34404   0.06456   0.40351   0.00000  Uiso   1.00
C17    C     0.35566   0.08529   0.47893   0.00000  Uiso   1.00
C18    C     0.18571   0.97093   0.28156   0.00000  Uiso   1.00
C19    C     0.15382   0.99410   0.22964   0.00000  Uiso   1.00
C20    C     0.07845   0.98262   0.22554   0.00000  Uiso   1.00
C21    C     0.27368   0.91187   0.28688   0.00000  Uiso   1.00
C22    C     0.31573   0.88539   0.23943   0.00000  Uiso   1.00
C23    C     0.31440   0.82418   0.23980   0.00000  Uiso   1.00
H24    H     0.15735   0.89040   0.41637   0.00000  Uiso   1.00
H25    H     0.22626   0.97048   0.53330   0.00000  Uiso   1.00
H26    H     0.03607   0.90003   0.35945   0.00000  Uiso   1.00
H27    H     0.19796   0.79133   0.36924   0.00000  Uiso   1.00
H28    H     0.32112   0.07403   0.64257   0.00000  Uiso   1.00
H29    H     0.92009   0.92546   0.27598   0.00000  Uiso   1.00
H30    H     0.26146   0.69626   0.29663   0.00000  Uiso   1.00
H31    H     0.29972   0.00413   0.25944   0.00000  Uiso   1.00
H32    H     0.37645   0.09045   0.36776   0.00000  Uiso   1.00
H33    H     0.18625   0.02000   0.19391   0.00000  Uiso   1.00
H34    H     0.34814   0.91130   0.20370   0.00000  Uiso   1.00
H35    H     0.44302   0.17140   0.50822   0.00000  Uiso   1.00
H36    H     0.04198   0.02283   0.14162   0.00000  Uiso   1.00
H37    H     0.38335   0.79363   0.16227   0.00000  Uiso   1.00
O38    O     0.42996   0.17745   0.64949   0.00000  Uiso   1.00
O39    O     0.90382   0.98253   0.16852   0.00000  Uiso   1.00
O40    O     0.35169   0.68182   0.19562   0.00000  Uiso   1.00
N41    N     0.33929   0.08509   0.59609   0.00000  Uiso   1.00
N42    N     0.96435   0.94620   0.25335   0.00000  Uiso   1.00
N43    N     0.28348   0.73191   0.27265   0.00000  Uiso   1.00
N44    N     0.40488   0.13749   0.52379   0.00000  Uiso   1.00
N45    N     0.02994   0.99860   0.18106   0.00000  Uiso   1.00
N46    N     0.34907   0.78430   0.20035   0.00000  Uiso   1.00
C47    C     0.31344   0.36083   0.98771   0.00000  Uiso   1.00
C48    C     0.34970   0.41957   0.04645   0.00000  Uiso   1.00
C49    C     0.42442   0.44772   0.06275   0.00000  Uiso   1.00
C50    C     0.44665   0.50115   0.11842   0.00000  Uiso   1.00
C51    C     0.51067   0.58863   0.20389   0.00000  Uiso   1.00
C52    C     0.26507   0.31460   0.02663   0.00000  Uiso   1.00
C53    C     0.26864   0.25448   0.02625   0.00000  Uiso   1.00
C54    C     0.21963   0.21954   0.06522   0.00000  Uiso   1.00
C55    C     0.15223   0.14403   0.11986   0.00000  Uiso   1.00
C56    C     0.26155   0.37905   0.93794   0.00000  Uiso   1.00
C57    C     0.26213   0.37310   0.86298   0.00000  Uiso   1.00
C58    C     0.21014   0.39241   0.82728   0.00000  Uiso   1.00
C59    C     0.13727   0.41697   0.74421   0.00000  Uiso   1.00
C60    C     0.22005   0.40566   0.05758   0.00000  Uiso   1.00
C61    C     0.29897   0.44392   0.08441   0.00000  Uiso   1.00
C62    C     0.32110   0.49732   0.14006   0.00000  Uiso   1.00
C63    C     0.39584   0.52554   0.15644   0.00000  Uiso   1.00
C64    C     0.21435   0.33894   0.06458   0.00000  Uiso   1.00
C65    C     0.16532   0.30408   0.10356   0.00000  Uiso   1.00
C66    C     0.16881   0.24393   0.10324   0.00000  Uiso   1.00
C67    C     0.21082   0.40340   0.97589   0.00000  Uiso   1.00
C68    C     0.15882   0.42271   0.94029   0.00000  Uiso   1.00
C69    C     0.15932   0.41680   0.86530   0.00000  Uiso   1.00
H70    H     0.35292   0.34187   0.95816   0.00000  Uiso   1.00
H71    H     0.46365   0.42886   0.03338   0.00000  Uiso   1.00
H72    H     0.30789   0.23565   0.99687   0.00000  Uiso   1.00
H73    H     0.30139   0.35426   0.83363   0.00000  Uiso   1.00
H74    H     0.56405   0.53602   0.13352   0.00000  Uiso   1.00
H75    H     0.23560   0.12863   0.05652   0.00000  Uiso   1.00
H76    H     0.22189   0.37873   0.71230   0.00000  Uiso   1.00
H77    H     0.18056   0.42462   0.08713   0.00000  Uiso   1.00
H78    H     0.28183   0.51615   0.16942   0.00000  Uiso   1.00
H79    H     0.12607   0.32294   0.13292   0.00000  Uiso   1.00
H80    H     0.11957   0.44155   0.96968   0.00000  Uiso   1.00
H81    H     0.41648   0.60687   0.24394   0.00000  Uiso   1.00
H82    H     0.08803   0.19947   0.16694   0.00000  Uiso   1.00
H83    H     0.07432   0.44958   0.82272   0.00000  Uiso   1.00
O84    O     0.55999   0.63015   0.24055   0.00000  Uiso   1.00
O85    O     0.12908   0.09566   0.13953   0.00000  Uiso   1.00
O86    O     0.11109   0.42380   0.68791   0.00000  Uiso   1.00
N87    N     0.51542   0.54014   0.14820   0.00000  Uiso   1.00
N88    N     0.20835   0.15925   0.07623   0.00000  Uiso   1.00
N89    N     0.19552   0.39307   0.75440   0.00000  Uiso   1.00
N90    N     0.43601   0.57827   0.20762   0.00000  Uiso   1.00
N91    N     0.12894   0.19737   0.13564   0.00000  Uiso   1.00
N92    N     0.11611   0.43119   0.81382   0.00000  Uiso   1.00
C93    C     0.86103   0.35437   0.33010   0.00000  Uiso   1.00
C94    C     0.92229   0.38589   0.39205   0.00000  Uiso   1.00
C95    C     0.95889   0.44940   0.41135   0.00000  Uiso   1.00
C96    C     0.01327   0.46899   0.46965   0.00000  Uiso   1.00
C97    C     0.10581   0.52438   0.56011   0.00000  Uiso   1.00
C98    C     0.88619   0.30409   0.28085   0.00000  Uiso   1.00
C99    C     0.89240   0.29883   0.20666   0.00000  Uiso   1.00
C100   C     0.91638   0.24956   0.17135   0.00000  Uiso   1.00
C101   C     0.95281   0.17792   0.08916   0.00000  Uiso   1.00
C102   C     0.79622   0.31958   0.36481   0.00000  Uiso   1.00
C103   C     0.72678   0.32733   0.36119   0.00000  Uiso   1.00
C104   C     0.67500   0.29108   0.39655   0.00000  Uiso   1.00
C105   C     0.57175   0.24350   0.44472   0.00000  Uiso   1.00
C106   C     0.89254   0.27622   0.39931   0.00000  Uiso   1.00
C107   C     0.93941   0.34343   0.42964   0.00000  Uiso   1.00
C108   C     0.99374   0.36293   0.48793   0.00000  Uiso   1.00
C109   C     0.03041   0.42647   0.50731   0.00000  Uiso   1.00
C110   C     0.90330   0.26164   0.31845   0.00000  Uiso   1.00
C111   C     0.92726   0.21236   0.28324   0.00000  Uiso   1.00
C112   C     0.93352   0.20703   0.20901   0.00000  Uiso   1.00
C113   C     0.81333   0.27713   0.40241   0.00000  Uiso   1.00
C114   C     0.76165   0.24086   0.43777   0.00000  Uiso   1.00
C115   C     0.69215   0.24855   0.43421   0.00000  Uiso   1.00
H116   H     0.84771   0.38742   0.30082   0.00000  Uiso   1.00
H117   H     0.94563   0.48224   0.38224   0.00000  Uiso   1.00
H118   H     0.87915   0.33168   0.17758   0.00000  Uiso   1.00
H119   H     0.71356   0.36018   0.33209   0.00000  Uiso   1.00
H120   H     0.06176   0.56864   0.48906   0.00000  Uiso   1.00
H121   H     0.92156   0.25117   0.05752   0.00000  Uiso   1.00
H122   H     0.57237   0.31127   0.38334   0.00000  Uiso   1.00
H123   H     0.90586   0.24316   0.42858   0.00000  Uiso   1.00
H124   H     0.00698   0.33007   0.51701   0.00000  Uiso   1.00
H125   H     0.94050   0.17951   0.31235   0.00000  Uiso   1.00
H126   H     0.77491   0.20801   0.46686   0.00000  Uiso   1.00
H127   H     0.11155   0.44514   0.59845   0.00000  Uiso   1.00
H128   H     0.97135   0.12766   0.16691   0.00000  Uiso   1.00
H129   H     0.62217   0.18776   0.49273   0.00000  Uiso   1.00
O130   O     0.15214   0.56666   0.59961   0.00000  Uiso   1.00
O131   O     0.96819   0.15015   0.03344   0.00000  Uiso   1.00
O132   O     0.51007   0.22899   0.46091   0.00000  Uiso   1.00
N133   N     0.05959   0.52765   0.50268   0.00000  Uiso   1.00
N134   N     0.92852   0.23084   0.09922   0.00000  Uiso   1.00
N135   N     0.60206   0.28701   0.40381   0.00000  Uiso   1.00
N136   N     0.08638   0.46119   0.56154   0.00000  Uiso   1.00
N137   N     0.95532   0.16438   0.15808   0.00000  Uiso   1.00
N138   N     0.62885   0.22055   0.46267   0.00000  Uiso   1.00
C139   C     0.74001   0.86483   0.24670   0.00000  Uiso   1.00
C140   C     0.78543   0.91884   0.30706   0.00000  Uiso   1.00
C141   C     0.79391   0.98190   0.31057   0.00000  Uiso   1.00
C142   C     0.83771   0.02407   0.37026   0.00000  Uiso   1.00
C143   C     0.90302   0.11101   0.45578   0.00000  Uiso   1.00
C144   C     0.68556   0.82193   0.28458   0.00000  Uiso   1.00
C145   C     0.61006   0.80349   0.26918   0.00000  Uiso   1.00
C146   C     0.56979   0.76406   0.30993   0.00000  Uiso   1.00
C147   C     0.48005   0.70050   0.36050   0.00000  Uiso   1.00
C148   C     0.79202   0.82819   0.21681   0.00000  Uiso   1.00
C149   C     0.80602   0.81501   0.14442   0.00000  Uiso   1.00
C150   C     0.85536   0.78085   0.12812   0.00000  Uiso   1.00
C151   C     0.93092   0.72702   0.07346   0.00000  Uiso   1.00
C152   C     0.80273   0.82757   0.34646   0.00000  Uiso   1.00
C153   C     0.81950   0.89860   0.36125   0.00000  Uiso   1.00
C154   C     0.86330   0.94068   0.42095   0.00000  Uiso   1.00
C155   C     0.87184   0.00379   0.42455   0.00000  Uiso   1.00
C156   C     0.71962   0.80169   0.33877   0.00000  Uiso   1.00
C157   C     0.67945   0.76227   0.37955   0.00000  Uiso   1.00
C158   C     0.60391   0.74379   0.36422   0.00000  Uiso   1.00
C159   C     0.82609   0.80796   0.27100   0.00000  Uiso   1.00
C160   C     0.87541   0.77380   0.25480   0.00000  Uiso   1.00
C161   C     0.88949   0.76057   0.18240   0.00000  Uiso   1.00
H162   H     0.71349   0.88058   0.20451   0.00000  Uiso   1.00
H163   H     0.76753   0.99754   0.26863   0.00000  Uiso   1.00
H164   H     0.58371   0.81916   0.22724   0.00000  Uiso   1.00
H165   H     0.77965   0.83068   0.10250   0.00000  Uiso   1.00
H166   H     0.84245   0.11829   0.36363   0.00000  Uiso   1.00
H167   H     0.45486   0.74213   0.27633   0.00000  Uiso   1.00
H168   H     0.86802   0.76643   0.01330   0.00000  Uiso   1.00
H169   H     0.82925   0.81182   0.38865   0.00000  Uiso   1.00
H170   H     0.88965   0.92501   0.46288   0.00000  Uiso   1.00
H171   H     0.70583   0.74662   0.42148   0.00000  Uiso   1.00
H172   H     0.90176   0.75815   0.29675   0.00000  Uiso   1.00
H173   H     0.94157   0.05942   0.52129   0.00000  Uiso   1.00
H174   H     0.55398   0.68326   0.43399   0.00000  Uiso   1.00
H175   H     0.96714   0.70756   0.17096   0.00000  Uiso   1.00
O176   O     0.92963   0.16455   0.48798   0.00000  Uiso   1.00
O177   O     0.42113   0.67104   0.37343   0.00000  Uiso   1.00
O178   O     0.96319   0.70293   0.02835   0.00000  Uiso   1.00
N179   N     0.85750   0.08890   0.39054   0.00000  Uiso   1.00
N180   N     0.49513   0.73722   0.30893   0.00000  Uiso   1.00
N181   N     0.88138   0.75993   0.06302   0.00000  Uiso   1.00
N182   N     0.91083   0.05722   0.47538   0.00000  Uiso   1.00
N183   N     0.54846   0.70554   0.39376   0.00000  Uiso   1.00
N184   N     0.93471   0.72825   0.14785   0.00000  Uiso   1.00
C185   C     0.88236   0.41170   0.70319   0.00000  Uiso   1.00
C186   C     0.92310   0.47179   0.75804   0.00000  Uiso   1.00
C187   C     0.99578   0.50545   0.75901   0.00000  Uiso   1.00
C188   C     0.02286   0.55921   0.81364   0.00000  Uiso   1.00
C189   C     0.09281   0.64959   0.89092   0.00000  Uiso   1.00
C190   C     0.81595   0.42458   0.66868   0.00000  Uiso   1.00
C191   C     0.79853   0.41853   0.59450   0.00000  Uiso   1.00
C192   C     0.73541   0.43254   0.57391   0.00000  Uiso   1.00
C193   C     0.63897   0.44959   0.51244   0.00000  Uiso   1.00
C194   C     0.85244   0.36314   0.74817   0.00000  Uiso   1.00
C195   C     0.86568   0.30542   0.74081   0.00000  Uiso   1.00
C196   C     0.83327   0.26770   0.78714   0.00000  Uiso   1.00
C197   C     0.79349   0.18935   0.84909   0.00000  Uiso   1.00
C198   C     0.80122   0.44733   0.79851   0.00000  Uiso   1.00
C199   C     0.87902   0.49115   0.80982   0.00000  Uiso   1.00
C200   C     0.90601   0.54487   0.86447   0.00000  Uiso   1.00
C201   C     0.97872   0.57859   0.86551   0.00000  Uiso   1.00
C202   C     0.77188   0.44393   0.72045   0.00000  Uiso   1.00
C203   C     0.70876   0.45795   0.69996   0.00000  Uiso   1.00
C204   C     0.69126   0.45193   0.62578   0.00000  Uiso   1.00
C205   C     0.80837   0.38250   0.79994   0.00000  Uiso   1.00
C206   C     0.77592   0.34485   0.84628   0.00000  Uiso   1.00
C207   C     0.78912   0.28709   0.83901   0.00000  Uiso   1.00
H208   H     0.91667   0.39663   0.66288   0.00000  Uiso   1.00
H209   H     0.02986   0.49046   0.71892   0.00000  Uiso   1.00
H210   H     0.83264   0.40355   0.55445   0.00000  Uiso   1.00
H211   H     0.89979   0.29046   0.70074   0.00000  Uiso   1.00
H212   H     0.13592   0.60303   0.80388   0.00000  Uiso   1.00
H213   H     0.72006   0.41976   0.45707   0.00000  Uiso   1.00
H214   H     0.86165   0.18129   0.76556   0.00000  Uiso   1.00
H215   H     0.76691   0.46240   0.83882   0.00000  Uiso   1.00
H216   H     0.87189   0.55983   0.90453   0.00000  Uiso   1.00
H217   H     0.67467   0.47293   0.74005   0.00000  Uiso   1.00
H218   H     0.74182   0.35984   0.88634   0.00000  Uiso   1.00
H219   H     0.00770   0.65934   0.95452   0.00000  Uiso   1.00
H220   H     0.59184   0.47606   0.60770   0.00000  Uiso   1.00
H221   H     0.73343   0.23761   0.91620   0.00000  Uiso   1.00
O222   O     0.14356   0.69410   0.91923   0.00000  Uiso   1.00
O223   O     0.59796   0.45365   0.46423   0.00000  Uiso   1.00
O224   O     0.78373   0.14079   0.86896   0.00000  Uiso   1.00
N225   N     0.09134   0.60290   0.83032   0.00000  Uiso   1.00
N226   N     0.70254   0.43156   0.50608   0.00000  Uiso   1.00
N227   N     0.83490   0.20861   0.79447   0.00000  Uiso   1.00
N228   N     0.02235   0.63320   0.91138   0.00000  Uiso   1.00
N229   N     0.63355   0.46186   0.58713   0.00000  Uiso   1.00
N230   N     0.76591   0.23891   0.87553   0.00000  Uiso   1.00
C231   C     0.49910   0.87296   0.87043   0.00000  Uiso   1.00
C232   C     0.56046   0.93220   0.90443   0.00000  Uiso   1.00
C233   C     0.57672   0.95909   0.97849   0.00000  Uiso   1.00
C234   C     0.63501   0.01326   0.99859   0.00000  Uiso   1.00
C235   C     0.72413   0.10124   0.05931   0.00000  Uiso   1.00
C236   C     0.53549   0.82850   0.82558   0.00000  Uiso   1.00
C237   C     0.53075   0.76820   0.83334   0.00000  Uiso   1.00
C238   C     0.56801   0.73507   0.78704   0.00000  Uiso   1.00
C239   C     0.61832   0.66203   0.72531   0.00000  Uiso   1.00
C240   C     0.45248   0.89133   0.81550   0.00000  Uiso   1.00
C241   C     0.37795   0.88383   0.81476   0.00000  Uiso   1.00
C242   C     0.34531   0.90358   0.75997   0.00000  Uiso   1.00
C243   C     0.26675   0.92808   0.68259   0.00000  Uiso   1.00
C244   C     0.57369   0.92134   0.77442   0.00000  Uiso   1.00
C245   C     0.60097   0.95848   0.85228   0.00000  Uiso   1.00
C246   C     0.65924   0.01262   0.87226   0.00000  Uiso   1.00
C247   C     0.67559   0.03959   0.94634   0.00000  Uiso   1.00
C248   C     0.57600   0.85478   0.77343   0.00000  Uiso   1.00
C249   C     0.61327   0.82173   0.72711   0.00000  Uiso   1.00
C250   C     0.60859   0.76139   0.73480   0.00000  Uiso   1.00
C251   C     0.49300   0.91761   0.76334   0.00000  Uiso   1.00
C252   C     0.46047   0.93736   0.70854   0.00000  Uiso   1.00
C253   C     0.38590   0.92990   0.70773   0.00000  Uiso   1.00
H254   H     0.46757   0.85250   0.91103   0.00000  Uiso   1.00
H255   H     0.54536   0.93874   0.01883   0.00000  Uiso   1.00
H256   H     0.49939   0.74787   0.87369   0.00000  Uiso   1.00
H257   H     0.34661   0.86349   0.85513   0.00000  Uiso   1.00
H258   H     0.64950   0.04593   0.11535   0.00000  Uiso   1.00
H259   H     0.55254   0.64347   0.80931   0.00000  Uiso   1.00
H260   H     0.23038   0.88727   0.77016   0.00000  Uiso   1.00
H261   H     0.60523   0.94180   0.73381   0.00000  Uiso   1.00
H262   H     0.69059   0.03295   0.83189   0.00000  Uiso   1.00
H263   H     0.64461   0.84208   0.68676   0.00000  Uiso   1.00
H264   H     0.49184   0.95770   0.66819   0.00000  Uiso   1.00
H265   H     0.76737   0.12239   0.96363   0.00000  Uiso   1.00
H266   H     0.67041   0.71993   0.65758   0.00000  Uiso   1.00
H267   H     0.34825   0.96373   0.61843   0.00000  Uiso   1.00
O268   O     0.76211   0.14250   0.10721   0.00000  Uiso   1.00
O269   O     0.63489   0.61448   0.70568   0.00000  Uiso   1.00
O270   O     0.21223   0.93434   0.65432   0.00000  Uiso   1.00
N271   N     0.66551   0.05142   0.06618   0.00000  Uiso   1.00
N272   N     0.57487   0.67515   0.78005   0.00000  Uiso   1.00
N273   N     0.27368   0.90307   0.74344   0.00000  Uiso   1.00
N274   N     0.72894   0.09257   0.98454   0.00000  Uiso   1.00
N275   N     0.63830   0.71630   0.69841   0.00000  Uiso   1.00
N276   N     0.33711   0.94421   0.66180   0.00000  Uiso   1.00
C277   C     0.73924   0.11804   0.57928   0.00000  Uiso   1.00
C278   C     0.68291   0.06164   0.53088   0.00000  Uiso   1.00
C279   C     0.67364   0.04801   0.45508   0.00000  Uiso   1.00
C280   C     0.61908   0.99419   0.42092   0.00000  Uiso   1.00
C281   C     0.53828   0.91250   0.33964   0.00000  Uiso   1.00
C282   C     0.78358   0.09163   0.62750   0.00000  Uiso   1.00
C283   C     0.85897   0.10322   0.63293   0.00000  Uiso   1.00
C284   C     0.88915   0.07466   0.68011   0.00000  Uiso   1.00
C285   C     0.96466   0.03957   0.74887   0.00000  Uiso   1.00
C286   C     0.69613   0.15195   0.63025   0.00000  Uiso   1.00
C287   C     0.69800   0.21427   0.63803   0.00000  Uiso   1.00
C288   C     0.65457   0.23649   0.68754   0.00000  Uiso   1.00
C289   C     0.59428   0.29505   0.76059   0.00000  Uiso   1.00
C290   C     0.65882   0.04671   0.65340   0.00000  Uiso   1.00
C291   C     0.63923   0.02290   0.57114   0.00000  Uiso   1.00
C292   C     0.58467   0.96909   0.53708   0.00000  Uiso   1.00
C293   C     0.57532   0.95538   0.46124   0.00000  Uiso   1.00
C294   C     0.73991   0.05289   0.66775   0.00000  Uiso   1.00
C295   C     0.76999   0.02430   0.71494   0.00000  Uiso   1.00
C296   C     0.84540   0.03584   0.72044   0.00000  Uiso   1.00
C297   C     0.65245   0.11321   0.67051   0.00000  Uiso   1.00
C298   C     0.60901   0.13534   0.72003   0.00000  Uiso   1.00
C299   C     0.61081   0.19767   0.72787   0.00000  Uiso   1.00
H300   H     0.77326   0.14820   0.54794   0.00000  Uiso   1.00
H301   H     0.70746   0.07800   0.42394   0.00000  Uiso   1.00
H302   H     0.89276   0.13321   0.60178   0.00000  Uiso   1.00
H303   H     0.73180   0.24423   0.60687   0.00000  Uiso   1.00
H304   H     0.61527   0.98307   0.30423   0.00000  Uiso   1.00
H305   H     0.00598   0.09951   0.67921   0.00000  Uiso   1.00
H306   H     0.66658   0.33362   0.68995   0.00000  Uiso   1.00
H307   H     0.62482   0.01654   0.68474   0.00000  Uiso   1.00
H308   H     0.55087   0.93911   0.56825   0.00000  Uiso   1.00
H309   H     0.73617   0.99433   0.74608   0.00000  Uiso   1.00
H310   H     0.57522   0.10535   0.75117   0.00000  Uiso   1.00
H311   H     0.48818   0.87034   0.42135   0.00000  Uiso   1.00
H312   H     0.87889   0.98678   0.79634   0.00000  Uiso   1.00
H313   H     0.53949   0.22089   0.80708   0.00000  Uiso   1.00
O314   O     0.50578   0.87814   0.28369   0.00000  Uiso   1.00
O315   O     0.01837   0.03091   0.77567   0.00000  Uiso   1.00
O316   O     0.57309   0.33805   0.78975   0.00000  Uiso   1.00
N317   N     0.59550   0.96717   0.34778   0.00000  Uiso   1.00
N318   N     0.96078   0.07603   0.69836   0.00000  Uiso   1.00
N319   N     0.64350   0.29490   0.70841   0.00000  Uiso   1.00
N320   N     0.52711   0.90651   0.41080   0.00000  Uiso   1.00
N321   N     0.89240   0.01537   0.76138   0.00000  Uiso   1.00
N322   N     0.57511   0.23425   0.77144   0.00000  Uiso   1.00
C323   C     0.61788   0.69696   0.00571   0.00000  Uiso   1.00
C324   C     0.57662   0.63885   0.94816   0.00000  Uiso   1.00
C325   C     0.50144   0.61778   0.93000   0.00000  Uiso   1.00
C326   C     0.47429   0.56366   0.87588   0.00000  Uiso   1.00
C327   C     0.40317   0.47831   0.79177   0.00000  Uiso   1.00
C328   C     0.67367   0.73729   0.96640   0.00000  Uiso   1.00
C329   C     0.68009   0.79899   0.96359   0.00000  Uiso   1.00
C330   C     0.73466   0.82774   0.92483   0.00000  Uiso   1.00
C331   C     0.81424   0.89523   0.86908   0.00000  Uiso   1.00
C332   C     0.66193   0.67454   0.05882   0.00000  Uiso   1.00
C333   C     0.65849   0.68349   0.13371   0.00000  Uiso   1.00
C334   C     0.70319   0.65942   0.17276   0.00000  Uiso   1.00
C335   C     0.76454   0.62948   0.26051   0.00000  Uiso   1.00
C336   C     0.70337   0.63832   0.94188   0.00000  Uiso   1.00
C337   C     0.62306   0.60701   0.91349   0.00000  Uiso   1.00
C338   C     0.59602   0.55291   0.85939   0.00000  Uiso   1.00
C339   C     0.52081   0.53175   0.84115   0.00000  Uiso   1.00
C340   C     0.72011   0.70545   0.93173   0.00000  Uiso   1.00
C341   C     0.77468   0.73412   0.89297   0.00000  Uiso   1.00
C342   C     0.78118   0.79584   0.89010   0.00000  Uiso   1.00
C343   C     0.70836   0.64269   0.02415   0.00000  Uiso   1.00
C344   C     0.75308   0.61861   0.06309   0.00000  Uiso   1.00
C345   C     0.74971   0.62752   0.13803   0.00000  Uiso   1.00
H346   H     0.58173   0.72176   0.03270   0.00000  Uiso   1.00
H347   H     0.46552   0.64244   0.95684   0.00000  Uiso   1.00
H348   H     0.64415   0.82363   0.99043   0.00000  Uiso   1.00
H349   H     0.62255   0.70814   0.16052   0.00000  Uiso   1.00
H350   H     0.35716   0.54048   0.85743   0.00000  Uiso   1.00
H351   H     0.73384   0.92252   0.92827   0.00000  Uiso   1.00
H352   H     0.68829   0.67900   0.28695   0.00000  Uiso   1.00
H353   H     0.73952   0.61352   0.91489   0.00000  Uiso   1.00
H354   H     0.63197   0.52827   0.83257   0.00000  Uiso   1.00
H355   H     0.81060   0.70946   0.86616   0.00000  Uiso   1.00
H356   H     0.78900   0.59397   0.03625   0.00000  Uiso   1.00
H357   H     0.49226   0.44781   0.75656   0.00000  Uiso   1.00
H358   H     0.86894   0.82986   0.82741   0.00000  Uiso   1.00
H359   H     0.82339   0.58633   0.18609   0.00000  Uiso   1.00
O360   O     0.35111   0.44003   0.75495   0.00000  Uiso   1.00
O361   O     0.84530   0.94126   0.84791   0.00000  Uiso   1.00
O362   O     0.78555   0.62175   0.31848   0.00000  Uiso   1.00
N363   N     0.40372   0.53036   0.84500   0.00000  Uiso   1.00
N364   N     0.75588   0.88755   0.91122   0.00000  Uiso   1.00
N365   N     0.71331   0.65989   0.24656   0.00000  Uiso   1.00
N366   N     0.47641   0.48050   0.79072   0.00000  Uiso   1.00
N367   N     0.82857   0.83768   0.85695   0.00000  Uiso   1.00
N368   N     0.78601   0.61002   0.19229   0.00000  Uiso   1.00
C369   C     0.09137   0.71400   0.65609   0.00000  Uiso   1.00
C370   C     0.02491   0.68253   0.59977   0.00000  Uiso   1.00
C371   C     0.98536   0.61968   0.58532   0.00000  Uiso   1.00
C372   C     0.92635   0.60000   0.53174   0.00000  Uiso   1.00
C373   C     0.82598   0.54478   0.45005   0.00000  Uiso   1.00
C374   C     0.07280   0.76754   0.70655   0.00000  Uiso   1.00
C375   C     0.07352   0.77618   0.78188   0.00000  Uiso   1.00
C376   C     0.05483   0.82808   0.81819   0.00000  Uiso   1.00
C377   C     0.02886   0.90488   0.90229   0.00000  Uiso   1.00
C378   C     0.15276   0.74458   0.61437   0.00000  Uiso   1.00
C379   C     0.22072   0.73393   0.61221   0.00000  Uiso   1.00
C380   C     0.26935   0.76651   0.57093   0.00000  Uiso   1.00
C381   C     0.36753   0.80766   0.51190   0.00000  Uiso   1.00
C382   C     0.05689   0.79082   0.58665   0.00000  Uiso   1.00
C383   C     0.00618   0.72425   0.56205   0.00000  Uiso   1.00
C384   C     0.94721   0.70466   0.50848   0.00000  Uiso   1.00
C385   C     0.90758   0.64179   0.49395   0.00000  Uiso   1.00
C386   C     0.05407   0.80927   0.66884   0.00000  Uiso   1.00
C387   C     0.03537   0.86116   0.70505   0.00000  Uiso   1.00
C388   C     0.03607   0.86987   0.78041   0.00000  Uiso   1.00
C389   C     0.13403   0.78631   0.57665   0.00000  Uiso   1.00
C390   C     0.18257   0.81891   0.53537   0.00000  Uiso   1.00
C391   C     0.25059   0.80831   0.53314   0.00000  Uiso   1.00
H392   H     0.10595   0.68153   0.68546   0.00000  Uiso   1.00
H393   H     0.99987   0.58741   0.61452   0.00000  Uiso   1.00
H394   H     0.08803   0.74389   0.81105   0.00000  Uiso   1.00
H395   H     0.23520   0.70164   0.64141   0.00000  Uiso   1.00
H396   H     0.87399   0.50146   0.51926   0.00000  Uiso   1.00
H397   H     0.05989   0.83142   0.93366   0.00000  Uiso   1.00
H398   H     0.37023   0.74234   0.57592   0.00000  Uiso   1.00
H399   H     0.04230   0.82330   0.55728   0.00000  Uiso   1.00
H400   H     0.93273   0.73696   0.47930   0.00000  Uiso   1.00
H401   H     0.02089   0.89344   0.67584   0.00000  Uiso   1.00
H402   H     0.16806   0.85119   0.50619   0.00000  Uiso   1.00
H403   H     0.81949   0.62284   0.40951   0.00000  Uiso   1.00
H404   H     0.00540   0.95281   0.82391   0.00000  Uiso   1.00
H405   H     0.31574   0.86372   0.46618   0.00000  Uiso   1.00
O406   O     0.77579   0.50280   0.41542   0.00000  Uiso   1.00
O407   O     0.01971   0.93570   0.95909   0.00000  Uiso   1.00
O408   O     0.42686   0.81883   0.48975   0.00000  Uiso   1.00
N409   N     0.87621   0.54187   0.50412   0.00000  Uiso   1.00
N410   N     0.05001   0.85037   0.89156   0.00000  Uiso   1.00
N411   N     0.34015   0.76709   0.55712   0.00000  Uiso   1.00
N412   N     0.84689   0.60719   0.44506   0.00000  Uiso   1.00
N413   N     0.02068   0.91568   0.83250   0.00000  Uiso   1.00
N414   N     0.31083   0.83241   0.49807   0.00000  Uiso   1.00
C415   C     0.20170   0.17823   0.74727   0.00000  Uiso   1.00
C416   C     0.15980   0.12681   0.68252   0.00000  Uiso   1.00
C417   C     0.15665   0.06403   0.67163   0.00000  Uiso   1.00
C418   C     0.11537   0.02441   0.60894   0.00000  Uiso   1.00
C419   C     0.05593   0.94116   0.51598   0.00000  Uiso   1.00
C420   C     0.25319   0.22778   0.71487   0.00000  Uiso   1.00
C421   C     0.32858   0.24990   0.73118   0.00000  Uiso   1.00
C422   C     0.36592   0.29528   0.69574   0.00000  Uiso   1.00
C423   C     0.45147   0.36883   0.65304   0.00000  Uiso   1.00
C424   C     0.14570   0.20839   0.78140   0.00000  Uiso   1.00
C425   C     0.13072   0.21421   0.85366   0.00000  Uiso   1.00
C426   C     0.07756   0.24328   0.87424   0.00000  Uiso   1.00
C427   C     0.99622   0.28671   0.93484   0.00000  Uiso   1.00
C428   C     0.13397   0.21952   0.65532   0.00000  Uiso   1.00
C429   C     0.12301   0.14924   0.63257   0.00000  Uiso   1.00
C430   C     0.08172   0.10970   0.56989   0.00000  Uiso   1.00
C431   C     0.07852   0.04687   0.55891   0.00000  Uiso   1.00
C432   C     0.21641   0.25021   0.66492   0.00000  Uiso   1.00
C433   C     0.25365   0.29557   0.62945   0.00000  Uiso   1.00
C434   C     0.32907   0.31775   0.64571   0.00000  Uiso   1.00
C435   C     0.10891   0.23081   0.73146   0.00000  Uiso   1.00
C436   C     0.05578   0.25988   0.75193   0.00000  Uiso   1.00
C437   C     0.04071   0.26575   0.82421   0.00000  Uiso   1.00
H438   H     0.23034   0.16077   0.78615   0.00000  Uiso   1.00
H439   H     0.18514   0.04669   0.71029   0.00000  Uiso   1.00
H440   H     0.35703   0.23254   0.76984   0.00000  Uiso   1.00
H441   H     0.15919   0.19685   0.89229   0.00000  Uiso   1.00
H442   H     0.11881   0.93010   0.60414   0.00000  Uiso   1.00
H443   H     0.48126   0.32198   0.72973   0.00000  Uiso   1.00
H444   H     0.06409   0.24674   0.98796   0.00000  Uiso   1.00
H445   H     0.10533   0.23698   0.61643   0.00000  Uiso   1.00
H446   H     0.05326   0.12707   0.53125   0.00000  Uiso   1.00
H447   H     0.22516   0.31292   0.59081   0.00000  Uiso   1.00
H448   H     0.02732   0.27723   0.71326   0.00000  Uiso   1.00
H449   H     0.01178   0.99534   0.45883   0.00000  Uiso   1.00
H450   H     0.37423   0.38723   0.58442   0.00000  Uiso   1.00
H451   H     0.95705   0.31198   0.84264   0.00000  Uiso   1.00
O452   O     0.03332   0.88906   0.47850   0.00000  Uiso   1.00
O453   O     0.50883   0.40320   0.64329   0.00000  Uiso   1.00
O454   O     0.96151   0.30447   0.98207   0.00000  Uiso   1.00
N455   N     0.10076   0.96054   0.58164   0.00000  Uiso   1.00
N456   N     0.43963   0.32692   0.69905   0.00000  Uiso   1.00
N457   N     0.04962   0.25658   0.94047   0.00000  Uiso   1.00
N458   N     0.04316   0.99564   0.50345   0.00000  Uiso   1.00
N459   N     0.38203   0.36202   0.62086   0.00000  Uiso   1.00
N460   N     0.99202   0.29169   0.86228   0.00000  Uiso   1.00
C461   C     0.04904   0.63275   0.29715   0.00000  Uiso   1.00
C462   C     0.98455   0.57657   0.26144   0.00000  Uiso   1.00
C463   C     0.91452   0.56332   0.28306   0.00000  Uiso   1.00
C464   C     0.86320   0.50965   0.24332   0.00000  Uiso   1.00
C465   C     0.76032   0.42833   0.19690   0.00000  Uiso   1.00
C466   C     0.10969   0.60600   0.31874   0.00000  Uiso   1.00
C467   C     0.14488   0.61750   0.38854   0.00000  Uiso   1.00
C468   C     0.19891   0.58861   0.39703   0.00000  Uiso   1.00
C469   C     0.29035   0.55302   0.43956   0.00000  Uiso   1.00
C470   C     0.07576   0.66649   0.23657   0.00000  Uiso   1.00
C471   C     0.08243   0.72887   0.23728   0.00000  Uiso   1.00
C472   C     0.10791   0.75091   0.17660   0.00000  Uiso   1.00
C473   C     0.14666   0.80924   0.09155   0.00000  Uiso   1.00
C474   C     0.08243   0.56099   0.18813   0.00000  Uiso   1.00
C475   C     0.00270   0.53759   0.20222   0.00000  Uiso   1.00
C476   C     0.95147   0.48393   0.16244   0.00000  Uiso   1.00
C477   C     0.88137   0.47060   0.18399   0.00000  Uiso   1.00
C478   C     0.12783   0.56702   0.25953   0.00000  Uiso   1.00
C479   C     0.18183   0.53811   0.26792   0.00000  Uiso   1.00
C480   C     0.21708   0.54956   0.33771   0.00000  Uiso   1.00
C481   C     0.09390   0.62751   0.17735   0.00000  Uiso   1.00
C482   C     0.11937   0.64947   0.11666   0.00000  Uiso   1.00
C483   C     0.12608   0.71186   0.11728   0.00000  Uiso   1.00
H484   H     0.03492   0.66309   0.34325   0.00000  Uiso   1.00
H485   H     0.90051   0.59349   0.32889   0.00000  Uiso   1.00
H486   H     0.13084   0.64767   0.43435   0.00000  Uiso   1.00
H487   H     0.06839   0.75901   0.28311   0.00000  Uiso   1.00
H488   H     0.75949   0.49913   0.28687   0.00000  Uiso   1.00
H489   H     0.24517   0.61339   0.50923   0.00000  Uiso   1.00
H490   H     0.11350   0.84817   0.19032   0.00000  Uiso   1.00
H491   H     0.09656   0.53064   0.14203   0.00000  Uiso   1.00
H492   H     0.96552   0.45377   0.11662   0.00000  Uiso   1.00
H493   H     0.19585   0.50795   0.22208   0.00000  Uiso   1.00
H494   H     0.13341   0.61929   0.07085   0.00000  Uiso   1.00
H495   H     0.81226   0.38573   0.11458   0.00000  Uiso   1.00
H496   H     0.29794   0.49999   0.33695   0.00000  Uiso   1.00
H497   H     0.16626   0.73477   0.01804   0.00000  Uiso   1.00
O498   O     0.69857   0.39424   0.18766   0.00000  Uiso   1.00
O499   O     0.33577   0.54415   0.47938   0.00000  Uiso   1.00
O500   O     0.16301   0.85218   0.06099   0.00000  Uiso   1.00
N501   N     0.78989   0.48300   0.24980   0.00000  Uiso   1.00
N502   N     0.24396   0.58981   0.45769   0.00000  Uiso   1.00
N503   N     0.12088   0.80932   0.15955   0.00000  Uiso   1.00
N504   N     0.81828   0.42197   0.15709   0.00000  Uiso   1.00
N505   N     0.27235   0.52879   0.36499   0.00000  Uiso   1.00
N506   N     0.14927   0.74830   0.06685   0.00000  Uiso   1.00
C507   C     0.45899   0.17636   0.10677   0.00000  Uiso   1.00
C508   C     0.40055   0.11534   0.07216   0.00000  Uiso   1.00
C509   C     0.38470   0.08918   0.99790   0.00000  Uiso   1.00
C510   C     0.32925   0.03310   0.97723   0.00000  Uiso   1.00
C511   C     0.24429   0.94276   0.91560   0.00000  Uiso   1.00
C512   C     0.41955   0.21748   0.15286   0.00000  Uiso   1.00
C513   C     0.41970   0.27720   0.14645   0.00000  Uiso   1.00
C514   C     0.38025   0.30711   0.19371   0.00000  Uiso   1.00
C515   C     0.32483   0.37536   0.25741   0.00000  Uiso   1.00
C516   C     0.50869   0.15988   0.16063   0.00000  Uiso   1.00
C517   C     0.58379   0.17119   0.16078   0.00000  Uiso   1.00
C518   C     0.61940   0.15262   0.21461   0.00000  Uiso   1.00
C519   C     0.70238   0.13144   0.29038   0.00000  Uiso   1.00
C520   C     0.38869   0.12328   0.20211   0.00000  Uiso   1.00
C521   C     0.36236   0.08651   0.12395   0.00000  Uiso   1.00
C522   C     0.30692   0.03046   0.10338   0.00000  Uiso   1.00
C523   C     0.29100   0.00422   0.02910   0.00000  Uiso   1.00
C524   C     0.38137   0.18865   0.20464   0.00000  Uiso   1.00
C525   C     0.34191   0.21848   0.25193   0.00000  Uiso   1.00
C526   C     0.34199   0.27823   0.24560   0.00000  Uiso   1.00
C527   C     0.47051   0.13105   0.21242   0.00000  Uiso   1.00
C528   C     0.50600   0.11246   0.26626   0.00000  Uiso   1.00
C529   C     0.58114   0.12374   0.26649   0.00000  Uiso   1.00
H530   H     0.48872   0.19881   0.06646   0.00000  Uiso   1.00
H531   H     0.41427   0.11151   0.95784   0.00000  Uiso   1.00
H532   H     0.44926   0.29950   0.10637   0.00000  Uiso   1.00
H533   H     0.61333   0.19351   0.12070   0.00000  Uiso   1.00
H534   H     0.31486   0.00203   0.86025   0.00000  Uiso   1.00
H535   H     0.38866   0.39843   0.17346   0.00000  Uiso   1.00
H536   H     0.73463   0.17491   0.20367   0.00000  Uiso   1.00
H537   H     0.35896   0.10083   0.24244   0.00000  Uiso   1.00
H538   H     0.27738   0.00816   0.14347   0.00000  Uiso   1.00
H539   H     0.31237   0.19615   0.29200   0.00000  Uiso   1.00
H540   H     0.47643   0.09016   0.30633   0.00000  Uiso   1.00
H541   H     0.20375   0.91814   0.01092   0.00000  Uiso   1.00
H542   H     0.27756   0.31455   0.32413   0.00000  Uiso   1.00
H543   H     0.62352   0.09103   0.35433   0.00000  Uiso   1.00
O544   O     0.20796   0.90090   0.86731   0.00000  Uiso   1.00
O545   O     0.30481   0.42096   0.27823   0.00000  Uiso   1.00
O546   O     0.75871   0.12772   0.31786   0.00000  Uiso   1.00
N547   N     0.29991   0.99500   0.90929   0.00000  Uiso   1.00
N548   N     0.36891   0.36560   0.20211   0.00000  Uiso   1.00
N549   N     0.69236   0.15665   0.23037   0.00000  Uiso   1.00
N550   N     0.24013   0.94986   0.99037   0.00000  Uiso   1.00
N551   N     0.30912   0.32047   0.28319   0.00000  Uiso   1.00
N552   N     0.63258   0.11152   0.31144   0.00000  Uiso   1.00
