data_job_02699
_audit_creation_date              2018-12-19
_audit_creation_method            'Materials Studio'
_symmetry_space_group_name_H-M    'P1'
_symmetry_Int_Tables_number       1
_symmetry_cell_setting            triclinic
loop_
_symmetry_equiv_pos_as_xyz
  x,y,z
_cell_length_a                    27.8067
_cell_length_b                    10.3386
_cell_length_c                    19.3586
_cell_angle_alpha                 90.0000
_cell_angle_beta                  90.0000
_cell_angle_gamma                 90.0000
loop_
_atom_site_label
_atom_site_type_symbol
_atom_site_fract_x
_atom_site_fract_y
_atom_site_fract_z
_atom_site_U_iso_or_equiv
_atom_site_adp_type
_atom_site_occupancy
C1     C     0.84929   0.01894   0.32027   0.00000  Uiso   1.00
C2     C     0.82740   0.10483   0.26448   0.00000  Uiso   1.00
C3     C     0.77900   0.13516   0.25786   0.00000  Uiso   1.00
C4     C     0.76619   0.21531   0.20334   0.00000  Uiso   1.00
C5     C     0.72697   0.34132   0.12372   0.00000  Uiso   1.00
C6     C     0.87619   0.91194   0.28223   0.00000  Uiso   1.00
C7     C     0.86882   0.78009   0.29054   0.00000  Uiso   1.00
C8     C     0.89709   0.69787   0.25096   0.00000  Uiso   1.00
C9     C     0.93364   0.52442   0.19893   0.00000  Uiso   1.00
C10    C     0.88767   0.10061   0.35580   0.00000  Uiso   1.00
C11    C     0.88996   0.12736   0.42598   0.00000  Uiso   1.00
C12    C     0.92790   0.20396   0.44834   0.00000  Uiso   1.00
C13    C     0.98228   0.32345   0.51055   0.00000  Uiso   1.00
C14    C     0.91261   0.10736   0.23521   0.00000  Uiso   1.00
C15    C     0.86179   0.15285   0.21828   0.00000  Uiso   1.00
C16    C     0.84906   0.23299   0.16375   0.00000  Uiso   1.00
C17    C     0.80065   0.26343   0.15705   0.00000  Uiso   1.00
C18    C     0.91058   0.95997   0.23603   0.00000  Uiso   1.00
C19    C     0.93887   0.87792   0.19643   0.00000  Uiso   1.00
C20    C     0.93154   0.74598   0.20467   0.00000  Uiso   1.00
C21    C     0.92206   0.14864   0.30960   0.00000  Uiso   1.00
C22    C     0.96002   0.22520   0.33186   0.00000  Uiso   1.00
C23    C     0.96236   0.25207   0.40206   0.00000  Uiso   1.00
H24    H     0.82251   0.98154   0.35624   0.00000  Uiso   1.00
H25    H     0.75239   0.09796   0.29362   0.00000  Uiso   1.00
H26    H     0.84220   0.74295   0.32630   0.00000  Uiso   1.00
H27    H     0.86334   0.09018   0.46171   0.00000  Uiso   1.00
H28    H     0.68982   0.24818   0.20381   0.00000  Uiso   1.00
H29    H     0.87919   0.49963   0.27273   0.00000  Uiso   1.00
H30    H     0.92376   0.23182   0.55828   0.00000  Uiso   1.00
H31    H     0.93939   0.14475   0.19924   0.00000  Uiso   1.00
H32    H     0.87568   0.27014   0.12800   0.00000  Uiso   1.00
H33    H     0.96549   0.91512   0.16068   0.00000  Uiso   1.00
H34    H     0.98663   0.26235   0.29610   0.00000  Uiso   1.00
H35    H     0.78989   0.38792   0.06939   0.00000  Uiso   1.00
H36    H     0.97926   0.63936   0.13831   0.00000  Uiso   1.00
H37    H     0.02383   0.37156   0.42386   0.00000  Uiso   1.00
O38    O     0.69583   0.39755   0.09256   0.00000  Uiso   1.00
O39    O     0.94429   0.41548   0.18299   0.00000  Uiso   1.00
O40    O     0.00276   0.37611   0.55762   0.00000  Uiso   1.00
N41    N     0.72211   0.26388   0.18196   0.00000  Uiso   1.00
N42    N     0.89916   0.56403   0.24639   0.00000  Uiso   1.00
N43    N     0.94084   0.24854   0.51336   0.00000  Uiso   1.00
N44    N     0.77596   0.33907   0.10963   0.00000  Uiso   1.00
N45    N     0.95301   0.63922   0.17405   0.00000  Uiso   1.00
N46    N     0.99468   0.32373   0.44102   0.00000  Uiso   1.00
C47    C     0.65071   0.98106   0.32027   0.00000  Uiso   1.00
C48    C     0.67260   0.89517   0.26448   0.00000  Uiso   1.00
C49    C     0.72100   0.86484   0.25786   0.00000  Uiso   1.00
C50    C     0.73381   0.78469   0.20334   0.00000  Uiso   1.00
C51    C     0.77303   0.65868   0.12372   0.00000  Uiso   1.00
C52    C     0.62381   0.08806   0.28223   0.00000  Uiso   1.00
C53    C     0.63118   0.21991   0.29054   0.00000  Uiso   1.00
C54    C     0.60291   0.30213   0.25096   0.00000  Uiso   1.00
C55    C     0.56636   0.47558   0.19893   0.00000  Uiso   1.00
C56    C     0.61233   0.89939   0.35580   0.00000  Uiso   1.00
C57    C     0.61004   0.87264   0.42598   0.00000  Uiso   1.00
C58    C     0.57210   0.79604   0.44834   0.00000  Uiso   1.00
C59    C     0.51772   0.67655   0.51055   0.00000  Uiso   1.00
C60    C     0.58739   0.89264   0.23521   0.00000  Uiso   1.00
C61    C     0.63821   0.84715   0.21828   0.00000  Uiso   1.00
C62    C     0.65094   0.76701   0.16375   0.00000  Uiso   1.00
C63    C     0.69935   0.73657   0.15705   0.00000  Uiso   1.00
C64    C     0.58942   0.04003   0.23603   0.00000  Uiso   1.00
C65    C     0.56113   0.12208   0.19643   0.00000  Uiso   1.00
C66    C     0.56846   0.25402   0.20467   0.00000  Uiso   1.00
C67    C     0.57794   0.85136   0.30960   0.00000  Uiso   1.00
C68    C     0.53998   0.77480   0.33186   0.00000  Uiso   1.00
C69    C     0.53764   0.74793   0.40206   0.00000  Uiso   1.00
H70    H     0.67749   0.01846   0.35624   0.00000  Uiso   1.00
H71    H     0.74761   0.90204   0.29362   0.00000  Uiso   1.00
H72    H     0.65780   0.25705   0.32630   0.00000  Uiso   1.00
H73    H     0.63666   0.90982   0.46171   0.00000  Uiso   1.00
H74    H     0.81018   0.75182   0.20381   0.00000  Uiso   1.00
H75    H     0.62081   0.50037   0.27273   0.00000  Uiso   1.00
H76    H     0.57624   0.76818   0.55828   0.00000  Uiso   1.00
H77    H     0.56061   0.85525   0.19924   0.00000  Uiso   1.00
H78    H     0.62432   0.72986   0.12800   0.00000  Uiso   1.00
H79    H     0.53451   0.08488   0.16068   0.00000  Uiso   1.00
H80    H     0.51337   0.73765   0.29610   0.00000  Uiso   1.00
H81    H     0.71011   0.61208   0.06939   0.00000  Uiso   1.00
H82    H     0.52074   0.36064   0.13831   0.00000  Uiso   1.00
H83    H     0.47617   0.62844   0.42386   0.00000  Uiso   1.00
O84    O     0.80417   0.60245   0.09256   0.00000  Uiso   1.00
O85    O     0.55571   0.58452   0.18299   0.00000  Uiso   1.00
O86    O     0.49724   0.62389   0.55762   0.00000  Uiso   1.00
N87    N     0.77789   0.73612   0.18196   0.00000  Uiso   1.00
N88    N     0.60084   0.43597   0.24639   0.00000  Uiso   1.00
N89    N     0.55916   0.75146   0.51336   0.00000  Uiso   1.00
N90    N     0.72404   0.66093   0.10963   0.00000  Uiso   1.00
N91    N     0.54699   0.36078   0.17405   0.00000  Uiso   1.00
N92    N     0.50532   0.67627   0.44102   0.00000  Uiso   1.00
C93    C     0.15071   0.01894   0.17973   0.00000  Uiso   1.00
C94    C     0.17260   0.10483   0.23552   0.00000  Uiso   1.00
C95    C     0.22100   0.13516   0.24214   0.00000  Uiso   1.00
C96    C     0.23381   0.21531   0.29666   0.00000  Uiso   1.00
C97    C     0.27303   0.34132   0.37628   0.00000  Uiso   1.00
C98    C     0.12381   0.91194   0.21777   0.00000  Uiso   1.00
C99    C     0.13118   0.78009   0.20946   0.00000  Uiso   1.00
C100   C     0.10291   0.69787   0.24904   0.00000  Uiso   1.00
C101   C     0.06636   0.52442   0.30107   0.00000  Uiso   1.00
C102   C     0.11233   0.10061   0.14420   0.00000  Uiso   1.00
C103   C     0.11004   0.12736   0.07402   0.00000  Uiso   1.00
C104   C     0.07210   0.20396   0.05166   0.00000  Uiso   1.00
C105   C     0.01772   0.32345   0.98945   0.00000  Uiso   1.00
C106   C     0.08739   0.10736   0.26479   0.00000  Uiso   1.00
C107   C     0.13821   0.15285   0.28172   0.00000  Uiso   1.00
C108   C     0.15094   0.23299   0.33625   0.00000  Uiso   1.00
C109   C     0.19935   0.26343   0.34295   0.00000  Uiso   1.00
C110   C     0.08942   0.95997   0.26397   0.00000  Uiso   1.00
C111   C     0.06113   0.87792   0.30357   0.00000  Uiso   1.00
C112   C     0.06846   0.74598   0.29533   0.00000  Uiso   1.00
C113   C     0.07794   0.14864   0.19040   0.00000  Uiso   1.00
C114   C     0.03998   0.22520   0.16814   0.00000  Uiso   1.00
C115   C     0.03764   0.25207   0.09794   0.00000  Uiso   1.00
H116   H     0.17749   0.98154   0.14376   0.00000  Uiso   1.00
H117   H     0.24761   0.09796   0.20638   0.00000  Uiso   1.00
H118   H     0.15780   0.74295   0.17370   0.00000  Uiso   1.00
H119   H     0.13666   0.09018   0.03829   0.00000  Uiso   1.00
H120   H     0.31018   0.24818   0.29619   0.00000  Uiso   1.00
H121   H     0.12081   0.49963   0.22727   0.00000  Uiso   1.00
H122   H     0.07624   0.23182   0.94172   0.00000  Uiso   1.00
H123   H     0.06061   0.14475   0.30076   0.00000  Uiso   1.00
H124   H     0.12432   0.27014   0.37200   0.00000  Uiso   1.00
H125   H     0.03451   0.91512   0.33932   0.00000  Uiso   1.00
H126   H     0.01337   0.26235   0.20390   0.00000  Uiso   1.00
H127   H     0.21011   0.38792   0.43061   0.00000  Uiso   1.00
H128   H     0.02074   0.63936   0.36169   0.00000  Uiso   1.00
H129   H     0.97617   0.37156   0.07614   0.00000  Uiso   1.00
O130   O     0.30417   0.39755   0.40744   0.00000  Uiso   1.00
O131   O     0.05571   0.41548   0.31701   0.00000  Uiso   1.00
O132   O     0.99724   0.37611   0.94238   0.00000  Uiso   1.00
N133   N     0.27789   0.26388   0.31804   0.00000  Uiso   1.00
N134   N     0.10084   0.56403   0.25361   0.00000  Uiso   1.00
N135   N     0.05916   0.24854   0.98664   0.00000  Uiso   1.00
N136   N     0.22404   0.33907   0.39037   0.00000  Uiso   1.00
N137   N     0.04699   0.63922   0.32595   0.00000  Uiso   1.00
N138   N     0.00532   0.32373   0.05898   0.00000  Uiso   1.00
C139   C     0.34929   0.98106   0.17973   0.00000  Uiso   1.00
C140   C     0.32740   0.89517   0.23552   0.00000  Uiso   1.00
C141   C     0.27900   0.86484   0.24214   0.00000  Uiso   1.00
C142   C     0.26619   0.78469   0.29666   0.00000  Uiso   1.00
C143   C     0.22697   0.65868   0.37628   0.00000  Uiso   1.00
C144   C     0.37619   0.08806   0.21777   0.00000  Uiso   1.00
C145   C     0.36882   0.21991   0.20946   0.00000  Uiso   1.00
C146   C     0.39709   0.30213   0.24904   0.00000  Uiso   1.00
C147   C     0.43364   0.47558   0.30107   0.00000  Uiso   1.00
C148   C     0.38767   0.89939   0.14420   0.00000  Uiso   1.00
C149   C     0.38996   0.87264   0.07402   0.00000  Uiso   1.00
C150   C     0.42790   0.79604   0.05166   0.00000  Uiso   1.00
C151   C     0.48228   0.67655   0.98945   0.00000  Uiso   1.00
C152   C     0.41261   0.89264   0.26479   0.00000  Uiso   1.00
C153   C     0.36179   0.84715   0.28172   0.00000  Uiso   1.00
C154   C     0.34906   0.76701   0.33625   0.00000  Uiso   1.00
C155   C     0.30065   0.73657   0.34295   0.00000  Uiso   1.00
C156   C     0.41058   0.04003   0.26397   0.00000  Uiso   1.00
C157   C     0.43887   0.12208   0.30357   0.00000  Uiso   1.00
C158   C     0.43154   0.25402   0.29533   0.00000  Uiso   1.00
C159   C     0.42206   0.85136   0.19040   0.00000  Uiso   1.00
C160   C     0.46002   0.77480   0.16814   0.00000  Uiso   1.00
C161   C     0.46236   0.74793   0.09794   0.00000  Uiso   1.00
H162   H     0.32251   0.01846   0.14376   0.00000  Uiso   1.00
H163   H     0.25239   0.90204   0.20638   0.00000  Uiso   1.00
H164   H     0.34220   0.25705   0.17370   0.00000  Uiso   1.00
H165   H     0.36334   0.90982   0.03829   0.00000  Uiso   1.00
H166   H     0.18982   0.75182   0.29619   0.00000  Uiso   1.00
H167   H     0.37919   0.50037   0.22727   0.00000  Uiso   1.00
H168   H     0.42376   0.76818   0.94172   0.00000  Uiso   1.00
H169   H     0.43939   0.85525   0.30076   0.00000  Uiso   1.00
H170   H     0.37568   0.72986   0.37200   0.00000  Uiso   1.00
H171   H     0.46549   0.08488   0.33932   0.00000  Uiso   1.00
H172   H     0.48663   0.73765   0.20390   0.00000  Uiso   1.00
H173   H     0.28989   0.61208   0.43061   0.00000  Uiso   1.00
H174   H     0.47926   0.36064   0.36169   0.00000  Uiso   1.00
H175   H     0.52383   0.62844   0.07614   0.00000  Uiso   1.00
O176   O     0.19583   0.60245   0.40744   0.00000  Uiso   1.00
O177   O     0.44429   0.58452   0.31701   0.00000  Uiso   1.00
O178   O     0.50276   0.62389   0.94238   0.00000  Uiso   1.00
N179   N     0.22211   0.73612   0.31804   0.00000  Uiso   1.00
N180   N     0.39916   0.43597   0.25361   0.00000  Uiso   1.00
N181   N     0.44084   0.75146   0.98664   0.00000  Uiso   1.00
N182   N     0.27596   0.66093   0.39037   0.00000  Uiso   1.00
N183   N     0.45301   0.36078   0.32595   0.00000  Uiso   1.00
N184   N     0.49468   0.67627   0.05898   0.00000  Uiso   1.00
C185   C     0.15071   0.98106   0.67973   0.00000  Uiso   1.00
C186   C     0.17260   0.89517   0.73552   0.00000  Uiso   1.00
C187   C     0.22100   0.86484   0.74214   0.00000  Uiso   1.00
C188   C     0.23381   0.78469   0.79666   0.00000  Uiso   1.00
C189   C     0.27303   0.65868   0.87628   0.00000  Uiso   1.00
C190   C     0.12381   0.08806   0.71777   0.00000  Uiso   1.00
C191   C     0.13118   0.21991   0.70946   0.00000  Uiso   1.00
C192   C     0.10291   0.30213   0.74904   0.00000  Uiso   1.00
C193   C     0.06636   0.47558   0.80107   0.00000  Uiso   1.00
C194   C     0.11233   0.89939   0.64420   0.00000  Uiso   1.00
C195   C     0.11004   0.87264   0.57402   0.00000  Uiso   1.00
C196   C     0.07210   0.79604   0.55166   0.00000  Uiso   1.00
C197   C     0.01772   0.67655   0.48945   0.00000  Uiso   1.00
C198   C     0.08739   0.89264   0.76479   0.00000  Uiso   1.00
C199   C     0.13821   0.84715   0.78172   0.00000  Uiso   1.00
C200   C     0.15094   0.76701   0.83625   0.00000  Uiso   1.00
C201   C     0.19935   0.73657   0.84295   0.00000  Uiso   1.00
C202   C     0.08942   0.04003   0.76397   0.00000  Uiso   1.00
C203   C     0.06113   0.12208   0.80357   0.00000  Uiso   1.00
C204   C     0.06846   0.25402   0.79533   0.00000  Uiso   1.00
C205   C     0.07794   0.85136   0.69040   0.00000  Uiso   1.00
C206   C     0.03998   0.77480   0.66814   0.00000  Uiso   1.00
C207   C     0.03764   0.74793   0.59794   0.00000  Uiso   1.00
H208   H     0.17749   0.01846   0.64376   0.00000  Uiso   1.00
H209   H     0.24761   0.90204   0.70638   0.00000  Uiso   1.00
H210   H     0.15780   0.25705   0.67370   0.00000  Uiso   1.00
H211   H     0.13666   0.90982   0.53829   0.00000  Uiso   1.00
H212   H     0.31018   0.75182   0.79619   0.00000  Uiso   1.00
H213   H     0.12081   0.50037   0.72727   0.00000  Uiso   1.00
H214   H     0.07624   0.76818   0.44172   0.00000  Uiso   1.00
H215   H     0.06061   0.85525   0.80076   0.00000  Uiso   1.00
H216   H     0.12432   0.72986   0.87200   0.00000  Uiso   1.00
H217   H     0.03451   0.08488   0.83932   0.00000  Uiso   1.00
H218   H     0.01337   0.73765   0.70390   0.00000  Uiso   1.00
H219   H     0.21011   0.61208   0.93061   0.00000  Uiso   1.00
H220   H     0.02074   0.36064   0.86169   0.00000  Uiso   1.00
H221   H     0.97617   0.62844   0.57614   0.00000  Uiso   1.00
O222   O     0.30417   0.60245   0.90744   0.00000  Uiso   1.00
O223   O     0.05571   0.58452   0.81701   0.00000  Uiso   1.00
O224   O     0.99724   0.62389   0.44238   0.00000  Uiso   1.00
N225   N     0.27789   0.73612   0.81804   0.00000  Uiso   1.00
N226   N     0.10084   0.43597   0.75361   0.00000  Uiso   1.00
N227   N     0.05916   0.75146   0.48664   0.00000  Uiso   1.00
N228   N     0.22404   0.66093   0.89037   0.00000  Uiso   1.00
N229   N     0.04699   0.36078   0.82595   0.00000  Uiso   1.00
N230   N     0.00532   0.67627   0.55898   0.00000  Uiso   1.00
C231   C     0.34929   0.01894   0.67973   0.00000  Uiso   1.00
C232   C     0.32740   0.10483   0.73552   0.00000  Uiso   1.00
C233   C     0.27900   0.13516   0.74214   0.00000  Uiso   1.00
C234   C     0.26619   0.21531   0.79666   0.00000  Uiso   1.00
C235   C     0.22697   0.34132   0.87628   0.00000  Uiso   1.00
C236   C     0.37619   0.91194   0.71777   0.00000  Uiso   1.00
C237   C     0.36882   0.78009   0.70946   0.00000  Uiso   1.00
C238   C     0.39709   0.69787   0.74904   0.00000  Uiso   1.00
C239   C     0.43364   0.52442   0.80107   0.00000  Uiso   1.00
C240   C     0.38767   0.10061   0.64420   0.00000  Uiso   1.00
C241   C     0.38996   0.12736   0.57402   0.00000  Uiso   1.00
C242   C     0.42790   0.20396   0.55166   0.00000  Uiso   1.00
C243   C     0.48228   0.32345   0.48945   0.00000  Uiso   1.00
C244   C     0.41261   0.10736   0.76479   0.00000  Uiso   1.00
C245   C     0.36179   0.15285   0.78172   0.00000  Uiso   1.00
C246   C     0.34906   0.23299   0.83625   0.00000  Uiso   1.00
C247   C     0.30065   0.26343   0.84295   0.00000  Uiso   1.00
C248   C     0.41058   0.95997   0.76397   0.00000  Uiso   1.00
C249   C     0.43887   0.87792   0.80357   0.00000  Uiso   1.00
C250   C     0.43154   0.74598   0.79533   0.00000  Uiso   1.00
C251   C     0.42206   0.14864   0.69040   0.00000  Uiso   1.00
C252   C     0.46002   0.22520   0.66814   0.00000  Uiso   1.00
C253   C     0.46236   0.25207   0.59794   0.00000  Uiso   1.00
H254   H     0.32251   0.98154   0.64376   0.00000  Uiso   1.00
H255   H     0.25239   0.09796   0.70638   0.00000  Uiso   1.00
H256   H     0.34220   0.74295   0.67370   0.00000  Uiso   1.00
H257   H     0.36334   0.09018   0.53829   0.00000  Uiso   1.00
H258   H     0.18982   0.24818   0.79619   0.00000  Uiso   1.00
H259   H     0.37919   0.49963   0.72727   0.00000  Uiso   1.00
H260   H     0.42376   0.23182   0.44172   0.00000  Uiso   1.00
H261   H     0.43939   0.14475   0.80076   0.00000  Uiso   1.00
H262   H     0.37568   0.27014   0.87200   0.00000  Uiso   1.00
H263   H     0.46549   0.91512   0.83932   0.00000  Uiso   1.00
H264   H     0.48663   0.26235   0.70390   0.00000  Uiso   1.00
H265   H     0.28989   0.38792   0.93061   0.00000  Uiso   1.00
H266   H     0.47926   0.63936   0.86169   0.00000  Uiso   1.00
H267   H     0.52383   0.37156   0.57614   0.00000  Uiso   1.00
O268   O     0.19583   0.39755   0.90744   0.00000  Uiso   1.00
O269   O     0.44429   0.41548   0.81701   0.00000  Uiso   1.00
O270   O     0.50276   0.37611   0.44238   0.00000  Uiso   1.00
N271   N     0.22211   0.26388   0.81804   0.00000  Uiso   1.00
N272   N     0.39916   0.56403   0.75361   0.00000  Uiso   1.00
N273   N     0.44084   0.24854   0.48664   0.00000  Uiso   1.00
N274   N     0.27596   0.33907   0.89037   0.00000  Uiso   1.00
N275   N     0.45301   0.63922   0.82595   0.00000  Uiso   1.00
N276   N     0.49468   0.32373   0.55898   0.00000  Uiso   1.00
C277   C     0.84929   0.98106   0.82027   0.00000  Uiso   1.00
C278   C     0.82740   0.89517   0.76448   0.00000  Uiso   1.00
C279   C     0.77900   0.86484   0.75786   0.00000  Uiso   1.00
C280   C     0.76619   0.78469   0.70334   0.00000  Uiso   1.00
C281   C     0.72697   0.65868   0.62372   0.00000  Uiso   1.00
C282   C     0.87619   0.08806   0.78223   0.00000  Uiso   1.00
C283   C     0.86882   0.21991   0.79054   0.00000  Uiso   1.00
C284   C     0.89709   0.30213   0.75096   0.00000  Uiso   1.00
C285   C     0.93364   0.47558   0.69893   0.00000  Uiso   1.00
C286   C     0.88767   0.89939   0.85580   0.00000  Uiso   1.00
C287   C     0.88996   0.87264   0.92598   0.00000  Uiso   1.00
C288   C     0.92790   0.79604   0.94834   0.00000  Uiso   1.00
C289   C     0.98228   0.67655   0.01055   0.00000  Uiso   1.00
C290   C     0.91261   0.89264   0.73521   0.00000  Uiso   1.00
C291   C     0.86179   0.84715   0.71828   0.00000  Uiso   1.00
C292   C     0.84906   0.76701   0.66375   0.00000  Uiso   1.00
C293   C     0.80065   0.73657   0.65705   0.00000  Uiso   1.00
C294   C     0.91058   0.04003   0.73603   0.00000  Uiso   1.00
C295   C     0.93887   0.12208   0.69643   0.00000  Uiso   1.00
C296   C     0.93154   0.25402   0.70467   0.00000  Uiso   1.00
C297   C     0.92206   0.85136   0.80960   0.00000  Uiso   1.00
C298   C     0.96002   0.77480   0.83186   0.00000  Uiso   1.00
C299   C     0.96236   0.74793   0.90206   0.00000  Uiso   1.00
H300   H     0.82251   0.01846   0.85624   0.00000  Uiso   1.00
H301   H     0.75239   0.90204   0.79362   0.00000  Uiso   1.00
H302   H     0.84220   0.25705   0.82630   0.00000  Uiso   1.00
H303   H     0.86334   0.90982   0.96171   0.00000  Uiso   1.00
H304   H     0.68982   0.75182   0.70381   0.00000  Uiso   1.00
H305   H     0.87919   0.50037   0.77273   0.00000  Uiso   1.00
H306   H     0.92376   0.76818   0.05828   0.00000  Uiso   1.00
H307   H     0.93939   0.85525   0.69924   0.00000  Uiso   1.00
H308   H     0.87568   0.72986   0.62800   0.00000  Uiso   1.00
H309   H     0.96549   0.08488   0.66068   0.00000  Uiso   1.00
H310   H     0.98663   0.73765   0.79610   0.00000  Uiso   1.00
H311   H     0.78989   0.61208   0.56939   0.00000  Uiso   1.00
H312   H     0.97926   0.36064   0.63831   0.00000  Uiso   1.00
H313   H     0.02383   0.62844   0.92386   0.00000  Uiso   1.00
O314   O     0.69583   0.60245   0.59256   0.00000  Uiso   1.00
O315   O     0.94429   0.58452   0.68299   0.00000  Uiso   1.00
O316   O     0.00276   0.62389   0.05762   0.00000  Uiso   1.00
N317   N     0.72211   0.73612   0.68196   0.00000  Uiso   1.00
N318   N     0.89916   0.43597   0.74639   0.00000  Uiso   1.00
N319   N     0.94084   0.75146   0.01336   0.00000  Uiso   1.00
N320   N     0.77596   0.66093   0.60963   0.00000  Uiso   1.00
N321   N     0.95301   0.36078   0.67405   0.00000  Uiso   1.00
N322   N     0.99468   0.67627   0.94102   0.00000  Uiso   1.00
C323   C     0.65071   0.01894   0.82027   0.00000  Uiso   1.00
C324   C     0.67260   0.10483   0.76448   0.00000  Uiso   1.00
C325   C     0.72100   0.13516   0.75786   0.00000  Uiso   1.00
C326   C     0.73381   0.21531   0.70334   0.00000  Uiso   1.00
C327   C     0.77303   0.34132   0.62372   0.00000  Uiso   1.00
C328   C     0.62381   0.91194   0.78223   0.00000  Uiso   1.00
C329   C     0.63118   0.78009   0.79054   0.00000  Uiso   1.00
C330   C     0.60291   0.69787   0.75096   0.00000  Uiso   1.00
C331   C     0.56636   0.52442   0.69893   0.00000  Uiso   1.00
C332   C     0.61233   0.10061   0.85580   0.00000  Uiso   1.00
C333   C     0.61004   0.12736   0.92598   0.00000  Uiso   1.00
C334   C     0.57210   0.20396   0.94834   0.00000  Uiso   1.00
C335   C     0.51772   0.32345   0.01055   0.00000  Uiso   1.00
C336   C     0.58739   0.10736   0.73521   0.00000  Uiso   1.00
C337   C     0.63821   0.15285   0.71828   0.00000  Uiso   1.00
C338   C     0.65094   0.23299   0.66375   0.00000  Uiso   1.00
C339   C     0.69935   0.26343   0.65705   0.00000  Uiso   1.00
C340   C     0.58942   0.95997   0.73603   0.00000  Uiso   1.00
C341   C     0.56113   0.87792   0.69643   0.00000  Uiso   1.00
C342   C     0.56846   0.74598   0.70467   0.00000  Uiso   1.00
C343   C     0.57794   0.14864   0.80960   0.00000  Uiso   1.00
C344   C     0.53998   0.22520   0.83186   0.00000  Uiso   1.00
C345   C     0.53764   0.25207   0.90206   0.00000  Uiso   1.00
H346   H     0.67749   0.98154   0.85624   0.00000  Uiso   1.00
H347   H     0.74761   0.09796   0.79362   0.00000  Uiso   1.00
H348   H     0.65780   0.74295   0.82630   0.00000  Uiso   1.00
H349   H     0.63666   0.09018   0.96171   0.00000  Uiso   1.00
H350   H     0.81018   0.24818   0.70381   0.00000  Uiso   1.00
H351   H     0.62081   0.49963   0.77273   0.00000  Uiso   1.00
H352   H     0.57624   0.23182   0.05828   0.00000  Uiso   1.00
H353   H     0.56061   0.14475   0.69924   0.00000  Uiso   1.00
H354   H     0.62432   0.27014   0.62800   0.00000  Uiso   1.00
H355   H     0.53451   0.91512   0.66068   0.00000  Uiso   1.00
H356   H     0.51337   0.26235   0.79610   0.00000  Uiso   1.00
H357   H     0.71011   0.38792   0.56939   0.00000  Uiso   1.00
H358   H     0.52074   0.63936   0.63831   0.00000  Uiso   1.00
H359   H     0.47617   0.37156   0.92386   0.00000  Uiso   1.00
O360   O     0.80417   0.39755   0.59256   0.00000  Uiso   1.00
O361   O     0.55571   0.41548   0.68299   0.00000  Uiso   1.00
O362   O     0.49724   0.37611   0.05762   0.00000  Uiso   1.00
N363   N     0.77789   0.26388   0.68196   0.00000  Uiso   1.00
N364   N     0.60084   0.56403   0.74639   0.00000  Uiso   1.00
N365   N     0.55916   0.24854   0.01336   0.00000  Uiso   1.00
N366   N     0.72404   0.33907   0.60963   0.00000  Uiso   1.00
N367   N     0.54699   0.63922   0.67405   0.00000  Uiso   1.00
N368   N     0.50532   0.32373   0.94102   0.00000  Uiso   1.00
