data_job_03119
_audit_creation_date              2018-12-19
_audit_creation_method            'Materials Studio'
_symmetry_space_group_name_H-M    'P1'
_symmetry_Int_Tables_number       1
_symmetry_cell_setting            triclinic
loop_
_symmetry_equiv_pos_as_xyz
  x,y,z
_cell_length_a                    20.3564
_cell_length_b                    20.3564
_cell_length_c                    13.4618
_cell_angle_alpha                 90.0000
_cell_angle_beta                  90.0000
_cell_angle_gamma                 90.0000
loop_
_atom_site_label
_atom_site_type_symbol
_atom_site_fract_x
_atom_site_fract_y
_atom_site_fract_z
_atom_site_U_iso_or_equiv
_atom_site_adp_type
_atom_site_occupancy
C1     C     0.92552   0.63516   0.38906   0.00000  Uiso   1.00
C2     C     0.92374   0.56353   0.42209   0.00000  Uiso   1.00
C3     C     0.97805   0.52338   0.43615   0.00000  Uiso   1.00
C4     C     0.96609   0.45930   0.46651   0.00000  Uiso   1.00
C5     C     0.97307   0.35157   0.51536   0.00000  Uiso   1.00
C6     C     0.88300   0.63908   0.29598   0.00000  Uiso   1.00
C7     C     0.90305   0.66247   0.20401   0.00000  Uiso   1.00
C8     C     0.85679   0.66200   0.12822   0.00000  Uiso   1.00
C9     C     0.80051   0.67161   0.98130   0.00000  Uiso   1.00
C10    C     0.88907   0.67381   0.46892   0.00000  Uiso   1.00
C11    C     0.91423   0.72642   0.52234   0.00000  Uiso   1.00
C12    C     0.87308   0.75521   0.59214   0.00000  Uiso   1.00
C13    C     0.82622   0.81875   0.71374   0.00000  Uiso   1.00
C14    C     0.80771   0.59276   0.41799   0.00000  Uiso   1.00
C15    C     0.85975   0.54050   0.43780   0.00000  Uiso   1.00
C16    C     0.84771   0.47647   0.46816   0.00000  Uiso   1.00
C17    C     0.90199   0.43623   0.48226   0.00000  Uiso   1.00
C18    C     0.81901   0.61605   0.31169   0.00000  Uiso   1.00
C19    C     0.77271   0.61556   0.23602   0.00000  Uiso   1.00
C20    C     0.79269   0.63893   0.14396   0.00000  Uiso   1.00
C21    C     0.82509   0.65078   0.48464   0.00000  Uiso   1.00
C22    C     0.78389   0.67950   0.55436   0.00000  Uiso   1.00
C23    C     0.80897   0.73214   0.60788   0.00000  Uiso   1.00
H24    H     0.97533   0.65309   0.37682   0.00000  Uiso   1.00
H25    H     0.02756   0.54122   0.42397   0.00000  Uiso   1.00
H26    H     0.95257   0.68029   0.19188   0.00000  Uiso   1.00
H27    H     0.96374   0.74423   0.51016   0.00000  Uiso   1.00
H28    H     0.05725   0.40702   0.48314   0.00000  Uiso   1.00
H29    H     0.89912   0.70029   0.99377   0.00000  Uiso   1.00
H30    H     0.92268   0.83511   0.66493   0.00000  Uiso   1.00
H31    H     0.75789   0.57483   0.43022   0.00000  Uiso   1.00
H32    H     0.79819   0.45866   0.48031   0.00000  Uiso   1.00
H33    H     0.72320   0.59773   0.24821   0.00000  Uiso   1.00
H34    H     0.73437   0.66167   0.56650   0.00000  Uiso   1.00
H35    H     0.87108   0.34001   0.52886   0.00000  Uiso   1.00
H36    H     0.71295   0.63328   0.03949   0.00000  Uiso   1.00
H37    H     0.73652   0.76810   0.71066   0.00000  Uiso   1.00
O38    O     0.99460   0.29850   0.53795   0.00000  Uiso   1.00
O39    O     0.78714   0.68327   0.89592   0.00000  Uiso   1.00
O40    O     0.81805   0.86015   0.77648   0.00000  Uiso   1.00
N41    N     0.00790   0.40720   0.48705   0.00000  Uiso   1.00
N42    N     0.86007   0.68138   0.02951   0.00000  Uiso   1.00
N43    N     0.88209   0.80744   0.65697   0.00000  Uiso   1.00
N44    N     0.90773   0.37114   0.51165   0.00000  Uiso   1.00
N45    N     0.75989   0.64532   0.05411   0.00000  Uiso   1.00
N46    N     0.78192   0.77138   0.68158   0.00000  Uiso   1.00
C47    C     0.07448   0.36484   0.88906   0.00000  Uiso   1.00
C48    C     0.07626   0.43647   0.92209   0.00000  Uiso   1.00
C49    C     0.02195   0.47662   0.93615   0.00000  Uiso   1.00
C50    C     0.03391   0.54070   0.96651   0.00000  Uiso   1.00
C51    C     0.02693   0.64843   0.01536   0.00000  Uiso   1.00
C52    C     0.11700   0.36092   0.79598   0.00000  Uiso   1.00
C53    C     0.09695   0.33753   0.70401   0.00000  Uiso   1.00
C54    C     0.14321   0.33800   0.62822   0.00000  Uiso   1.00
C55    C     0.19949   0.32839   0.48130   0.00000  Uiso   1.00
C56    C     0.11093   0.32619   0.96892   0.00000  Uiso   1.00
C57    C     0.08577   0.27358   0.02234   0.00000  Uiso   1.00
C58    C     0.12692   0.24479   0.09214   0.00000  Uiso   1.00
C59    C     0.17378   0.18125   0.21374   0.00000  Uiso   1.00
C60    C     0.19229   0.40724   0.91799   0.00000  Uiso   1.00
C61    C     0.14025   0.45950   0.93780   0.00000  Uiso   1.00
C62    C     0.15229   0.52353   0.96816   0.00000  Uiso   1.00
C63    C     0.09801   0.56377   0.98226   0.00000  Uiso   1.00
C64    C     0.18099   0.38395   0.81169   0.00000  Uiso   1.00
C65    C     0.22729   0.38444   0.73602   0.00000  Uiso   1.00
C66    C     0.20731   0.36107   0.64396   0.00000  Uiso   1.00
C67    C     0.17491   0.34922   0.98464   0.00000  Uiso   1.00
C68    C     0.21611   0.32050   0.05436   0.00000  Uiso   1.00
C69    C     0.19103   0.26786   0.10788   0.00000  Uiso   1.00
H70    H     0.02467   0.34691   0.87682   0.00000  Uiso   1.00
H71    H     0.97244   0.45878   0.92397   0.00000  Uiso   1.00
H72    H     0.04743   0.31971   0.69188   0.00000  Uiso   1.00
H73    H     0.03626   0.25577   0.01016   0.00000  Uiso   1.00
H74    H     0.94275   0.59298   0.98314   0.00000  Uiso   1.00
H75    H     0.10088   0.29971   0.49377   0.00000  Uiso   1.00
H76    H     0.07732   0.16489   0.16493   0.00000  Uiso   1.00
H77    H     0.24211   0.42517   0.93022   0.00000  Uiso   1.00
H78    H     0.20181   0.54134   0.98031   0.00000  Uiso   1.00
H79    H     0.27680   0.40227   0.74821   0.00000  Uiso   1.00
H80    H     0.26563   0.33833   0.06650   0.00000  Uiso   1.00
H81    H     0.12892   0.65999   0.02886   0.00000  Uiso   1.00
H82    H     0.28705   0.36672   0.53949   0.00000  Uiso   1.00
H83    H     0.26348   0.23190   0.21066   0.00000  Uiso   1.00
O84    O     0.00540   0.70150   0.03795   0.00000  Uiso   1.00
O85    O     0.21286   0.31673   0.39592   0.00000  Uiso   1.00
O86    O     0.18195   0.13985   0.27648   0.00000  Uiso   1.00
N87    N     0.99210   0.59280   0.98705   0.00000  Uiso   1.00
N88    N     0.13993   0.31862   0.52951   0.00000  Uiso   1.00
N89    N     0.11791   0.19256   0.15697   0.00000  Uiso   1.00
N90    N     0.09227   0.62886   0.01165   0.00000  Uiso   1.00
N91    N     0.24011   0.35468   0.55411   0.00000  Uiso   1.00
N92    N     0.21808   0.22862   0.18158   0.00000  Uiso   1.00
C93    C     0.86484   0.42552   0.13906   0.00000  Uiso   1.00
C94    C     0.93647   0.42374   0.17209   0.00000  Uiso   1.00
C95    C     0.97662   0.47805   0.18615   0.00000  Uiso   1.00
C96    C     0.04070   0.46609   0.21651   0.00000  Uiso   1.00
C97    C     0.14843   0.47307   0.26536   0.00000  Uiso   1.00
C98    C     0.86092   0.38300   0.04598   0.00000  Uiso   1.00
C99    C     0.83753   0.40305   0.95401   0.00000  Uiso   1.00
C100   C     0.83800   0.35679   0.87822   0.00000  Uiso   1.00
C101   C     0.82839   0.30051   0.73130   0.00000  Uiso   1.00
C102   C     0.82619   0.38907   0.21892   0.00000  Uiso   1.00
C103   C     0.77358   0.41423   0.27234   0.00000  Uiso   1.00
C104   C     0.74479   0.37308   0.34214   0.00000  Uiso   1.00
C105   C     0.68125   0.32622   0.46374   0.00000  Uiso   1.00
C106   C     0.90724   0.30771   0.16799   0.00000  Uiso   1.00
C107   C     0.95950   0.35975   0.18780   0.00000  Uiso   1.00
C108   C     0.02353   0.34771   0.21816   0.00000  Uiso   1.00
C109   C     0.06377   0.40199   0.23226   0.00000  Uiso   1.00
C110   C     0.88395   0.31901   0.06169   0.00000  Uiso   1.00
C111   C     0.88444   0.27271   0.98602   0.00000  Uiso   1.00
C112   C     0.86107   0.29269   0.89396   0.00000  Uiso   1.00
C113   C     0.84922   0.32509   0.23464   0.00000  Uiso   1.00
C114   C     0.82050   0.28389   0.30436   0.00000  Uiso   1.00
C115   C     0.76786   0.30897   0.35788   0.00000  Uiso   1.00
H116   H     0.84691   0.47533   0.12682   0.00000  Uiso   1.00
H117   H     0.95878   0.52756   0.17397   0.00000  Uiso   1.00
H118   H     0.81971   0.45257   0.94188   0.00000  Uiso   1.00
H119   H     0.75577   0.46374   0.26016   0.00000  Uiso   1.00
H120   H     0.09298   0.55725   0.23314   0.00000  Uiso   1.00
H121   H     0.79971   0.39912   0.74377   0.00000  Uiso   1.00
H122   H     0.66489   0.42268   0.41493   0.00000  Uiso   1.00
H123   H     0.92517   0.25789   0.18022   0.00000  Uiso   1.00
H124   H     0.04134   0.29819   0.23031   0.00000  Uiso   1.00
H125   H     0.90227   0.22320   0.99821   0.00000  Uiso   1.00
H126   H     0.83833   0.23437   0.31650   0.00000  Uiso   1.00
H127   H     0.15999   0.37108   0.27886   0.00000  Uiso   1.00
H128   H     0.86672   0.21295   0.78949   0.00000  Uiso   1.00
H129   H     0.73190   0.23652   0.46066   0.00000  Uiso   1.00
O130   O     0.20150   0.49460   0.28795   0.00000  Uiso   1.00
O131   O     0.81673   0.28714   0.64592   0.00000  Uiso   1.00
O132   O     0.63985   0.31805   0.52648   0.00000  Uiso   1.00
N133   N     0.09280   0.50790   0.23705   0.00000  Uiso   1.00
N134   N     0.81862   0.36007   0.77951   0.00000  Uiso   1.00
N135   N     0.69256   0.38209   0.40697   0.00000  Uiso   1.00
N136   N     0.12886   0.40773   0.26165   0.00000  Uiso   1.00
N137   N     0.85468   0.25989   0.80411   0.00000  Uiso   1.00
N138   N     0.72862   0.28192   0.43158   0.00000  Uiso   1.00
C139   C     0.13516   0.57448   0.63906   0.00000  Uiso   1.00
C140   C     0.06353   0.57626   0.67209   0.00000  Uiso   1.00
C141   C     0.02338   0.52195   0.68615   0.00000  Uiso   1.00
C142   C     0.95930   0.53391   0.71651   0.00000  Uiso   1.00
C143   C     0.85157   0.52693   0.76536   0.00000  Uiso   1.00
C144   C     0.13908   0.61700   0.54598   0.00000  Uiso   1.00
C145   C     0.16247   0.59695   0.45401   0.00000  Uiso   1.00
C146   C     0.16200   0.64321   0.37822   0.00000  Uiso   1.00
C147   C     0.17161   0.69949   0.23130   0.00000  Uiso   1.00
C148   C     0.17381   0.61093   0.71892   0.00000  Uiso   1.00
C149   C     0.22642   0.58577   0.77234   0.00000  Uiso   1.00
C150   C     0.25521   0.62692   0.84214   0.00000  Uiso   1.00
C151   C     0.31875   0.67378   0.96374   0.00000  Uiso   1.00
C152   C     0.09276   0.69229   0.66799   0.00000  Uiso   1.00
C153   C     0.04050   0.64025   0.68780   0.00000  Uiso   1.00
C154   C     0.97647   0.65229   0.71816   0.00000  Uiso   1.00
C155   C     0.93623   0.59801   0.73226   0.00000  Uiso   1.00
C156   C     0.11605   0.68099   0.56169   0.00000  Uiso   1.00
C157   C     0.11556   0.72729   0.48602   0.00000  Uiso   1.00
C158   C     0.13893   0.70731   0.39396   0.00000  Uiso   1.00
C159   C     0.15078   0.67491   0.73464   0.00000  Uiso   1.00
C160   C     0.17950   0.71611   0.80436   0.00000  Uiso   1.00
C161   C     0.23214   0.69103   0.85788   0.00000  Uiso   1.00
H162   H     0.15309   0.52467   0.62682   0.00000  Uiso   1.00
H163   H     0.04122   0.47244   0.67397   0.00000  Uiso   1.00
H164   H     0.18029   0.54743   0.44188   0.00000  Uiso   1.00
H165   H     0.24423   0.53626   0.76016   0.00000  Uiso   1.00
H166   H     0.90702   0.44275   0.73314   0.00000  Uiso   1.00
H167   H     0.20029   0.60088   0.24377   0.00000  Uiso   1.00
H168   H     0.33511   0.57732   0.91493   0.00000  Uiso   1.00
H169   H     0.07483   0.74211   0.68022   0.00000  Uiso   1.00
H170   H     0.95866   0.70181   0.73031   0.00000  Uiso   1.00
H171   H     0.09773   0.77680   0.49821   0.00000  Uiso   1.00
H172   H     0.16167   0.76563   0.81650   0.00000  Uiso   1.00
H173   H     0.84001   0.62892   0.77886   0.00000  Uiso   1.00
H174   H     0.13328   0.78705   0.28949   0.00000  Uiso   1.00
H175   H     0.26810   0.76348   0.96066   0.00000  Uiso   1.00
O176   O     0.79850   0.50540   0.78795   0.00000  Uiso   1.00
O177   O     0.18327   0.71286   0.14592   0.00000  Uiso   1.00
O178   O     0.36015   0.68195   0.02648   0.00000  Uiso   1.00
N179   N     0.90720   0.49210   0.73705   0.00000  Uiso   1.00
N180   N     0.18138   0.63993   0.27951   0.00000  Uiso   1.00
N181   N     0.30744   0.61791   0.90697   0.00000  Uiso   1.00
N182   N     0.87114   0.59227   0.76165   0.00000  Uiso   1.00
N183   N     0.14532   0.74011   0.30411   0.00000  Uiso   1.00
N184   N     0.27138   0.71808   0.93158   0.00000  Uiso   1.00
C185   C     0.57448   0.13516   0.36094   0.00000  Uiso   1.00
C186   C     0.57626   0.06353   0.32791   0.00000  Uiso   1.00
C187   C     0.52195   0.02338   0.31385   0.00000  Uiso   1.00
C188   C     0.53391   0.95930   0.28349   0.00000  Uiso   1.00
C189   C     0.52693   0.85157   0.23464   0.00000  Uiso   1.00
C190   C     0.61700   0.13908   0.45402   0.00000  Uiso   1.00
C191   C     0.59695   0.16247   0.54599   0.00000  Uiso   1.00
C192   C     0.64321   0.16200   0.62178   0.00000  Uiso   1.00
C193   C     0.69949   0.17161   0.76870   0.00000  Uiso   1.00
C194   C     0.61093   0.17381   0.28108   0.00000  Uiso   1.00
C195   C     0.58577   0.22642   0.22766   0.00000  Uiso   1.00
C196   C     0.62692   0.25521   0.15786   0.00000  Uiso   1.00
C197   C     0.67378   0.31875   0.03626   0.00000  Uiso   1.00
C198   C     0.69229   0.09276   0.33201   0.00000  Uiso   1.00
C199   C     0.64025   0.04050   0.31220   0.00000  Uiso   1.00
C200   C     0.65229   0.97647   0.28184   0.00000  Uiso   1.00
C201   C     0.59801   0.93623   0.26774   0.00000  Uiso   1.00
C202   C     0.68099   0.11605   0.43831   0.00000  Uiso   1.00
C203   C     0.72729   0.11556   0.51398   0.00000  Uiso   1.00
C204   C     0.70731   0.13893   0.60604   0.00000  Uiso   1.00
C205   C     0.67491   0.15078   0.26536   0.00000  Uiso   1.00
C206   C     0.71611   0.17950   0.19564   0.00000  Uiso   1.00
C207   C     0.69103   0.23214   0.14212   0.00000  Uiso   1.00
H208   H     0.52467   0.15309   0.37318   0.00000  Uiso   1.00
H209   H     0.47244   0.04122   0.32603   0.00000  Uiso   1.00
H210   H     0.54743   0.18029   0.55812   0.00000  Uiso   1.00
H211   H     0.53626   0.24423   0.23984   0.00000  Uiso   1.00
H212   H     0.44275   0.90702   0.26686   0.00000  Uiso   1.00
H213   H     0.60088   0.20029   0.75623   0.00000  Uiso   1.00
H214   H     0.57732   0.33511   0.08507   0.00000  Uiso   1.00
H215   H     0.74211   0.07483   0.31978   0.00000  Uiso   1.00
H216   H     0.70181   0.95866   0.26969   0.00000  Uiso   1.00
H217   H     0.77680   0.09773   0.50179   0.00000  Uiso   1.00
H218   H     0.76563   0.16167   0.18350   0.00000  Uiso   1.00
H219   H     0.62892   0.84001   0.22114   0.00000  Uiso   1.00
H220   H     0.78705   0.13328   0.71051   0.00000  Uiso   1.00
H221   H     0.76348   0.26810   0.03934   0.00000  Uiso   1.00
O222   O     0.50540   0.79850   0.21205   0.00000  Uiso   1.00
O223   O     0.71286   0.18327   0.85408   0.00000  Uiso   1.00
O224   O     0.68195   0.36015   0.97352   0.00000  Uiso   1.00
N225   N     0.49210   0.90720   0.26295   0.00000  Uiso   1.00
N226   N     0.63993   0.18138   0.72049   0.00000  Uiso   1.00
N227   N     0.61791   0.30744   0.09303   0.00000  Uiso   1.00
N228   N     0.59227   0.87114   0.23835   0.00000  Uiso   1.00
N229   N     0.74011   0.14532   0.69589   0.00000  Uiso   1.00
N230   N     0.71808   0.27138   0.06842   0.00000  Uiso   1.00
C231   C     0.42552   0.86484   0.86094   0.00000  Uiso   1.00
C232   C     0.42374   0.93647   0.82791   0.00000  Uiso   1.00
C233   C     0.47805   0.97662   0.81385   0.00000  Uiso   1.00
C234   C     0.46609   0.04070   0.78349   0.00000  Uiso   1.00
C235   C     0.47307   0.14843   0.73464   0.00000  Uiso   1.00
C236   C     0.38300   0.86092   0.95402   0.00000  Uiso   1.00
C237   C     0.40305   0.83753   0.04599   0.00000  Uiso   1.00
C238   C     0.35679   0.83800   0.12178   0.00000  Uiso   1.00
C239   C     0.30051   0.82839   0.26870   0.00000  Uiso   1.00
C240   C     0.38907   0.82619   0.78108   0.00000  Uiso   1.00
C241   C     0.41423   0.77358   0.72766   0.00000  Uiso   1.00
C242   C     0.37308   0.74479   0.65786   0.00000  Uiso   1.00
C243   C     0.32622   0.68125   0.53626   0.00000  Uiso   1.00
C244   C     0.30771   0.90724   0.83201   0.00000  Uiso   1.00
C245   C     0.35975   0.95950   0.81220   0.00000  Uiso   1.00
C246   C     0.34771   0.02353   0.78184   0.00000  Uiso   1.00
C247   C     0.40199   0.06377   0.76774   0.00000  Uiso   1.00
C248   C     0.31901   0.88395   0.93831   0.00000  Uiso   1.00
C249   C     0.27271   0.88444   0.01398   0.00000  Uiso   1.00
C250   C     0.29269   0.86107   0.10604   0.00000  Uiso   1.00
C251   C     0.32509   0.84922   0.76536   0.00000  Uiso   1.00
C252   C     0.28389   0.82050   0.69564   0.00000  Uiso   1.00
C253   C     0.30897   0.76786   0.64212   0.00000  Uiso   1.00
H254   H     0.47533   0.84691   0.87318   0.00000  Uiso   1.00
H255   H     0.52756   0.95878   0.82603   0.00000  Uiso   1.00
H256   H     0.45257   0.81971   0.05812   0.00000  Uiso   1.00
H257   H     0.46374   0.75577   0.73984   0.00000  Uiso   1.00
H258   H     0.55725   0.09298   0.76686   0.00000  Uiso   1.00
H259   H     0.39912   0.79971   0.25623   0.00000  Uiso   1.00
H260   H     0.42268   0.66489   0.58507   0.00000  Uiso   1.00
H261   H     0.25789   0.92517   0.81978   0.00000  Uiso   1.00
H262   H     0.29819   0.04134   0.76969   0.00000  Uiso   1.00
H263   H     0.22320   0.90227   0.00179   0.00000  Uiso   1.00
H264   H     0.23437   0.83833   0.68350   0.00000  Uiso   1.00
H265   H     0.37108   0.15999   0.72114   0.00000  Uiso   1.00
H266   H     0.21295   0.86672   0.21051   0.00000  Uiso   1.00
H267   H     0.23652   0.73190   0.53934   0.00000  Uiso   1.00
O268   O     0.49460   0.20150   0.71205   0.00000  Uiso   1.00
O269   O     0.28714   0.81673   0.35408   0.00000  Uiso   1.00
O270   O     0.31805   0.63985   0.47352   0.00000  Uiso   1.00
N271   N     0.50790   0.09280   0.76295   0.00000  Uiso   1.00
N272   N     0.36007   0.81862   0.22049   0.00000  Uiso   1.00
N273   N     0.38209   0.69256   0.59303   0.00000  Uiso   1.00
N274   N     0.40773   0.12886   0.73835   0.00000  Uiso   1.00
N275   N     0.25989   0.85468   0.19589   0.00000  Uiso   1.00
N276   N     0.28192   0.72862   0.56842   0.00000  Uiso   1.00
C277   C     0.63516   0.92552   0.61094   0.00000  Uiso   1.00
C278   C     0.56353   0.92374   0.57791   0.00000  Uiso   1.00
C279   C     0.52338   0.97805   0.56385   0.00000  Uiso   1.00
C280   C     0.45930   0.96609   0.53349   0.00000  Uiso   1.00
C281   C     0.35157   0.97307   0.48464   0.00000  Uiso   1.00
C282   C     0.63908   0.88300   0.70402   0.00000  Uiso   1.00
C283   C     0.66247   0.90305   0.79599   0.00000  Uiso   1.00
C284   C     0.66200   0.85679   0.87178   0.00000  Uiso   1.00
C285   C     0.67161   0.80051   0.01870   0.00000  Uiso   1.00
C286   C     0.67381   0.88907   0.53108   0.00000  Uiso   1.00
C287   C     0.72642   0.91423   0.47766   0.00000  Uiso   1.00
C288   C     0.75521   0.87308   0.40786   0.00000  Uiso   1.00
C289   C     0.81875   0.82622   0.28626   0.00000  Uiso   1.00
C290   C     0.59276   0.80771   0.58201   0.00000  Uiso   1.00
C291   C     0.54050   0.85975   0.56220   0.00000  Uiso   1.00
C292   C     0.47647   0.84771   0.53184   0.00000  Uiso   1.00
C293   C     0.43623   0.90199   0.51774   0.00000  Uiso   1.00
C294   C     0.61605   0.81901   0.68831   0.00000  Uiso   1.00
C295   C     0.61556   0.77271   0.76398   0.00000  Uiso   1.00
C296   C     0.63893   0.79269   0.85604   0.00000  Uiso   1.00
C297   C     0.65078   0.82509   0.51536   0.00000  Uiso   1.00
C298   C     0.67950   0.78389   0.44564   0.00000  Uiso   1.00
C299   C     0.73214   0.80897   0.39212   0.00000  Uiso   1.00
H300   H     0.65309   0.97533   0.62318   0.00000  Uiso   1.00
H301   H     0.54122   0.02756   0.57603   0.00000  Uiso   1.00
H302   H     0.68029   0.95257   0.80812   0.00000  Uiso   1.00
H303   H     0.74423   0.96374   0.48984   0.00000  Uiso   1.00
H304   H     0.40702   0.05725   0.51686   0.00000  Uiso   1.00
H305   H     0.70029   0.89912   0.00623   0.00000  Uiso   1.00
H306   H     0.83511   0.92268   0.33507   0.00000  Uiso   1.00
H307   H     0.57483   0.75789   0.56978   0.00000  Uiso   1.00
H308   H     0.45866   0.79819   0.51969   0.00000  Uiso   1.00
H309   H     0.59773   0.72320   0.75179   0.00000  Uiso   1.00
H310   H     0.66167   0.73437   0.43350   0.00000  Uiso   1.00
H311   H     0.34001   0.87108   0.47114   0.00000  Uiso   1.00
H312   H     0.63328   0.71295   0.96051   0.00000  Uiso   1.00
H313   H     0.76810   0.73652   0.28934   0.00000  Uiso   1.00
O314   O     0.29850   0.99460   0.46205   0.00000  Uiso   1.00
O315   O     0.68327   0.78714   0.10408   0.00000  Uiso   1.00
O316   O     0.86015   0.81805   0.22352   0.00000  Uiso   1.00
N317   N     0.40720   0.00790   0.51295   0.00000  Uiso   1.00
N318   N     0.68138   0.86007   0.97049   0.00000  Uiso   1.00
N319   N     0.80744   0.88209   0.34303   0.00000  Uiso   1.00
N320   N     0.37114   0.90773   0.48835   0.00000  Uiso   1.00
N321   N     0.64532   0.75989   0.94589   0.00000  Uiso   1.00
N322   N     0.77138   0.78192   0.31842   0.00000  Uiso   1.00
C323   C     0.36484   0.07448   0.11094   0.00000  Uiso   1.00
C324   C     0.43647   0.07626   0.07791   0.00000  Uiso   1.00
C325   C     0.47662   0.02195   0.06385   0.00000  Uiso   1.00
C326   C     0.54070   0.03391   0.03349   0.00000  Uiso   1.00
C327   C     0.64843   0.02693   0.98464   0.00000  Uiso   1.00
C328   C     0.36092   0.11700   0.20402   0.00000  Uiso   1.00
C329   C     0.33753   0.09695   0.29599   0.00000  Uiso   1.00
C330   C     0.33800   0.14321   0.37178   0.00000  Uiso   1.00
C331   C     0.32839   0.19949   0.51870   0.00000  Uiso   1.00
C332   C     0.32619   0.11093   0.03108   0.00000  Uiso   1.00
C333   C     0.27358   0.08577   0.97766   0.00000  Uiso   1.00
C334   C     0.24479   0.12692   0.90786   0.00000  Uiso   1.00
C335   C     0.18125   0.17378   0.78626   0.00000  Uiso   1.00
C336   C     0.40724   0.19229   0.08201   0.00000  Uiso   1.00
C337   C     0.45950   0.14025   0.06220   0.00000  Uiso   1.00
C338   C     0.52353   0.15229   0.03184   0.00000  Uiso   1.00
C339   C     0.56377   0.09801   0.01774   0.00000  Uiso   1.00
C340   C     0.38395   0.18099   0.18831   0.00000  Uiso   1.00
C341   C     0.38444   0.22729   0.26398   0.00000  Uiso   1.00
C342   C     0.36107   0.20731   0.35604   0.00000  Uiso   1.00
C343   C     0.34922   0.17491   0.01536   0.00000  Uiso   1.00
C344   C     0.32050   0.21611   0.94564   0.00000  Uiso   1.00
C345   C     0.26786   0.19103   0.89212   0.00000  Uiso   1.00
H346   H     0.34691   0.02467   0.12318   0.00000  Uiso   1.00
H347   H     0.45878   0.97244   0.07603   0.00000  Uiso   1.00
H348   H     0.31971   0.04743   0.30812   0.00000  Uiso   1.00
H349   H     0.25577   0.03626   0.98984   0.00000  Uiso   1.00
H350   H     0.59298   0.94275   0.01686   0.00000  Uiso   1.00
H351   H     0.29971   0.10088   0.50623   0.00000  Uiso   1.00
H352   H     0.16489   0.07732   0.83507   0.00000  Uiso   1.00
H353   H     0.42517   0.24211   0.06978   0.00000  Uiso   1.00
H354   H     0.54134   0.20181   0.01969   0.00000  Uiso   1.00
H355   H     0.40227   0.27680   0.25179   0.00000  Uiso   1.00
H356   H     0.33833   0.26563   0.93350   0.00000  Uiso   1.00
H357   H     0.65999   0.12892   0.97114   0.00000  Uiso   1.00
H358   H     0.36672   0.28705   0.46051   0.00000  Uiso   1.00
H359   H     0.23190   0.26348   0.78934   0.00000  Uiso   1.00
O360   O     0.70150   0.00540   0.96205   0.00000  Uiso   1.00
O361   O     0.31673   0.21286   0.60408   0.00000  Uiso   1.00
O362   O     0.13985   0.18195   0.72352   0.00000  Uiso   1.00
N363   N     0.59280   0.99210   0.01295   0.00000  Uiso   1.00
N364   N     0.31862   0.13993   0.47049   0.00000  Uiso   1.00
N365   N     0.19256   0.11791   0.84303   0.00000  Uiso   1.00
N366   N     0.62886   0.09227   0.98835   0.00000  Uiso   1.00
N367   N     0.35468   0.24011   0.44589   0.00000  Uiso   1.00
N368   N     0.22862   0.21808   0.81842   0.00000  Uiso   1.00
