data_job_03290
_audit_creation_date              2018-12-19
_audit_creation_method            'Materials Studio'
_symmetry_space_group_name_H-M    'P1'
_symmetry_Int_Tables_number       1
_symmetry_cell_setting            triclinic
loop_
_symmetry_equiv_pos_as_xyz
  x,y,z
_cell_length_a                    7.0258
_cell_length_b                    42.1795
_cell_length_c                    34.1702
_cell_angle_alpha                 90.0000
_cell_angle_beta                  104.3511
_cell_angle_gamma                 90.0000
loop_
_atom_site_label
_atom_site_type_symbol
_atom_site_fract_x
_atom_site_fract_y
_atom_site_fract_z
_atom_site_U_iso_or_equiv
_atom_site_adp_type
_atom_site_occupancy
C1     C     0.32461   0.65018   0.44703   0.00000  Uiso   1.00
C2     C     0.40826   0.67602   0.47769   0.00000  Uiso   1.00
C3     C     0.30700   0.69169   0.50200   0.00000  Uiso   1.00
C4     C     0.40958   0.71459   0.52807   0.00000  Uiso   1.00
C5     C     0.50952   0.75366   0.57540   0.00000  Uiso   1.00
C6     C     0.35465   0.66174   0.40670   0.00000  Uiso   1.00
C7     C     0.20830   0.66539   0.37133   0.00000  Uiso   1.00
C8     C     0.26577   0.67626   0.33765   0.00000  Uiso   1.00
C9     C     0.28249   0.69314   0.27477   0.00000  Uiso   1.00
C10    C     0.45916   0.62156   0.45882   0.00000  Uiso   1.00
C11    C     0.40069   0.59142   0.46726   0.00000  Uiso   1.00
C12    C     0.54615   0.56845   0.47745   0.00000  Uiso   1.00
C13    C     0.72515   0.52294   0.49549   0.00000  Uiso   1.00
C14    C     0.68689   0.66297   0.45012   0.00000  Uiso   1.00
C15    C     0.60504   0.68297   0.47937   0.00000  Uiso   1.00
C16    C     0.70782   0.70584   0.50542   0.00000  Uiso   1.00
C17    C     0.60672   0.72155   0.52976   0.00000  Uiso   1.00
C18    C     0.55142   0.66869   0.40838   0.00000  Uiso   1.00
C19    C     0.60912   0.67955   0.37475   0.00000  Uiso   1.00
C20    C     0.46290   0.68322   0.33933   0.00000  Uiso   1.00
C21    C     0.65594   0.62850   0.46050   0.00000  Uiso   1.00
C22    C     0.80152   0.60558   0.47068   0.00000  Uiso   1.00
C23    C     0.74328   0.57541   0.47913   0.00000  Uiso   1.00
H24    H     0.17141   0.64477   0.44573   0.00000  Uiso   1.00
H25    H     0.15471   0.68631   0.50069   0.00000  Uiso   1.00
H26    H     0.05604   0.66001   0.37004   0.00000  Uiso   1.00
H27    H     0.24841   0.58605   0.46596   0.00000  Uiso   1.00
H28    H     0.22295   0.73543   0.56235   0.00000  Uiso   1.00
H29    H     0.01491   0.67997   0.28687   0.00000  Uiso   1.00
H30    H     0.42055   0.52401   0.48913   0.00000  Uiso   1.00
H31    H     0.84009   0.66838   0.45143   0.00000  Uiso   1.00
H32    H     0.86009   0.71122   0.50671   0.00000  Uiso   1.00
H33    H     0.76141   0.68492   0.37606   0.00000  Uiso   1.00
H34    H     0.95378   0.61096   0.47197   0.00000  Uiso   1.00
H35    H     0.79546   0.75565   0.56724   0.00000  Uiso   1.00
H36    H     0.58741   0.70019   0.29175   0.00000  Uiso   1.00
H37    H     0.99306   0.54423   0.49401   0.00000  Uiso   1.00
O38    O     0.51028   0.77330   0.60104   0.00000  Uiso   1.00
O39    O     0.23734   0.70053   0.23962   0.00000  Uiso   1.00
O40    O     0.76952   0.49592   0.50498   0.00000  Uiso   1.00
N41    N     0.35496   0.73431   0.55592   0.00000  Uiso   1.00
N42    N     0.16045   0.68246   0.29836   0.00000  Uiso   1.00
N43    N     0.53968   0.53665   0.48745   0.00000  Uiso   1.00
N44    N     0.66302   0.74519   0.55855   0.00000  Uiso   1.00
N45    N     0.46851   0.69334   0.30099   0.00000  Uiso   1.00
N46    N     0.84774   0.54753   0.49007   0.00000  Uiso   1.00
C47    C     0.82461   0.15018   0.44703   0.00000  Uiso   1.00
C48    C     0.90826   0.17602   0.47769   0.00000  Uiso   1.00
C49    C     0.80700   0.19169   0.50200   0.00000  Uiso   1.00
C50    C     0.90958   0.21459   0.52807   0.00000  Uiso   1.00
C51    C     0.00952   0.25366   0.57540   0.00000  Uiso   1.00
C52    C     0.85465   0.16174   0.40670   0.00000  Uiso   1.00
C53    C     0.70830   0.16539   0.37133   0.00000  Uiso   1.00
C54    C     0.76577   0.17626   0.33765   0.00000  Uiso   1.00
C55    C     0.78249   0.19314   0.27477   0.00000  Uiso   1.00
C56    C     0.95916   0.12156   0.45882   0.00000  Uiso   1.00
C57    C     0.90069   0.09142   0.46726   0.00000  Uiso   1.00
C58    C     0.04615   0.06845   0.47745   0.00000  Uiso   1.00
C59    C     0.22515   0.02294   0.49549   0.00000  Uiso   1.00
C60    C     0.18689   0.16297   0.45012   0.00000  Uiso   1.00
C61    C     0.10504   0.18297   0.47937   0.00000  Uiso   1.00
C62    C     0.20782   0.20584   0.50542   0.00000  Uiso   1.00
C63    C     0.10672   0.22155   0.52976   0.00000  Uiso   1.00
C64    C     0.05142   0.16869   0.40838   0.00000  Uiso   1.00
C65    C     0.10912   0.17955   0.37475   0.00000  Uiso   1.00
C66    C     0.96290   0.18322   0.33933   0.00000  Uiso   1.00
C67    C     0.15594   0.12850   0.46050   0.00000  Uiso   1.00
C68    C     0.30152   0.10558   0.47068   0.00000  Uiso   1.00
C69    C     0.24328   0.07541   0.47913   0.00000  Uiso   1.00
H70    H     0.67141   0.14477   0.44573   0.00000  Uiso   1.00
H71    H     0.65471   0.18631   0.50069   0.00000  Uiso   1.00
H72    H     0.55604   0.16001   0.37004   0.00000  Uiso   1.00
H73    H     0.74841   0.08605   0.46596   0.00000  Uiso   1.00
H74    H     0.72295   0.23543   0.56235   0.00000  Uiso   1.00
H75    H     0.51491   0.17997   0.28687   0.00000  Uiso   1.00
H76    H     0.92055   0.02401   0.48913   0.00000  Uiso   1.00
H77    H     0.34009   0.16838   0.45143   0.00000  Uiso   1.00
H78    H     0.36009   0.21122   0.50671   0.00000  Uiso   1.00
H79    H     0.26141   0.18492   0.37606   0.00000  Uiso   1.00
H80    H     0.45378   0.11096   0.47197   0.00000  Uiso   1.00
H81    H     0.29546   0.25565   0.56724   0.00000  Uiso   1.00
H82    H     0.08741   0.20019   0.29175   0.00000  Uiso   1.00
H83    H     0.49306   0.04423   0.49401   0.00000  Uiso   1.00
O84    O     0.01028   0.27330   0.60104   0.00000  Uiso   1.00
O85    O     0.73734   0.20053   0.23962   0.00000  Uiso   1.00
O86    O     0.26952   0.99592   0.50498   0.00000  Uiso   1.00
N87    N     0.85496   0.23431   0.55592   0.00000  Uiso   1.00
N88    N     0.66045   0.18246   0.29836   0.00000  Uiso   1.00
N89    N     0.03968   0.03665   0.48745   0.00000  Uiso   1.00
N90    N     0.16302   0.24519   0.55855   0.00000  Uiso   1.00
N91    N     0.96851   0.19334   0.30099   0.00000  Uiso   1.00
N92    N     0.34774   0.04753   0.49007   0.00000  Uiso   1.00
C93    C     0.67539   0.65018   0.05297   0.00000  Uiso   1.00
C94    C     0.59174   0.67602   0.02231   0.00000  Uiso   1.00
C95    C     0.69300   0.69169   0.99800   0.00000  Uiso   1.00
C96    C     0.59042   0.71459   0.97193   0.00000  Uiso   1.00
C97    C     0.49048   0.75366   0.92460   0.00000  Uiso   1.00
C98    C     0.64535   0.66174   0.09330   0.00000  Uiso   1.00
C99    C     0.79170   0.66539   0.12867   0.00000  Uiso   1.00
C100   C     0.73423   0.67626   0.16235   0.00000  Uiso   1.00
C101   C     0.71751   0.69314   0.22523   0.00000  Uiso   1.00
C102   C     0.54084   0.62156   0.04118   0.00000  Uiso   1.00
C103   C     0.59931   0.59142   0.03274   0.00000  Uiso   1.00
C104   C     0.45385   0.56845   0.02255   0.00000  Uiso   1.00
C105   C     0.27485   0.52294   0.00451   0.00000  Uiso   1.00
C106   C     0.31311   0.66297   0.04988   0.00000  Uiso   1.00
C107   C     0.39496   0.68297   0.02063   0.00000  Uiso   1.00
C108   C     0.29218   0.70584   0.99458   0.00000  Uiso   1.00
C109   C     0.39328   0.72155   0.97024   0.00000  Uiso   1.00
C110   C     0.44858   0.66869   0.09162   0.00000  Uiso   1.00
C111   C     0.39088   0.67955   0.12525   0.00000  Uiso   1.00
C112   C     0.53710   0.68322   0.16067   0.00000  Uiso   1.00
C113   C     0.34406   0.62850   0.03950   0.00000  Uiso   1.00
C114   C     0.19848   0.60558   0.02932   0.00000  Uiso   1.00
C115   C     0.25672   0.57541   0.02087   0.00000  Uiso   1.00
H116   H     0.82859   0.64477   0.05427   0.00000  Uiso   1.00
H117   H     0.84529   0.68631   0.99931   0.00000  Uiso   1.00
H118   H     0.94396   0.66001   0.12996   0.00000  Uiso   1.00
H119   H     0.75159   0.58605   0.03404   0.00000  Uiso   1.00
H120   H     0.77705   0.73543   0.93765   0.00000  Uiso   1.00
H121   H     0.98509   0.67997   0.21313   0.00000  Uiso   1.00
H122   H     0.57945   0.52401   0.01087   0.00000  Uiso   1.00
H123   H     0.15991   0.66838   0.04857   0.00000  Uiso   1.00
H124   H     0.13991   0.71122   0.99329   0.00000  Uiso   1.00
H125   H     0.23859   0.68492   0.12394   0.00000  Uiso   1.00
H126   H     0.04622   0.61096   0.02803   0.00000  Uiso   1.00
H127   H     0.20454   0.75565   0.93276   0.00000  Uiso   1.00
H128   H     0.41259   0.70019   0.20825   0.00000  Uiso   1.00
H129   H     0.00694   0.54423   0.00599   0.00000  Uiso   1.00
O130   O     0.48972   0.77330   0.89896   0.00000  Uiso   1.00
O131   O     0.76266   0.70053   0.26038   0.00000  Uiso   1.00
O132   O     0.23048   0.49592   0.99502   0.00000  Uiso   1.00
N133   N     0.64504   0.73431   0.94408   0.00000  Uiso   1.00
N134   N     0.83955   0.68246   0.20164   0.00000  Uiso   1.00
N135   N     0.46032   0.53665   0.01255   0.00000  Uiso   1.00
N136   N     0.33698   0.74519   0.94145   0.00000  Uiso   1.00
N137   N     0.53149   0.69334   0.19901   0.00000  Uiso   1.00
N138   N     0.15226   0.54753   0.00993   0.00000  Uiso   1.00
C139   C     0.17539   0.15018   0.05297   0.00000  Uiso   1.00
C140   C     0.09174   0.17602   0.02231   0.00000  Uiso   1.00
C141   C     0.19300   0.19169   0.99800   0.00000  Uiso   1.00
C142   C     0.09042   0.21459   0.97193   0.00000  Uiso   1.00
C143   C     0.99048   0.25366   0.92460   0.00000  Uiso   1.00
C144   C     0.14535   0.16174   0.09330   0.00000  Uiso   1.00
C145   C     0.29170   0.16539   0.12867   0.00000  Uiso   1.00
C146   C     0.23423   0.17626   0.16235   0.00000  Uiso   1.00
C147   C     0.21751   0.19314   0.22523   0.00000  Uiso   1.00
C148   C     0.04084   0.12156   0.04118   0.00000  Uiso   1.00
C149   C     0.09931   0.09142   0.03274   0.00000  Uiso   1.00
C150   C     0.95385   0.06845   0.02255   0.00000  Uiso   1.00
C151   C     0.77485   0.02294   0.00451   0.00000  Uiso   1.00
C152   C     0.81311   0.16297   0.04988   0.00000  Uiso   1.00
C153   C     0.89496   0.18297   0.02063   0.00000  Uiso   1.00
C154   C     0.79218   0.20584   0.99458   0.00000  Uiso   1.00
C155   C     0.89328   0.22155   0.97024   0.00000  Uiso   1.00
C156   C     0.94858   0.16869   0.09162   0.00000  Uiso   1.00
C157   C     0.89088   0.17955   0.12525   0.00000  Uiso   1.00
C158   C     0.03710   0.18322   0.16067   0.00000  Uiso   1.00
C159   C     0.84406   0.12850   0.03950   0.00000  Uiso   1.00
C160   C     0.69848   0.10558   0.02932   0.00000  Uiso   1.00
C161   C     0.75672   0.07541   0.02087   0.00000  Uiso   1.00
H162   H     0.32859   0.14477   0.05427   0.00000  Uiso   1.00
H163   H     0.34529   0.18631   0.99931   0.00000  Uiso   1.00
H164   H     0.44396   0.16001   0.12996   0.00000  Uiso   1.00
H165   H     0.25159   0.08605   0.03404   0.00000  Uiso   1.00
H166   H     0.27705   0.23543   0.93765   0.00000  Uiso   1.00
H167   H     0.48509   0.17997   0.21313   0.00000  Uiso   1.00
H168   H     0.07945   0.02401   0.01087   0.00000  Uiso   1.00
H169   H     0.65991   0.16838   0.04857   0.00000  Uiso   1.00
H170   H     0.63991   0.21122   0.99329   0.00000  Uiso   1.00
H171   H     0.73859   0.18492   0.12394   0.00000  Uiso   1.00
H172   H     0.54622   0.11096   0.02803   0.00000  Uiso   1.00
H173   H     0.70454   0.25565   0.93276   0.00000  Uiso   1.00
H174   H     0.91259   0.20019   0.20825   0.00000  Uiso   1.00
H175   H     0.50694   0.04423   0.00599   0.00000  Uiso   1.00
O176   O     0.98972   0.27330   0.89896   0.00000  Uiso   1.00
O177   O     0.26266   0.20053   0.26038   0.00000  Uiso   1.00
O178   O     0.73048   0.99592   0.99502   0.00000  Uiso   1.00
N179   N     0.14504   0.23431   0.94408   0.00000  Uiso   1.00
N180   N     0.33955   0.18246   0.20164   0.00000  Uiso   1.00
N181   N     0.96032   0.03665   0.01255   0.00000  Uiso   1.00
N182   N     0.83698   0.24519   0.94145   0.00000  Uiso   1.00
N183   N     0.03149   0.19334   0.19901   0.00000  Uiso   1.00
N184   N     0.65226   0.04753   0.00993   0.00000  Uiso   1.00
C185   C     0.67539   0.34982   0.55297   0.00000  Uiso   1.00
C186   C     0.59174   0.32398   0.52231   0.00000  Uiso   1.00
C187   C     0.69300   0.30831   0.49800   0.00000  Uiso   1.00
C188   C     0.59042   0.28541   0.47193   0.00000  Uiso   1.00
C189   C     0.49048   0.24634   0.42460   0.00000  Uiso   1.00
C190   C     0.64535   0.33826   0.59330   0.00000  Uiso   1.00
C191   C     0.79170   0.33461   0.62867   0.00000  Uiso   1.00
C192   C     0.73423   0.32374   0.66235   0.00000  Uiso   1.00
C193   C     0.71751   0.30686   0.72523   0.00000  Uiso   1.00
C194   C     0.54084   0.37844   0.54118   0.00000  Uiso   1.00
C195   C     0.59931   0.40858   0.53274   0.00000  Uiso   1.00
C196   C     0.45385   0.43155   0.52255   0.00000  Uiso   1.00
C197   C     0.27485   0.47706   0.50451   0.00000  Uiso   1.00
C198   C     0.31311   0.33703   0.54988   0.00000  Uiso   1.00
C199   C     0.39496   0.31703   0.52063   0.00000  Uiso   1.00
C200   C     0.29218   0.29416   0.49458   0.00000  Uiso   1.00
C201   C     0.39328   0.27845   0.47024   0.00000  Uiso   1.00
C202   C     0.44858   0.33131   0.59162   0.00000  Uiso   1.00
C203   C     0.39088   0.32045   0.62525   0.00000  Uiso   1.00
C204   C     0.53710   0.31678   0.66067   0.00000  Uiso   1.00
C205   C     0.34406   0.37150   0.53950   0.00000  Uiso   1.00
C206   C     0.19848   0.39442   0.52932   0.00000  Uiso   1.00
C207   C     0.25672   0.42459   0.52087   0.00000  Uiso   1.00
H208   H     0.82859   0.35523   0.55427   0.00000  Uiso   1.00
H209   H     0.84529   0.31369   0.49931   0.00000  Uiso   1.00
H210   H     0.94396   0.33999   0.62996   0.00000  Uiso   1.00
H211   H     0.75159   0.41395   0.53404   0.00000  Uiso   1.00
H212   H     0.77705   0.26457   0.43765   0.00000  Uiso   1.00
H213   H     0.98509   0.32003   0.71313   0.00000  Uiso   1.00
H214   H     0.57945   0.47599   0.51087   0.00000  Uiso   1.00
H215   H     0.15991   0.33162   0.54857   0.00000  Uiso   1.00
H216   H     0.13991   0.28878   0.49329   0.00000  Uiso   1.00
H217   H     0.23859   0.31508   0.62394   0.00000  Uiso   1.00
H218   H     0.04622   0.38904   0.52803   0.00000  Uiso   1.00
H219   H     0.20454   0.24435   0.43276   0.00000  Uiso   1.00
H220   H     0.41259   0.29981   0.70825   0.00000  Uiso   1.00
H221   H     0.00694   0.45577   0.50599   0.00000  Uiso   1.00
O222   O     0.48972   0.22670   0.39896   0.00000  Uiso   1.00
O223   O     0.76266   0.29947   0.76038   0.00000  Uiso   1.00
O224   O     0.23048   0.50408   0.49502   0.00000  Uiso   1.00
N225   N     0.64504   0.26569   0.44408   0.00000  Uiso   1.00
N226   N     0.83955   0.31754   0.70164   0.00000  Uiso   1.00
N227   N     0.46032   0.46335   0.51255   0.00000  Uiso   1.00
N228   N     0.33698   0.25481   0.44145   0.00000  Uiso   1.00
N229   N     0.53149   0.30666   0.69901   0.00000  Uiso   1.00
N230   N     0.15226   0.45247   0.50993   0.00000  Uiso   1.00
C231   C     0.17539   0.84982   0.55297   0.00000  Uiso   1.00
C232   C     0.09174   0.82398   0.52231   0.00000  Uiso   1.00
C233   C     0.19300   0.80831   0.49800   0.00000  Uiso   1.00
C234   C     0.09042   0.78541   0.47193   0.00000  Uiso   1.00
C235   C     0.99048   0.74634   0.42460   0.00000  Uiso   1.00
C236   C     0.14535   0.83826   0.59330   0.00000  Uiso   1.00
C237   C     0.29170   0.83461   0.62867   0.00000  Uiso   1.00
C238   C     0.23423   0.82374   0.66235   0.00000  Uiso   1.00
C239   C     0.21751   0.80686   0.72523   0.00000  Uiso   1.00
C240   C     0.04084   0.87844   0.54118   0.00000  Uiso   1.00
C241   C     0.09931   0.90858   0.53274   0.00000  Uiso   1.00
C242   C     0.95385   0.93155   0.52255   0.00000  Uiso   1.00
C243   C     0.77485   0.97706   0.50451   0.00000  Uiso   1.00
C244   C     0.81311   0.83703   0.54988   0.00000  Uiso   1.00
C245   C     0.89496   0.81703   0.52063   0.00000  Uiso   1.00
C246   C     0.79218   0.79416   0.49458   0.00000  Uiso   1.00
C247   C     0.89328   0.77845   0.47024   0.00000  Uiso   1.00
C248   C     0.94858   0.83131   0.59162   0.00000  Uiso   1.00
C249   C     0.89088   0.82045   0.62525   0.00000  Uiso   1.00
C250   C     0.03710   0.81678   0.66067   0.00000  Uiso   1.00
C251   C     0.84406   0.87150   0.53950   0.00000  Uiso   1.00
C252   C     0.69848   0.89442   0.52932   0.00000  Uiso   1.00
C253   C     0.75672   0.92459   0.52087   0.00000  Uiso   1.00
H254   H     0.32859   0.85523   0.55427   0.00000  Uiso   1.00
H255   H     0.34529   0.81369   0.49931   0.00000  Uiso   1.00
H256   H     0.44396   0.83999   0.62996   0.00000  Uiso   1.00
H257   H     0.25159   0.91395   0.53404   0.00000  Uiso   1.00
H258   H     0.27705   0.76457   0.43765   0.00000  Uiso   1.00
H259   H     0.48509   0.82003   0.71313   0.00000  Uiso   1.00
H260   H     0.07945   0.97599   0.51087   0.00000  Uiso   1.00
H261   H     0.65991   0.83162   0.54857   0.00000  Uiso   1.00
H262   H     0.63991   0.78878   0.49329   0.00000  Uiso   1.00
H263   H     0.73859   0.81508   0.62394   0.00000  Uiso   1.00
H264   H     0.54622   0.88904   0.52803   0.00000  Uiso   1.00
H265   H     0.70454   0.74435   0.43276   0.00000  Uiso   1.00
H266   H     0.91259   0.79981   0.70825   0.00000  Uiso   1.00
H267   H     0.50694   0.95577   0.50599   0.00000  Uiso   1.00
O268   O     0.98972   0.72670   0.39896   0.00000  Uiso   1.00
O269   O     0.26266   0.79947   0.76038   0.00000  Uiso   1.00
O270   O     0.73048   0.00408   0.49502   0.00000  Uiso   1.00
N271   N     0.14504   0.76569   0.44408   0.00000  Uiso   1.00
N272   N     0.33955   0.81754   0.70164   0.00000  Uiso   1.00
N273   N     0.96032   0.96335   0.51255   0.00000  Uiso   1.00
N274   N     0.83698   0.75481   0.44145   0.00000  Uiso   1.00
N275   N     0.03149   0.80666   0.69901   0.00000  Uiso   1.00
N276   N     0.65226   0.95247   0.50993   0.00000  Uiso   1.00
C277   C     0.32461   0.34982   0.94703   0.00000  Uiso   1.00
C278   C     0.40826   0.32398   0.97769   0.00000  Uiso   1.00
C279   C     0.30700   0.30831   0.00200   0.00000  Uiso   1.00
C280   C     0.40958   0.28541   0.02807   0.00000  Uiso   1.00
C281   C     0.50952   0.24634   0.07540   0.00000  Uiso   1.00
C282   C     0.35465   0.33826   0.90670   0.00000  Uiso   1.00
C283   C     0.20830   0.33461   0.87133   0.00000  Uiso   1.00
C284   C     0.26577   0.32374   0.83765   0.00000  Uiso   1.00
C285   C     0.28249   0.30686   0.77477   0.00000  Uiso   1.00
C286   C     0.45916   0.37844   0.95882   0.00000  Uiso   1.00
C287   C     0.40069   0.40858   0.96726   0.00000  Uiso   1.00
C288   C     0.54615   0.43155   0.97745   0.00000  Uiso   1.00
C289   C     0.72515   0.47706   0.99549   0.00000  Uiso   1.00
C290   C     0.68689   0.33703   0.95012   0.00000  Uiso   1.00
C291   C     0.60504   0.31703   0.97937   0.00000  Uiso   1.00
C292   C     0.70782   0.29416   0.00542   0.00000  Uiso   1.00
C293   C     0.60672   0.27845   0.02976   0.00000  Uiso   1.00
C294   C     0.55142   0.33131   0.90838   0.00000  Uiso   1.00
C295   C     0.60912   0.32045   0.87475   0.00000  Uiso   1.00
C296   C     0.46290   0.31678   0.83933   0.00000  Uiso   1.00
C297   C     0.65594   0.37150   0.96050   0.00000  Uiso   1.00
C298   C     0.80152   0.39442   0.97068   0.00000  Uiso   1.00
C299   C     0.74328   0.42459   0.97913   0.00000  Uiso   1.00
H300   H     0.17141   0.35523   0.94573   0.00000  Uiso   1.00
H301   H     0.15471   0.31369   0.00069   0.00000  Uiso   1.00
H302   H     0.05604   0.33999   0.87004   0.00000  Uiso   1.00
H303   H     0.24841   0.41395   0.96596   0.00000  Uiso   1.00
H304   H     0.22295   0.26457   0.06235   0.00000  Uiso   1.00
H305   H     0.01491   0.32003   0.78687   0.00000  Uiso   1.00
H306   H     0.42055   0.47599   0.98913   0.00000  Uiso   1.00
H307   H     0.84009   0.33162   0.95143   0.00000  Uiso   1.00
H308   H     0.86009   0.28878   0.00671   0.00000  Uiso   1.00
H309   H     0.76141   0.31508   0.87606   0.00000  Uiso   1.00
H310   H     0.95378   0.38904   0.97197   0.00000  Uiso   1.00
H311   H     0.79546   0.24435   0.06724   0.00000  Uiso   1.00
H312   H     0.58741   0.29981   0.79175   0.00000  Uiso   1.00
H313   H     0.99306   0.45577   0.99401   0.00000  Uiso   1.00
O314   O     0.51028   0.22670   0.10104   0.00000  Uiso   1.00
O315   O     0.23734   0.29947   0.73962   0.00000  Uiso   1.00
O316   O     0.76952   0.50408   0.00498   0.00000  Uiso   1.00
N317   N     0.35496   0.26569   0.05592   0.00000  Uiso   1.00
N318   N     0.16045   0.31754   0.79836   0.00000  Uiso   1.00
N319   N     0.53968   0.46335   0.98745   0.00000  Uiso   1.00
N320   N     0.66302   0.25481   0.05855   0.00000  Uiso   1.00
N321   N     0.46851   0.30666   0.80099   0.00000  Uiso   1.00
N322   N     0.84774   0.45247   0.99007   0.00000  Uiso   1.00
C323   C     0.82461   0.84982   0.94703   0.00000  Uiso   1.00
C324   C     0.90826   0.82398   0.97769   0.00000  Uiso   1.00
C325   C     0.80700   0.80831   0.00200   0.00000  Uiso   1.00
C326   C     0.90958   0.78541   0.02807   0.00000  Uiso   1.00
C327   C     0.00952   0.74634   0.07540   0.00000  Uiso   1.00
C328   C     0.85465   0.83826   0.90670   0.00000  Uiso   1.00
C329   C     0.70830   0.83461   0.87133   0.00000  Uiso   1.00
C330   C     0.76577   0.82374   0.83765   0.00000  Uiso   1.00
C331   C     0.78249   0.80686   0.77477   0.00000  Uiso   1.00
C332   C     0.95916   0.87844   0.95882   0.00000  Uiso   1.00
C333   C     0.90069   0.90858   0.96726   0.00000  Uiso   1.00
C334   C     0.04615   0.93155   0.97745   0.00000  Uiso   1.00
C335   C     0.22515   0.97706   0.99549   0.00000  Uiso   1.00
C336   C     0.18689   0.83703   0.95012   0.00000  Uiso   1.00
C337   C     0.10504   0.81703   0.97937   0.00000  Uiso   1.00
C338   C     0.20782   0.79416   0.00542   0.00000  Uiso   1.00
C339   C     0.10672   0.77845   0.02976   0.00000  Uiso   1.00
C340   C     0.05142   0.83131   0.90838   0.00000  Uiso   1.00
C341   C     0.10912   0.82045   0.87475   0.00000  Uiso   1.00
C342   C     0.96290   0.81678   0.83933   0.00000  Uiso   1.00
C343   C     0.15594   0.87150   0.96050   0.00000  Uiso   1.00
C344   C     0.30152   0.89442   0.97068   0.00000  Uiso   1.00
C345   C     0.24328   0.92459   0.97913   0.00000  Uiso   1.00
H346   H     0.67141   0.85523   0.94573   0.00000  Uiso   1.00
H347   H     0.65471   0.81369   0.00069   0.00000  Uiso   1.00
H348   H     0.55604   0.83999   0.87004   0.00000  Uiso   1.00
H349   H     0.74841   0.91395   0.96596   0.00000  Uiso   1.00
H350   H     0.72295   0.76457   0.06235   0.00000  Uiso   1.00
H351   H     0.51491   0.82003   0.78687   0.00000  Uiso   1.00
H352   H     0.92055   0.97599   0.98913   0.00000  Uiso   1.00
H353   H     0.34009   0.83162   0.95143   0.00000  Uiso   1.00
H354   H     0.36009   0.78878   0.00671   0.00000  Uiso   1.00
H355   H     0.26141   0.81508   0.87606   0.00000  Uiso   1.00
H356   H     0.45378   0.88904   0.97197   0.00000  Uiso   1.00
H357   H     0.29546   0.74435   0.06724   0.00000  Uiso   1.00
H358   H     0.08741   0.79981   0.79175   0.00000  Uiso   1.00
H359   H     0.49306   0.95577   0.99401   0.00000  Uiso   1.00
O360   O     0.01028   0.72670   0.10104   0.00000  Uiso   1.00
O361   O     0.73734   0.79947   0.73962   0.00000  Uiso   1.00
O362   O     0.26952   0.00408   0.00498   0.00000  Uiso   1.00
N363   N     0.85496   0.76569   0.05592   0.00000  Uiso   1.00
N364   N     0.66045   0.81754   0.79836   0.00000  Uiso   1.00
N365   N     0.03968   0.96335   0.98745   0.00000  Uiso   1.00
N366   N     0.16302   0.75481   0.05855   0.00000  Uiso   1.00
N367   N     0.96851   0.80666   0.80099   0.00000  Uiso   1.00
N368   N     0.34774   0.95247   0.99007   0.00000  Uiso   1.00
