data_job_05538
_audit_creation_date              2018-12-19
_audit_creation_method            'Materials Studio'
_symmetry_space_group_name_H-M    'P1'
_symmetry_Int_Tables_number       1
_symmetry_cell_setting            triclinic
loop_
_symmetry_equiv_pos_as_xyz
  x,y,z
_cell_length_a                    21.4292
_cell_length_b                    8.9001
_cell_length_c                    16.3301
_cell_angle_alpha                 90.0000
_cell_angle_beta                  70.8694
_cell_angle_gamma                 90.0000
loop_
_atom_site_label
_atom_site_type_symbol
_atom_site_fract_x
_atom_site_fract_y
_atom_site_fract_z
_atom_site_U_iso_or_equiv
_atom_site_adp_type
_atom_site_occupancy
C1     C     0.65416   0.20278   0.75922   0.00000  Uiso   1.00
C2     C     0.66474   0.21409   0.66242   0.00000  Uiso   1.00
C3     C     0.65440   0.34132   0.61944   0.00000  Uiso   1.00
C4     C     0.66689   0.32876   0.53075   0.00000  Uiso   1.00
C5     C     0.67993   0.36684   0.38715   0.00000  Uiso   1.00
C6     C     0.60576   0.07365   0.79291   0.00000  Uiso   1.00
C7     C     0.54584   0.08279   0.85966   0.00000  Uiso   1.00
C8     C     0.50869   0.95200   0.88082   0.00000  Uiso   1.00
C9     C     0.43019   0.77201   0.93986   0.00000  Uiso   1.00
C10    C     0.71980   0.15029   0.76677   0.00000  Uiso   1.00
C11    C     0.75575   0.22384   0.81155   0.00000  Uiso   1.00
C12    C     0.81460   0.15755   0.81072   0.00000  Uiso   1.00
C13    C     0.91315   0.09656   0.82916   0.00000  Uiso   1.00
C14    C     0.69475   0.95425   0.67815   0.00000  Uiso   1.00
C15    C     0.68678   0.07909   0.61839   0.00000  Uiso   1.00
C16    C     0.69930   0.06634   0.52974   0.00000  Uiso   1.00
C17    C     0.68898   0.19353   0.48663   0.00000  Uiso   1.00
C18    C     0.62781   0.93866   0.74888   0.00000  Uiso   1.00
C19    C     0.59074   0.80782   0.76995   0.00000  Uiso   1.00
C20    C     0.53078   0.81676   0.83670   0.00000  Uiso   1.00
C21    C     0.74184   0.01529   0.72273   0.00000  Uiso   1.00
C22    C     0.80065   0.94887   0.72184   0.00000  Uiso   1.00
C23    C     0.83669   0.02232   0.76660   0.00000  Uiso   1.00
H24    H     0.63700   0.30788   0.79351   0.00000  Uiso   1.00
H25    H     0.63733   0.44576   0.65355   0.00000  Uiso   1.00
H26    H     0.52879   0.18727   0.89373   0.00000  Uiso   1.00
H27    H     0.73867   0.32830   0.84562   0.00000  Uiso   1.00
H28    H     0.64740   0.53909   0.47895   0.00000  Uiso   1.00
H29    H     0.41856   0.99403   0.98541   0.00000  Uiso   1.00
H30    H     0.86112   0.29143   0.88397   0.00000  Uiso   1.00
H31    H     0.71191   0.84914   0.64386   0.00000  Uiso   1.00
H32    H     0.71636   0.96186   0.49568   0.00000  Uiso   1.00
H33    H     0.60782   0.70337   0.73586   0.00000  Uiso   1.00
H34    H     0.81770   0.84440   0.68776   0.00000  Uiso   1.00
H35    H     0.71154   0.14633   0.35082   0.00000  Uiso   1.00
H36    H     0.48270   0.60127   0.85729   0.00000  Uiso   1.00
H37    H     0.92526   0.89867   0.75584   0.00000  Uiso   1.00
O38    O     0.68102   0.42512   0.32011   0.00000  Uiso   1.00
O39    O     0.38079   0.71003   0.98458   0.00000  Uiso   1.00
O40    O     0.96143   0.10021   0.85149   0.00000  Uiso   1.00
N41    N     0.66190   0.43119   0.46913   0.00000  Uiso   1.00
N42    N     0.44794   0.92160   0.94263   0.00000  Uiso   1.00
N43    N     0.86169   0.19962   0.84781   0.00000  Uiso   1.00
N44    N     0.69641   0.21986   0.40018   0.00000  Uiso   1.00
N45    N     0.48245   0.71027   0.87368   0.00000  Uiso   1.00
N46    N     0.89620   0.98829   0.77887   0.00000  Uiso   1.00
C47    C     0.34584   0.20278   0.74078   0.00000  Uiso   1.00
C48    C     0.33526   0.21409   0.83758   0.00000  Uiso   1.00
C49    C     0.34560   0.34132   0.88056   0.00000  Uiso   1.00
C50    C     0.33311   0.32876   0.96925   0.00000  Uiso   1.00
C51    C     0.32007   0.36684   0.11285   0.00000  Uiso   1.00
C52    C     0.39424   0.07365   0.70709   0.00000  Uiso   1.00
C53    C     0.45416   0.08279   0.64034   0.00000  Uiso   1.00
C54    C     0.49131   0.95200   0.61918   0.00000  Uiso   1.00
C55    C     0.56981   0.77201   0.56014   0.00000  Uiso   1.00
C56    C     0.28020   0.15029   0.73323   0.00000  Uiso   1.00
C57    C     0.24425   0.22384   0.68845   0.00000  Uiso   1.00
C58    C     0.18540   0.15755   0.68928   0.00000  Uiso   1.00
C59    C     0.08685   0.09656   0.67084   0.00000  Uiso   1.00
C60    C     0.30525   0.95425   0.82185   0.00000  Uiso   1.00
C61    C     0.31322   0.07909   0.88161   0.00000  Uiso   1.00
C62    C     0.30070   0.06634   0.97026   0.00000  Uiso   1.00
C63    C     0.31102   0.19353   0.01337   0.00000  Uiso   1.00
C64    C     0.37219   0.93866   0.75112   0.00000  Uiso   1.00
C65    C     0.40926   0.80782   0.73005   0.00000  Uiso   1.00
C66    C     0.46922   0.81676   0.66330   0.00000  Uiso   1.00
C67    C     0.25816   0.01529   0.77727   0.00000  Uiso   1.00
C68    C     0.19935   0.94887   0.77816   0.00000  Uiso   1.00
C69    C     0.16331   0.02232   0.73340   0.00000  Uiso   1.00
H70    H     0.36300   0.30788   0.70649   0.00000  Uiso   1.00
H71    H     0.36267   0.44576   0.84645   0.00000  Uiso   1.00
H72    H     0.47121   0.18727   0.60627   0.00000  Uiso   1.00
H73    H     0.26133   0.32830   0.65438   0.00000  Uiso   1.00
H74    H     0.35260   0.53909   0.02105   0.00000  Uiso   1.00
H75    H     0.58144   0.99403   0.51459   0.00000  Uiso   1.00
H76    H     0.13888   0.29143   0.61603   0.00000  Uiso   1.00
H77    H     0.28809   0.84914   0.85614   0.00000  Uiso   1.00
H78    H     0.28364   0.96186   0.00432   0.00000  Uiso   1.00
H79    H     0.39218   0.70337   0.76414   0.00000  Uiso   1.00
H80    H     0.18230   0.84440   0.81224   0.00000  Uiso   1.00
H81    H     0.28846   0.14633   0.14918   0.00000  Uiso   1.00
H82    H     0.51730   0.60127   0.64271   0.00000  Uiso   1.00
H83    H     0.07474   0.89867   0.74416   0.00000  Uiso   1.00
O84    O     0.31898   0.42512   0.17989   0.00000  Uiso   1.00
O85    O     0.61921   0.71003   0.51542   0.00000  Uiso   1.00
O86    O     0.03857   0.10021   0.64851   0.00000  Uiso   1.00
N87    N     0.33810   0.43119   0.03087   0.00000  Uiso   1.00
N88    N     0.55206   0.92160   0.55737   0.00000  Uiso   1.00
N89    N     0.13831   0.19962   0.65219   0.00000  Uiso   1.00
N90    N     0.30359   0.21986   0.09982   0.00000  Uiso   1.00
N91    N     0.51755   0.71027   0.62632   0.00000  Uiso   1.00
N92    N     0.10380   0.98829   0.72113   0.00000  Uiso   1.00
C93    C     0.34584   0.79722   0.24078   0.00000  Uiso   1.00
C94    C     0.33526   0.78591   0.33758   0.00000  Uiso   1.00
C95    C     0.34560   0.65868   0.38056   0.00000  Uiso   1.00
C96    C     0.33311   0.67124   0.46925   0.00000  Uiso   1.00
C97    C     0.32007   0.63316   0.61285   0.00000  Uiso   1.00
C98    C     0.39424   0.92635   0.20709   0.00000  Uiso   1.00
C99    C     0.45416   0.91721   0.14034   0.00000  Uiso   1.00
C100   C     0.49131   0.04800   0.11918   0.00000  Uiso   1.00
C101   C     0.56981   0.22799   0.06014   0.00000  Uiso   1.00
C102   C     0.28020   0.84971   0.23323   0.00000  Uiso   1.00
C103   C     0.24425   0.77616   0.18845   0.00000  Uiso   1.00
C104   C     0.18540   0.84245   0.18928   0.00000  Uiso   1.00
C105   C     0.08685   0.90344   0.17084   0.00000  Uiso   1.00
C106   C     0.30525   0.04575   0.32185   0.00000  Uiso   1.00
C107   C     0.31322   0.92091   0.38161   0.00000  Uiso   1.00
C108   C     0.30070   0.93366   0.47026   0.00000  Uiso   1.00
C109   C     0.31102   0.80647   0.51337   0.00000  Uiso   1.00
C110   C     0.37219   0.06134   0.25112   0.00000  Uiso   1.00
C111   C     0.40926   0.19218   0.23005   0.00000  Uiso   1.00
C112   C     0.46922   0.18324   0.16330   0.00000  Uiso   1.00
C113   C     0.25816   0.98471   0.27727   0.00000  Uiso   1.00
C114   C     0.19935   0.05113   0.27816   0.00000  Uiso   1.00
C115   C     0.16331   0.97768   0.23340   0.00000  Uiso   1.00
H116   H     0.36300   0.69212   0.20649   0.00000  Uiso   1.00
H117   H     0.36267   0.55424   0.34645   0.00000  Uiso   1.00
H118   H     0.47121   0.81273   0.10627   0.00000  Uiso   1.00
H119   H     0.26133   0.67170   0.15438   0.00000  Uiso   1.00
H120   H     0.35260   0.46091   0.52105   0.00000  Uiso   1.00
H121   H     0.58144   0.00597   0.01459   0.00000  Uiso   1.00
H122   H     0.13888   0.70857   0.11603   0.00000  Uiso   1.00
H123   H     0.28809   0.15086   0.35614   0.00000  Uiso   1.00
H124   H     0.28364   0.03814   0.50432   0.00000  Uiso   1.00
H125   H     0.39218   0.29663   0.26414   0.00000  Uiso   1.00
H126   H     0.18230   0.15560   0.31224   0.00000  Uiso   1.00
H127   H     0.28846   0.85367   0.64918   0.00000  Uiso   1.00
H128   H     0.51730   0.39873   0.14271   0.00000  Uiso   1.00
H129   H     0.07474   0.10133   0.24416   0.00000  Uiso   1.00
O130   O     0.31898   0.57488   0.67989   0.00000  Uiso   1.00
O131   O     0.61921   0.28997   0.01542   0.00000  Uiso   1.00
O132   O     0.03857   0.89979   0.14851   0.00000  Uiso   1.00
N133   N     0.33810   0.56881   0.53087   0.00000  Uiso   1.00
N134   N     0.55206   0.07840   0.05737   0.00000  Uiso   1.00
N135   N     0.13831   0.80038   0.15219   0.00000  Uiso   1.00
N136   N     0.30359   0.78014   0.59982   0.00000  Uiso   1.00
N137   N     0.51755   0.28973   0.12632   0.00000  Uiso   1.00
N138   N     0.10380   0.01171   0.22113   0.00000  Uiso   1.00
C139   C     0.65416   0.79722   0.25922   0.00000  Uiso   1.00
C140   C     0.66474   0.78591   0.16242   0.00000  Uiso   1.00
C141   C     0.65440   0.65868   0.11944   0.00000  Uiso   1.00
C142   C     0.66689   0.67124   0.03075   0.00000  Uiso   1.00
C143   C     0.67993   0.63316   0.88715   0.00000  Uiso   1.00
C144   C     0.60576   0.92635   0.29291   0.00000  Uiso   1.00
C145   C     0.54584   0.91721   0.35966   0.00000  Uiso   1.00
C146   C     0.50869   0.04800   0.38082   0.00000  Uiso   1.00
C147   C     0.43019   0.22799   0.43986   0.00000  Uiso   1.00
C148   C     0.71980   0.84971   0.26677   0.00000  Uiso   1.00
C149   C     0.75575   0.77616   0.31155   0.00000  Uiso   1.00
C150   C     0.81460   0.84245   0.31072   0.00000  Uiso   1.00
C151   C     0.91315   0.90344   0.32916   0.00000  Uiso   1.00
C152   C     0.69475   0.04575   0.17815   0.00000  Uiso   1.00
C153   C     0.68678   0.92091   0.11839   0.00000  Uiso   1.00
C154   C     0.69930   0.93366   0.02974   0.00000  Uiso   1.00
C155   C     0.68898   0.80647   0.98663   0.00000  Uiso   1.00
C156   C     0.62781   0.06134   0.24888   0.00000  Uiso   1.00
C157   C     0.59074   0.19218   0.26995   0.00000  Uiso   1.00
C158   C     0.53078   0.18324   0.33670   0.00000  Uiso   1.00
C159   C     0.74184   0.98471   0.22273   0.00000  Uiso   1.00
C160   C     0.80065   0.05113   0.22184   0.00000  Uiso   1.00
C161   C     0.83669   0.97768   0.26660   0.00000  Uiso   1.00
H162   H     0.63700   0.69212   0.29351   0.00000  Uiso   1.00
H163   H     0.63733   0.55424   0.15355   0.00000  Uiso   1.00
H164   H     0.52879   0.81273   0.39373   0.00000  Uiso   1.00
H165   H     0.73867   0.67170   0.34562   0.00000  Uiso   1.00
H166   H     0.64740   0.46091   0.97895   0.00000  Uiso   1.00
H167   H     0.41856   0.00597   0.48541   0.00000  Uiso   1.00
H168   H     0.86112   0.70857   0.38397   0.00000  Uiso   1.00
H169   H     0.71191   0.15086   0.14386   0.00000  Uiso   1.00
H170   H     0.71636   0.03814   0.99568   0.00000  Uiso   1.00
H171   H     0.60782   0.29663   0.23586   0.00000  Uiso   1.00
H172   H     0.81770   0.15560   0.18776   0.00000  Uiso   1.00
H173   H     0.71154   0.85367   0.85082   0.00000  Uiso   1.00
H174   H     0.48270   0.39873   0.35729   0.00000  Uiso   1.00
H175   H     0.92526   0.10133   0.25584   0.00000  Uiso   1.00
O176   O     0.68102   0.57488   0.82011   0.00000  Uiso   1.00
O177   O     0.38079   0.28997   0.48458   0.00000  Uiso   1.00
O178   O     0.96143   0.89979   0.35149   0.00000  Uiso   1.00
N179   N     0.66190   0.56881   0.96913   0.00000  Uiso   1.00
N180   N     0.44794   0.07840   0.44263   0.00000  Uiso   1.00
N181   N     0.86169   0.80038   0.34781   0.00000  Uiso   1.00
N182   N     0.69641   0.78014   0.90018   0.00000  Uiso   1.00
N183   N     0.48245   0.28973   0.37368   0.00000  Uiso   1.00
N184   N     0.89620   0.01171   0.27887   0.00000  Uiso   1.00
