data_job_02061
_audit_creation_date              2018-12-19
_audit_creation_method            'Materials Studio'
_symmetry_space_group_name_H-M    'P1'
_symmetry_Int_Tables_number       1
_symmetry_cell_setting            triclinic
loop_
_symmetry_equiv_pos_as_xyz
  x,y,z
_cell_length_a                    21.7778
_cell_length_b                    12.3760
_cell_length_c                    30.9256
_cell_angle_alpha                 90.0000
_cell_angle_beta                  69.4203
_cell_angle_gamma                 90.0000
loop_
_atom_site_label
_atom_site_type_symbol
_atom_site_fract_x
_atom_site_fract_y
_atom_site_fract_z
_atom_site_U_iso_or_equiv
_atom_site_adp_type
_atom_site_occupancy
C1     C     0.70040   0.03601   0.12452   0.00000  Uiso   1.00
C2     C     0.69099   0.95775   0.16443   0.00000  Uiso   1.00
C3     C     0.72717   0.86451   0.16270   0.00000  Uiso   1.00
C4     C     0.71097   0.80376   0.20291   0.00000  Uiso   1.00
C5     C     0.70401   0.67743   0.25872   0.00000  Uiso   1.00
C6     C     0.63411   0.04338   0.11829   0.00000  Uiso   1.00
C7     C     0.62247   0.02215   0.07778   0.00000  Uiso   1.00
C8     C     0.55839   0.03350   0.07915   0.00000  Uiso   1.00
C9     C     0.46314   0.04019   0.06333   0.00000  Uiso   1.00
C10    C     0.71230   0.14658   0.14187   0.00000  Uiso   1.00
C11    C     0.76640   0.21214   0.12117   0.00000  Uiso   1.00
C12    C     0.76813   0.31039   0.14239   0.00000  Uiso   1.00
C13    C     0.79428   0.47731   0.16317   0.00000  Uiso   1.00
C14    C     0.60728   0.09392   0.19899   0.00000  Uiso   1.00
C15    C     0.64040   0.98921   0.20488   0.00000  Uiso   1.00
C16    C     0.62414   0.92858   0.24510   0.00000  Uiso   1.00
C17    C     0.66029   0.83527   0.24344   0.00000  Uiso   1.00
C18    C     0.58352   0.07483   0.15874   0.00000  Uiso   1.00
C19    C     0.51944   0.08622   0.16018   0.00000  Uiso   1.00
C20    C     0.50771   0.06501   0.11968   0.00000  Uiso   1.00
C21    C     0.66171   0.17803   0.18232   0.00000  Uiso   1.00
C22    C     0.66336   0.27620   0.20357   0.00000  Uiso   1.00
C23    C     0.71746   0.34190   0.18291   0.00000  Uiso   1.00
H24    H     0.73978   0.01152   0.09302   0.00000  Uiso   1.00
H25    H     0.76631   0.84019   0.13139   0.00000  Uiso   1.00
H26    H     0.66163   0.99782   0.04648   0.00000  Uiso   1.00
H27    H     0.80553   0.18777   0.08987   0.00000  Uiso   1.00
H28    H     0.77340   0.66409   0.19176   0.00000  Uiso   1.00
H29    H     0.55268   0.99649   0.01272   0.00000  Uiso   1.00
H30    H     0.85612   0.39705   0.10421   0.00000  Uiso   1.00
H31    H     0.56789   0.11841   0.23049   0.00000  Uiso   1.00
H32    H     0.58499   0.95294   0.27640   0.00000  Uiso   1.00
H33    H     0.48031   0.11057   0.19148   0.00000  Uiso   1.00
H34    H     0.62421   0.30052   0.23487   0.00000  Uiso   1.00
H35    H     0.62623   0.75560   0.30945   0.00000  Uiso   1.00
H36    H     0.40551   0.08801   0.13041   0.00000  Uiso   1.00
H37    H     0.70895   0.48856   0.22190   0.00000  Uiso   1.00
O38    O     0.71415   0.59905   0.27833   0.00000  Uiso   1.00
O39    O     0.42457   0.03517   0.04342   0.00000  Uiso   1.00
O40    O     0.82269   0.56068   0.16346   0.00000  Uiso   1.00
N41    N     0.73642   0.70835   0.21316   0.00000  Uiso   1.00
N42    N     0.53006   0.01911   0.04577   0.00000  Uiso   1.00
N43    N     0.81375   0.39360   0.13130   0.00000  Uiso   1.00
N44    N     0.65723   0.75759   0.27649   0.00000  Uiso   1.00
N45    N     0.45087   0.06835   0.10910   0.00000  Uiso   1.00
N46    N     0.73456   0.44285   0.19463   0.00000  Uiso   1.00
C47    C     0.20040   0.53601   0.12452   0.00000  Uiso   1.00
C48    C     0.19099   0.45775   0.16443   0.00000  Uiso   1.00
C49    C     0.22717   0.36451   0.16270   0.00000  Uiso   1.00
C50    C     0.21097   0.30376   0.20291   0.00000  Uiso   1.00
C51    C     0.20401   0.17743   0.25872   0.00000  Uiso   1.00
C52    C     0.13411   0.54338   0.11829   0.00000  Uiso   1.00
C53    C     0.12247   0.52215   0.07778   0.00000  Uiso   1.00
C54    C     0.05839   0.53350   0.07915   0.00000  Uiso   1.00
C55    C     0.96314   0.54019   0.06333   0.00000  Uiso   1.00
C56    C     0.21230   0.64658   0.14187   0.00000  Uiso   1.00
C57    C     0.26640   0.71214   0.12117   0.00000  Uiso   1.00
C58    C     0.26813   0.81039   0.14239   0.00000  Uiso   1.00
C59    C     0.29428   0.97731   0.16317   0.00000  Uiso   1.00
C60    C     0.10728   0.59392   0.19899   0.00000  Uiso   1.00
C61    C     0.14040   0.48921   0.20488   0.00000  Uiso   1.00
C62    C     0.12414   0.42858   0.24510   0.00000  Uiso   1.00
C63    C     0.16029   0.33527   0.24344   0.00000  Uiso   1.00
C64    C     0.08352   0.57483   0.15874   0.00000  Uiso   1.00
C65    C     0.01944   0.58622   0.16018   0.00000  Uiso   1.00
C66    C     0.00771   0.56501   0.11968   0.00000  Uiso   1.00
C67    C     0.16171   0.67803   0.18232   0.00000  Uiso   1.00
C68    C     0.16336   0.77620   0.20357   0.00000  Uiso   1.00
C69    C     0.21746   0.84190   0.18291   0.00000  Uiso   1.00
H70    H     0.23978   0.51152   0.09302   0.00000  Uiso   1.00
H71    H     0.26631   0.34019   0.13139   0.00000  Uiso   1.00
H72    H     0.16163   0.49782   0.04648   0.00000  Uiso   1.00
H73    H     0.30553   0.68777   0.08987   0.00000  Uiso   1.00
H74    H     0.27340   0.16409   0.19176   0.00000  Uiso   1.00
H75    H     0.05268   0.49649   0.01272   0.00000  Uiso   1.00
H76    H     0.35612   0.89705   0.10421   0.00000  Uiso   1.00
H77    H     0.06789   0.61841   0.23049   0.00000  Uiso   1.00
H78    H     0.08499   0.45294   0.27640   0.00000  Uiso   1.00
H79    H     0.98031   0.61057   0.19148   0.00000  Uiso   1.00
H80    H     0.12421   0.80052   0.23487   0.00000  Uiso   1.00
H81    H     0.12623   0.25560   0.30945   0.00000  Uiso   1.00
H82    H     0.90551   0.58801   0.13041   0.00000  Uiso   1.00
H83    H     0.20895   0.98856   0.22190   0.00000  Uiso   1.00
O84    O     0.21415   0.09905   0.27833   0.00000  Uiso   1.00
O85    O     0.92457   0.53517   0.04342   0.00000  Uiso   1.00
O86    O     0.32269   0.06068   0.16346   0.00000  Uiso   1.00
N87    N     0.23642   0.20835   0.21316   0.00000  Uiso   1.00
N88    N     0.03006   0.51911   0.04577   0.00000  Uiso   1.00
N89    N     0.31375   0.89360   0.13130   0.00000  Uiso   1.00
N90    N     0.15723   0.25759   0.27649   0.00000  Uiso   1.00
N91    N     0.95087   0.56835   0.10910   0.00000  Uiso   1.00
N92    N     0.23456   0.94285   0.19463   0.00000  Uiso   1.00
C93    C     0.29960   0.03601   0.37548   0.00000  Uiso   1.00
C94    C     0.30901   0.95775   0.33557   0.00000  Uiso   1.00
C95    C     0.27283   0.86451   0.33730   0.00000  Uiso   1.00
C96    C     0.28903   0.80376   0.29709   0.00000  Uiso   1.00
C97    C     0.29599   0.67743   0.24128   0.00000  Uiso   1.00
C98    C     0.36589   0.04338   0.38171   0.00000  Uiso   1.00
C99    C     0.37753   0.02215   0.42222   0.00000  Uiso   1.00
C100   C     0.44161   0.03350   0.42085   0.00000  Uiso   1.00
C101   C     0.53686   0.04019   0.43667   0.00000  Uiso   1.00
C102   C     0.28770   0.14658   0.35813   0.00000  Uiso   1.00
C103   C     0.23360   0.21214   0.37883   0.00000  Uiso   1.00
C104   C     0.23187   0.31039   0.35761   0.00000  Uiso   1.00
C105   C     0.20572   0.47731   0.33683   0.00000  Uiso   1.00
C106   C     0.39272   0.09392   0.30101   0.00000  Uiso   1.00
C107   C     0.35960   0.98921   0.29512   0.00000  Uiso   1.00
C108   C     0.37586   0.92858   0.25490   0.00000  Uiso   1.00
C109   C     0.33971   0.83527   0.25656   0.00000  Uiso   1.00
C110   C     0.41648   0.07483   0.34126   0.00000  Uiso   1.00
C111   C     0.48056   0.08622   0.33982   0.00000  Uiso   1.00
C112   C     0.49229   0.06501   0.38032   0.00000  Uiso   1.00
C113   C     0.33829   0.17803   0.31768   0.00000  Uiso   1.00
C114   C     0.33664   0.27620   0.29643   0.00000  Uiso   1.00
C115   C     0.28254   0.34190   0.31709   0.00000  Uiso   1.00
H116   H     0.26022   0.01152   0.40698   0.00000  Uiso   1.00
H117   H     0.23369   0.84019   0.36861   0.00000  Uiso   1.00
H118   H     0.33837   0.99782   0.45352   0.00000  Uiso   1.00
H119   H     0.19447   0.18777   0.41013   0.00000  Uiso   1.00
H120   H     0.22660   0.66409   0.30824   0.00000  Uiso   1.00
H121   H     0.44732   0.99649   0.48728   0.00000  Uiso   1.00
H122   H     0.14388   0.39705   0.39579   0.00000  Uiso   1.00
H123   H     0.43211   0.11841   0.26951   0.00000  Uiso   1.00
H124   H     0.41501   0.95294   0.22360   0.00000  Uiso   1.00
H125   H     0.51969   0.11057   0.30852   0.00000  Uiso   1.00
H126   H     0.37579   0.30052   0.26513   0.00000  Uiso   1.00
H127   H     0.37377   0.75560   0.19055   0.00000  Uiso   1.00
H128   H     0.59449   0.08801   0.36959   0.00000  Uiso   1.00
H129   H     0.29105   0.48856   0.27810   0.00000  Uiso   1.00
O130   O     0.28585   0.59905   0.22167   0.00000  Uiso   1.00
O131   O     0.57543   0.03517   0.45658   0.00000  Uiso   1.00
O132   O     0.17731   0.56068   0.33654   0.00000  Uiso   1.00
N133   N     0.26358   0.70835   0.28684   0.00000  Uiso   1.00
N134   N     0.46994   0.01911   0.45423   0.00000  Uiso   1.00
N135   N     0.18625   0.39360   0.36870   0.00000  Uiso   1.00
N136   N     0.34277   0.75759   0.22351   0.00000  Uiso   1.00
N137   N     0.54913   0.06835   0.39090   0.00000  Uiso   1.00
N138   N     0.26544   0.44285   0.30537   0.00000  Uiso   1.00
C139   C     0.79960   0.53601   0.37548   0.00000  Uiso   1.00
C140   C     0.80901   0.45775   0.33557   0.00000  Uiso   1.00
C141   C     0.77283   0.36451   0.33730   0.00000  Uiso   1.00
C142   C     0.78903   0.30376   0.29709   0.00000  Uiso   1.00
C143   C     0.79599   0.17743   0.24128   0.00000  Uiso   1.00
C144   C     0.86589   0.54338   0.38171   0.00000  Uiso   1.00
C145   C     0.87753   0.52215   0.42222   0.00000  Uiso   1.00
C146   C     0.94161   0.53350   0.42085   0.00000  Uiso   1.00
C147   C     0.03686   0.54019   0.43667   0.00000  Uiso   1.00
C148   C     0.78770   0.64658   0.35813   0.00000  Uiso   1.00
C149   C     0.73360   0.71214   0.37883   0.00000  Uiso   1.00
C150   C     0.73187   0.81039   0.35761   0.00000  Uiso   1.00
C151   C     0.70572   0.97731   0.33683   0.00000  Uiso   1.00
C152   C     0.89272   0.59392   0.30101   0.00000  Uiso   1.00
C153   C     0.85960   0.48921   0.29512   0.00000  Uiso   1.00
C154   C     0.87586   0.42858   0.25490   0.00000  Uiso   1.00
C155   C     0.83971   0.33527   0.25656   0.00000  Uiso   1.00
C156   C     0.91648   0.57483   0.34126   0.00000  Uiso   1.00
C157   C     0.98056   0.58622   0.33982   0.00000  Uiso   1.00
C158   C     0.99229   0.56501   0.38032   0.00000  Uiso   1.00
C159   C     0.83829   0.67803   0.31768   0.00000  Uiso   1.00
C160   C     0.83664   0.77620   0.29643   0.00000  Uiso   1.00
C161   C     0.78254   0.84190   0.31709   0.00000  Uiso   1.00
H162   H     0.76022   0.51152   0.40698   0.00000  Uiso   1.00
H163   H     0.73369   0.34019   0.36861   0.00000  Uiso   1.00
H164   H     0.83837   0.49782   0.45352   0.00000  Uiso   1.00
H165   H     0.69447   0.68777   0.41013   0.00000  Uiso   1.00
H166   H     0.72660   0.16409   0.30824   0.00000  Uiso   1.00
H167   H     0.94732   0.49649   0.48728   0.00000  Uiso   1.00
H168   H     0.64388   0.89705   0.39579   0.00000  Uiso   1.00
H169   H     0.93211   0.61841   0.26951   0.00000  Uiso   1.00
H170   H     0.91501   0.45294   0.22360   0.00000  Uiso   1.00
H171   H     0.01969   0.61057   0.30852   0.00000  Uiso   1.00
H172   H     0.87579   0.80052   0.26513   0.00000  Uiso   1.00
H173   H     0.87377   0.25560   0.19055   0.00000  Uiso   1.00
H174   H     0.09449   0.58801   0.36959   0.00000  Uiso   1.00
H175   H     0.79105   0.98856   0.27810   0.00000  Uiso   1.00
O176   O     0.78585   0.09905   0.22167   0.00000  Uiso   1.00
O177   O     0.07543   0.53517   0.45658   0.00000  Uiso   1.00
O178   O     0.67731   0.06068   0.33654   0.00000  Uiso   1.00
N179   N     0.76358   0.20835   0.28684   0.00000  Uiso   1.00
N180   N     0.96994   0.51911   0.45423   0.00000  Uiso   1.00
N181   N     0.68625   0.89360   0.36870   0.00000  Uiso   1.00
N182   N     0.84277   0.25759   0.22351   0.00000  Uiso   1.00
N183   N     0.04913   0.56835   0.39090   0.00000  Uiso   1.00
N184   N     0.76544   0.94285   0.30537   0.00000  Uiso   1.00
C185   C     0.29960   0.96399   0.87548   0.00000  Uiso   1.00
C186   C     0.30901   0.04225   0.83557   0.00000  Uiso   1.00
C187   C     0.27283   0.13549   0.83730   0.00000  Uiso   1.00
C188   C     0.28903   0.19624   0.79709   0.00000  Uiso   1.00
C189   C     0.29599   0.32257   0.74128   0.00000  Uiso   1.00
C190   C     0.36589   0.95662   0.88171   0.00000  Uiso   1.00
C191   C     0.37753   0.97785   0.92222   0.00000  Uiso   1.00
C192   C     0.44161   0.96650   0.92085   0.00000  Uiso   1.00
C193   C     0.53686   0.95981   0.93667   0.00000  Uiso   1.00
C194   C     0.28770   0.85342   0.85813   0.00000  Uiso   1.00
C195   C     0.23360   0.78786   0.87883   0.00000  Uiso   1.00
C196   C     0.23187   0.68961   0.85761   0.00000  Uiso   1.00
C197   C     0.20572   0.52269   0.83683   0.00000  Uiso   1.00
C198   C     0.39272   0.90608   0.80101   0.00000  Uiso   1.00
C199   C     0.35960   0.01079   0.79512   0.00000  Uiso   1.00
C200   C     0.37586   0.07142   0.75490   0.00000  Uiso   1.00
C201   C     0.33971   0.16473   0.75656   0.00000  Uiso   1.00
C202   C     0.41648   0.92517   0.84126   0.00000  Uiso   1.00
C203   C     0.48056   0.91378   0.83982   0.00000  Uiso   1.00
C204   C     0.49229   0.93499   0.88032   0.00000  Uiso   1.00
C205   C     0.33829   0.82197   0.81768   0.00000  Uiso   1.00
C206   C     0.33664   0.72380   0.79643   0.00000  Uiso   1.00
C207   C     0.28254   0.65810   0.81709   0.00000  Uiso   1.00
H208   H     0.26022   0.98848   0.90698   0.00000  Uiso   1.00
H209   H     0.23369   0.15981   0.86861   0.00000  Uiso   1.00
H210   H     0.33837   0.00218   0.95352   0.00000  Uiso   1.00
H211   H     0.19447   0.81223   0.91013   0.00000  Uiso   1.00
H212   H     0.22660   0.33591   0.80824   0.00000  Uiso   1.00
H213   H     0.44732   0.00351   0.98728   0.00000  Uiso   1.00
H214   H     0.14388   0.60295   0.89579   0.00000  Uiso   1.00
H215   H     0.43211   0.88159   0.76951   0.00000  Uiso   1.00
H216   H     0.41501   0.04706   0.72360   0.00000  Uiso   1.00
H217   H     0.51969   0.88943   0.80852   0.00000  Uiso   1.00
H218   H     0.37579   0.69948   0.76513   0.00000  Uiso   1.00
H219   H     0.37377   0.24440   0.69055   0.00000  Uiso   1.00
H220   H     0.59449   0.91199   0.86959   0.00000  Uiso   1.00
H221   H     0.29105   0.51144   0.77810   0.00000  Uiso   1.00
O222   O     0.28585   0.40095   0.72167   0.00000  Uiso   1.00
O223   O     0.57543   0.96483   0.95658   0.00000  Uiso   1.00
O224   O     0.17731   0.43932   0.83654   0.00000  Uiso   1.00
N225   N     0.26358   0.29165   0.78684   0.00000  Uiso   1.00
N226   N     0.46994   0.98089   0.95423   0.00000  Uiso   1.00
N227   N     0.18625   0.60640   0.86870   0.00000  Uiso   1.00
N228   N     0.34277   0.24241   0.72351   0.00000  Uiso   1.00
N229   N     0.54913   0.93165   0.89090   0.00000  Uiso   1.00
N230   N     0.26544   0.55715   0.80537   0.00000  Uiso   1.00
C231   C     0.79960   0.46399   0.87548   0.00000  Uiso   1.00
C232   C     0.80901   0.54225   0.83557   0.00000  Uiso   1.00
C233   C     0.77283   0.63549   0.83730   0.00000  Uiso   1.00
C234   C     0.78903   0.69624   0.79709   0.00000  Uiso   1.00
C235   C     0.79599   0.82257   0.74128   0.00000  Uiso   1.00
C236   C     0.86589   0.45662   0.88171   0.00000  Uiso   1.00
C237   C     0.87753   0.47785   0.92222   0.00000  Uiso   1.00
C238   C     0.94161   0.46650   0.92085   0.00000  Uiso   1.00
C239   C     0.03686   0.45981   0.93667   0.00000  Uiso   1.00
C240   C     0.78770   0.35342   0.85813   0.00000  Uiso   1.00
C241   C     0.73360   0.28786   0.87883   0.00000  Uiso   1.00
C242   C     0.73187   0.18961   0.85761   0.00000  Uiso   1.00
C243   C     0.70572   0.02269   0.83683   0.00000  Uiso   1.00
C244   C     0.89272   0.40608   0.80101   0.00000  Uiso   1.00
C245   C     0.85960   0.51079   0.79512   0.00000  Uiso   1.00
C246   C     0.87586   0.57142   0.75490   0.00000  Uiso   1.00
C247   C     0.83971   0.66473   0.75656   0.00000  Uiso   1.00
C248   C     0.91648   0.42517   0.84126   0.00000  Uiso   1.00
C249   C     0.98056   0.41378   0.83982   0.00000  Uiso   1.00
C250   C     0.99229   0.43499   0.88032   0.00000  Uiso   1.00
C251   C     0.83829   0.32197   0.81768   0.00000  Uiso   1.00
C252   C     0.83664   0.22380   0.79643   0.00000  Uiso   1.00
C253   C     0.78254   0.15810   0.81709   0.00000  Uiso   1.00
H254   H     0.76022   0.48848   0.90698   0.00000  Uiso   1.00
H255   H     0.73369   0.65981   0.86861   0.00000  Uiso   1.00
H256   H     0.83837   0.50218   0.95352   0.00000  Uiso   1.00
H257   H     0.69447   0.31223   0.91013   0.00000  Uiso   1.00
H258   H     0.72660   0.83591   0.80824   0.00000  Uiso   1.00
H259   H     0.94732   0.50351   0.98728   0.00000  Uiso   1.00
H260   H     0.64388   0.10295   0.89579   0.00000  Uiso   1.00
H261   H     0.93211   0.38159   0.76951   0.00000  Uiso   1.00
H262   H     0.91501   0.54706   0.72360   0.00000  Uiso   1.00
H263   H     0.01969   0.38943   0.80852   0.00000  Uiso   1.00
H264   H     0.87579   0.19948   0.76513   0.00000  Uiso   1.00
H265   H     0.87377   0.74440   0.69055   0.00000  Uiso   1.00
H266   H     0.09449   0.41199   0.86959   0.00000  Uiso   1.00
H267   H     0.79105   0.01144   0.77810   0.00000  Uiso   1.00
O268   O     0.78585   0.90095   0.72167   0.00000  Uiso   1.00
O269   O     0.07543   0.46483   0.95658   0.00000  Uiso   1.00
O270   O     0.67731   0.93932   0.83654   0.00000  Uiso   1.00
N271   N     0.76358   0.79165   0.78684   0.00000  Uiso   1.00
N272   N     0.96994   0.48089   0.95423   0.00000  Uiso   1.00
N273   N     0.68625   0.10640   0.86870   0.00000  Uiso   1.00
N274   N     0.84277   0.74241   0.72351   0.00000  Uiso   1.00
N275   N     0.04913   0.43165   0.89090   0.00000  Uiso   1.00
N276   N     0.76544   0.05715   0.80537   0.00000  Uiso   1.00
C277   C     0.70040   0.96399   0.62452   0.00000  Uiso   1.00
C278   C     0.69099   0.04225   0.66443   0.00000  Uiso   1.00
C279   C     0.72717   0.13549   0.66270   0.00000  Uiso   1.00
C280   C     0.71097   0.19624   0.70291   0.00000  Uiso   1.00
C281   C     0.70401   0.32257   0.75872   0.00000  Uiso   1.00
C282   C     0.63411   0.95662   0.61829   0.00000  Uiso   1.00
C283   C     0.62247   0.97785   0.57778   0.00000  Uiso   1.00
C284   C     0.55839   0.96650   0.57915   0.00000  Uiso   1.00
C285   C     0.46314   0.95981   0.56333   0.00000  Uiso   1.00
C286   C     0.71230   0.85342   0.64187   0.00000  Uiso   1.00
C287   C     0.76640   0.78786   0.62117   0.00000  Uiso   1.00
C288   C     0.76813   0.68961   0.64239   0.00000  Uiso   1.00
C289   C     0.79428   0.52269   0.66317   0.00000  Uiso   1.00
C290   C     0.60728   0.90608   0.69899   0.00000  Uiso   1.00
C291   C     0.64040   0.01079   0.70488   0.00000  Uiso   1.00
C292   C     0.62414   0.07142   0.74510   0.00000  Uiso   1.00
C293   C     0.66029   0.16473   0.74344   0.00000  Uiso   1.00
C294   C     0.58352   0.92517   0.65874   0.00000  Uiso   1.00
C295   C     0.51944   0.91378   0.66018   0.00000  Uiso   1.00
C296   C     0.50771   0.93499   0.61968   0.00000  Uiso   1.00
C297   C     0.66171   0.82197   0.68232   0.00000  Uiso   1.00
C298   C     0.66336   0.72380   0.70357   0.00000  Uiso   1.00
C299   C     0.71746   0.65810   0.68291   0.00000  Uiso   1.00
H300   H     0.73978   0.98848   0.59302   0.00000  Uiso   1.00
H301   H     0.76631   0.15981   0.63139   0.00000  Uiso   1.00
H302   H     0.66163   0.00218   0.54648   0.00000  Uiso   1.00
H303   H     0.80553   0.81223   0.58987   0.00000  Uiso   1.00
H304   H     0.77340   0.33591   0.69176   0.00000  Uiso   1.00
H305   H     0.55268   0.00351   0.51272   0.00000  Uiso   1.00
H306   H     0.85612   0.60295   0.60421   0.00000  Uiso   1.00
H307   H     0.56789   0.88159   0.73049   0.00000  Uiso   1.00
H308   H     0.58499   0.04706   0.77640   0.00000  Uiso   1.00
H309   H     0.48031   0.88943   0.69148   0.00000  Uiso   1.00
H310   H     0.62421   0.69948   0.73487   0.00000  Uiso   1.00
H311   H     0.62623   0.24440   0.80945   0.00000  Uiso   1.00
H312   H     0.40551   0.91199   0.63041   0.00000  Uiso   1.00
H313   H     0.70895   0.51144   0.72190   0.00000  Uiso   1.00
O314   O     0.71415   0.40095   0.77833   0.00000  Uiso   1.00
O315   O     0.42457   0.96483   0.54342   0.00000  Uiso   1.00
O316   O     0.82269   0.43932   0.66346   0.00000  Uiso   1.00
N317   N     0.73642   0.29165   0.71316   0.00000  Uiso   1.00
N318   N     0.53006   0.98089   0.54577   0.00000  Uiso   1.00
N319   N     0.81375   0.60640   0.63130   0.00000  Uiso   1.00
N320   N     0.65723   0.24241   0.77649   0.00000  Uiso   1.00
N321   N     0.45087   0.93165   0.60910   0.00000  Uiso   1.00
N322   N     0.73456   0.55715   0.69463   0.00000  Uiso   1.00
C323   C     0.20040   0.46399   0.62452   0.00000  Uiso   1.00
C324   C     0.19099   0.54225   0.66443   0.00000  Uiso   1.00
C325   C     0.22717   0.63549   0.66270   0.00000  Uiso   1.00
C326   C     0.21097   0.69624   0.70291   0.00000  Uiso   1.00
C327   C     0.20401   0.82257   0.75872   0.00000  Uiso   1.00
C328   C     0.13411   0.45662   0.61829   0.00000  Uiso   1.00
C329   C     0.12247   0.47785   0.57778   0.00000  Uiso   1.00
C330   C     0.05839   0.46650   0.57915   0.00000  Uiso   1.00
C331   C     0.96314   0.45981   0.56333   0.00000  Uiso   1.00
C332   C     0.21230   0.35342   0.64187   0.00000  Uiso   1.00
C333   C     0.26640   0.28786   0.62117   0.00000  Uiso   1.00
C334   C     0.26813   0.18961   0.64239   0.00000  Uiso   1.00
C335   C     0.29428   0.02269   0.66317   0.00000  Uiso   1.00
C336   C     0.10728   0.40608   0.69899   0.00000  Uiso   1.00
C337   C     0.14040   0.51079   0.70488   0.00000  Uiso   1.00
C338   C     0.12414   0.57142   0.74510   0.00000  Uiso   1.00
C339   C     0.16029   0.66473   0.74344   0.00000  Uiso   1.00
C340   C     0.08352   0.42517   0.65874   0.00000  Uiso   1.00
C341   C     0.01944   0.41378   0.66018   0.00000  Uiso   1.00
C342   C     0.00771   0.43499   0.61968   0.00000  Uiso   1.00
C343   C     0.16171   0.32197   0.68232   0.00000  Uiso   1.00
C344   C     0.16336   0.22380   0.70357   0.00000  Uiso   1.00
C345   C     0.21746   0.15810   0.68291   0.00000  Uiso   1.00
H346   H     0.23978   0.48848   0.59302   0.00000  Uiso   1.00
H347   H     0.26631   0.65981   0.63139   0.00000  Uiso   1.00
H348   H     0.16163   0.50218   0.54648   0.00000  Uiso   1.00
H349   H     0.30553   0.31223   0.58987   0.00000  Uiso   1.00
H350   H     0.27340   0.83591   0.69176   0.00000  Uiso   1.00
H351   H     0.05268   0.50351   0.51272   0.00000  Uiso   1.00
H352   H     0.35612   0.10295   0.60421   0.00000  Uiso   1.00
H353   H     0.06789   0.38159   0.73049   0.00000  Uiso   1.00
H354   H     0.08499   0.54706   0.77640   0.00000  Uiso   1.00
H355   H     0.98031   0.38943   0.69148   0.00000  Uiso   1.00
H356   H     0.12421   0.19948   0.73487   0.00000  Uiso   1.00
H357   H     0.12623   0.74440   0.80945   0.00000  Uiso   1.00
H358   H     0.90551   0.41199   0.63041   0.00000  Uiso   1.00
H359   H     0.20895   0.01144   0.72190   0.00000  Uiso   1.00
O360   O     0.21415   0.90095   0.77833   0.00000  Uiso   1.00
O361   O     0.92457   0.46483   0.54342   0.00000  Uiso   1.00
O362   O     0.32269   0.93932   0.66346   0.00000  Uiso   1.00
N363   N     0.23642   0.79165   0.71316   0.00000  Uiso   1.00
N364   N     0.03006   0.48089   0.54577   0.00000  Uiso   1.00
N365   N     0.31375   0.10640   0.63130   0.00000  Uiso   1.00
N366   N     0.15723   0.74241   0.77649   0.00000  Uiso   1.00
N367   N     0.95087   0.43165   0.60910   0.00000  Uiso   1.00
N368   N     0.23456   0.05715   0.69463   0.00000  Uiso   1.00
