data_job_05024
_audit_creation_date              2018-12-19
_audit_creation_method            'Materials Studio'
_symmetry_space_group_name_H-M    'P1'
_symmetry_Int_Tables_number       1
_symmetry_cell_setting            triclinic
loop_
_symmetry_equiv_pos_as_xyz
  x,y,z
_cell_length_a                    9.6995
_cell_length_b                    18.9078
_cell_length_c                    32.5730
_cell_angle_alpha                 90.0000
_cell_angle_beta                  90.0000
_cell_angle_gamma                 90.0000
loop_
_atom_site_label
_atom_site_type_symbol
_atom_site_fract_x
_atom_site_fract_y
_atom_site_fract_z
_atom_site_U_iso_or_equiv
_atom_site_adp_type
_atom_site_occupancy
C1     C     0.45526   0.27053   0.62179   0.00000  Uiso   1.00
C2     C     0.35010   0.22058   0.64103   0.00000  Uiso   1.00
C3     C     0.20792   0.22836   0.63948   0.00000  Uiso   1.00
C4     C     0.12946   0.17698   0.65901   0.00000  Uiso   1.00
C5     C     0.95679   0.10812   0.68581   0.00000  Uiso   1.00
C6     C     0.54995   0.29386   0.65662   0.00000  Uiso   1.00
C7     C     0.57582   0.36326   0.66817   0.00000  Uiso   1.00
C8     C     0.66561   0.37357   0.70082   0.00000  Uiso   1.00
C9     C     0.80329   0.41849   0.75181   0.00000  Uiso   1.00
C10    C     0.54351   0.22514   0.59339   0.00000  Uiso   1.00
C11    C     0.56401   0.23677   0.55176   0.00000  Uiso   1.00
C12    C     0.64841   0.18923   0.53117   0.00000  Uiso   1.00
C13    C     0.77610   0.12745   0.48397   0.00000  Uiso   1.00
C14    C     0.56875   0.16545   0.65925   0.00000  Uiso   1.00
C15    C     0.41174   0.16351   0.66138   0.00000  Uiso   1.00
C16    C     0.33348   0.11210   0.68092   0.00000  Uiso   1.00
C17    C     0.19121   0.11980   0.67939   0.00000  Uiso   1.00
C18    C     0.61159   0.23679   0.67697   0.00000  Uiso   1.00
C19    C     0.70137   0.24700   0.70961   0.00000  Uiso   1.00
C20    C     0.72736   0.31639   0.72120   0.00000  Uiso   1.00
C21    C     0.60515   0.16807   0.61373   0.00000  Uiso   1.00
C22    C     0.68955   0.12051   0.59320   0.00000  Uiso   1.00
C23    C     0.71016   0.13205   0.55156   0.00000  Uiso   1.00
H24    H     0.40728   0.31497   0.60595   0.00000  Uiso   1.00
H25    H     0.16026   0.27254   0.62373   0.00000  Uiso   1.00
H26    H     0.52811   0.40742   0.65242   0.00000  Uiso   1.00
H27    H     0.51629   0.28094   0.53603   0.00000  Uiso   1.00
H28    H     0.91358   0.20035   0.65243   0.00000  Uiso   1.00
H29    H     0.68925   0.48474   0.71290   0.00000  Uiso   1.00
H30    H     0.66433   0.21805   0.46748   0.00000  Uiso   1.00
H31    H     0.61674   0.12101   0.67509   0.00000  Uiso   1.00
H32    H     0.38121   0.06794   0.69666   0.00000  Uiso   1.00
H33    H     0.74906   0.20282   0.72534   0.00000  Uiso   1.00
H34    H     0.73723   0.07634   0.60896   0.00000  Uiso   1.00
H35    H     0.09291   0.03429   0.71162   0.00000  Uiso   1.00
H36    H     0.86858   0.31868   0.77209   0.00000  Uiso   1.00
H37    H     0.84365   0.05198   0.52667   0.00000  Uiso   1.00
O38    O     0.84453   0.08592   0.69498   0.00000  Uiso   1.00
O39    O     0.86219   0.45903   0.77431   0.00000  Uiso   1.00
O40    O     0.82948   0.10913   0.45232   0.00000  Uiso   1.00
N41    N     0.98811   0.16854   0.66339   0.00000  Uiso   1.00
N42    N     0.71329   0.43443   0.71994   0.00000  Uiso   1.00
N43    N     0.69002   0.18511   0.49048   0.00000  Uiso   1.00
N44    N     0.08460   0.07918   0.69524   0.00000  Uiso   1.00
N45    N     0.80979   0.34508   0.75179   0.00000  Uiso   1.00
N46    N     0.78652   0.09575   0.52233   0.00000  Uiso   1.00
C47    C     0.04474   0.72947   0.12179   0.00000  Uiso   1.00
C48    C     0.14990   0.77942   0.14103   0.00000  Uiso   1.00
C49    C     0.29208   0.77164   0.13948   0.00000  Uiso   1.00
C50    C     0.37054   0.82302   0.15901   0.00000  Uiso   1.00
C51    C     0.54321   0.89188   0.18581   0.00000  Uiso   1.00
C52    C     0.95005   0.70614   0.15662   0.00000  Uiso   1.00
C53    C     0.92418   0.63674   0.16817   0.00000  Uiso   1.00
C54    C     0.83439   0.62643   0.20082   0.00000  Uiso   1.00
C55    C     0.69671   0.58151   0.25181   0.00000  Uiso   1.00
C56    C     0.95649   0.77486   0.09339   0.00000  Uiso   1.00
C57    C     0.93599   0.76323   0.05176   0.00000  Uiso   1.00
C58    C     0.85159   0.81077   0.03117   0.00000  Uiso   1.00
C59    C     0.72390   0.87255   0.98397   0.00000  Uiso   1.00
C60    C     0.93125   0.83455   0.15925   0.00000  Uiso   1.00
C61    C     0.08826   0.83649   0.16138   0.00000  Uiso   1.00
C62    C     0.16652   0.88790   0.18092   0.00000  Uiso   1.00
C63    C     0.30879   0.88020   0.17939   0.00000  Uiso   1.00
C64    C     0.88841   0.76321   0.17697   0.00000  Uiso   1.00
C65    C     0.79863   0.75300   0.20961   0.00000  Uiso   1.00
C66    C     0.77264   0.68361   0.22120   0.00000  Uiso   1.00
C67    C     0.89485   0.83193   0.11373   0.00000  Uiso   1.00
C68    C     0.81045   0.87949   0.09320   0.00000  Uiso   1.00
C69    C     0.78984   0.86795   0.05156   0.00000  Uiso   1.00
H70    H     0.09272   0.68503   0.10595   0.00000  Uiso   1.00
H71    H     0.33974   0.72746   0.12373   0.00000  Uiso   1.00
H72    H     0.97189   0.59258   0.15242   0.00000  Uiso   1.00
H73    H     0.98371   0.71906   0.03603   0.00000  Uiso   1.00
H74    H     0.58642   0.79965   0.15243   0.00000  Uiso   1.00
H75    H     0.81075   0.51526   0.21290   0.00000  Uiso   1.00
H76    H     0.83567   0.78195   0.96748   0.00000  Uiso   1.00
H77    H     0.88326   0.87899   0.17509   0.00000  Uiso   1.00
H78    H     0.11879   0.93206   0.19666   0.00000  Uiso   1.00
H79    H     0.75094   0.79718   0.22534   0.00000  Uiso   1.00
H80    H     0.76277   0.92366   0.10896   0.00000  Uiso   1.00
H81    H     0.40709   0.96571   0.21162   0.00000  Uiso   1.00
H82    H     0.63142   0.68132   0.27209   0.00000  Uiso   1.00
H83    H     0.65635   0.94802   0.02667   0.00000  Uiso   1.00
O84    O     0.65547   0.91408   0.19498   0.00000  Uiso   1.00
O85    O     0.63781   0.54097   0.27431   0.00000  Uiso   1.00
O86    O     0.67052   0.89087   0.95232   0.00000  Uiso   1.00
N87    N     0.51189   0.83146   0.16339   0.00000  Uiso   1.00
N88    N     0.78671   0.56557   0.21994   0.00000  Uiso   1.00
N89    N     0.80998   0.81489   0.99048   0.00000  Uiso   1.00
N90    N     0.41540   0.92082   0.19524   0.00000  Uiso   1.00
N91    N     0.69021   0.65492   0.25179   0.00000  Uiso   1.00
N92    N     0.71348   0.90425   0.02233   0.00000  Uiso   1.00
C93    C     0.54474   0.77053   0.87821   0.00000  Uiso   1.00
C94    C     0.64990   0.72058   0.85897   0.00000  Uiso   1.00
C95    C     0.79208   0.72836   0.86052   0.00000  Uiso   1.00
C96    C     0.87054   0.67698   0.84099   0.00000  Uiso   1.00
C97    C     0.04321   0.60812   0.81419   0.00000  Uiso   1.00
C98    C     0.45005   0.79386   0.84338   0.00000  Uiso   1.00
C99    C     0.42418   0.86326   0.83183   0.00000  Uiso   1.00
C100   C     0.33439   0.87357   0.79918   0.00000  Uiso   1.00
C101   C     0.19671   0.91849   0.74819   0.00000  Uiso   1.00
C102   C     0.45649   0.72514   0.90661   0.00000  Uiso   1.00
C103   C     0.43599   0.73677   0.94824   0.00000  Uiso   1.00
C104   C     0.35159   0.68923   0.96883   0.00000  Uiso   1.00
C105   C     0.22390   0.62745   0.01603   0.00000  Uiso   1.00
C106   C     0.43125   0.66545   0.84075   0.00000  Uiso   1.00
C107   C     0.58826   0.66351   0.83862   0.00000  Uiso   1.00
C108   C     0.66652   0.61210   0.81908   0.00000  Uiso   1.00
C109   C     0.80879   0.61980   0.82061   0.00000  Uiso   1.00
C110   C     0.38841   0.73679   0.82303   0.00000  Uiso   1.00
C111   C     0.29863   0.74700   0.79039   0.00000  Uiso   1.00
C112   C     0.27264   0.81639   0.77880   0.00000  Uiso   1.00
C113   C     0.39485   0.66807   0.88627   0.00000  Uiso   1.00
C114   C     0.31045   0.62051   0.90680   0.00000  Uiso   1.00
C115   C     0.28984   0.63205   0.94844   0.00000  Uiso   1.00
H116   H     0.59272   0.81497   0.89405   0.00000  Uiso   1.00
H117   H     0.83974   0.77254   0.87627   0.00000  Uiso   1.00
H118   H     0.47189   0.90742   0.84758   0.00000  Uiso   1.00
H119   H     0.48371   0.78094   0.96397   0.00000  Uiso   1.00
H120   H     0.08642   0.70035   0.84757   0.00000  Uiso   1.00
H121   H     0.31075   0.98474   0.78710   0.00000  Uiso   1.00
H122   H     0.33567   0.71805   0.03252   0.00000  Uiso   1.00
H123   H     0.38326   0.62101   0.82491   0.00000  Uiso   1.00
H124   H     0.61879   0.56794   0.80334   0.00000  Uiso   1.00
H125   H     0.25094   0.70282   0.77466   0.00000  Uiso   1.00
H126   H     0.26277   0.57634   0.89104   0.00000  Uiso   1.00
H127   H     0.90709   0.53429   0.78838   0.00000  Uiso   1.00
H128   H     0.13142   0.81868   0.72791   0.00000  Uiso   1.00
H129   H     0.15635   0.55198   0.97333   0.00000  Uiso   1.00
O130   O     0.15547   0.58592   0.80502   0.00000  Uiso   1.00
O131   O     0.13781   0.95903   0.72569   0.00000  Uiso   1.00
O132   O     0.17052   0.60913   0.04768   0.00000  Uiso   1.00
N133   N     0.01189   0.66854   0.83661   0.00000  Uiso   1.00
N134   N     0.28671   0.93443   0.78006   0.00000  Uiso   1.00
N135   N     0.30998   0.68511   0.00952   0.00000  Uiso   1.00
N136   N     0.91540   0.57918   0.80476   0.00000  Uiso   1.00
N137   N     0.19021   0.84508   0.74821   0.00000  Uiso   1.00
N138   N     0.21348   0.59575   0.97767   0.00000  Uiso   1.00
C139   C     0.95526   0.22947   0.37821   0.00000  Uiso   1.00
C140   C     0.85010   0.27942   0.35897   0.00000  Uiso   1.00
C141   C     0.70792   0.27164   0.36052   0.00000  Uiso   1.00
C142   C     0.62946   0.32302   0.34099   0.00000  Uiso   1.00
C143   C     0.45679   0.39188   0.31419   0.00000  Uiso   1.00
C144   C     0.04995   0.20614   0.34338   0.00000  Uiso   1.00
C145   C     0.07582   0.13674   0.33183   0.00000  Uiso   1.00
C146   C     0.16561   0.12643   0.29918   0.00000  Uiso   1.00
C147   C     0.30329   0.08151   0.24819   0.00000  Uiso   1.00
C148   C     0.04351   0.27486   0.40661   0.00000  Uiso   1.00
C149   C     0.06401   0.26323   0.44824   0.00000  Uiso   1.00
C150   C     0.14841   0.31077   0.46883   0.00000  Uiso   1.00
C151   C     0.27610   0.37255   0.51603   0.00000  Uiso   1.00
C152   C     0.06875   0.33455   0.34075   0.00000  Uiso   1.00
C153   C     0.91174   0.33649   0.33862   0.00000  Uiso   1.00
C154   C     0.83348   0.38790   0.31908   0.00000  Uiso   1.00
C155   C     0.69121   0.38020   0.32061   0.00000  Uiso   1.00
C156   C     0.11159   0.26321   0.32303   0.00000  Uiso   1.00
C157   C     0.20137   0.25300   0.29039   0.00000  Uiso   1.00
C158   C     0.22736   0.18361   0.27880   0.00000  Uiso   1.00
C159   C     0.10515   0.33193   0.38627   0.00000  Uiso   1.00
C160   C     0.18955   0.37949   0.40680   0.00000  Uiso   1.00
C161   C     0.21016   0.36795   0.44844   0.00000  Uiso   1.00
H162   H     0.90728   0.18503   0.39405   0.00000  Uiso   1.00
H163   H     0.66026   0.22746   0.37627   0.00000  Uiso   1.00
H164   H     0.02811   0.09258   0.34758   0.00000  Uiso   1.00
H165   H     0.01629   0.21906   0.46397   0.00000  Uiso   1.00
H166   H     0.41358   0.29965   0.34757   0.00000  Uiso   1.00
H167   H     0.18925   0.01526   0.28710   0.00000  Uiso   1.00
H168   H     0.16433   0.28195   0.53252   0.00000  Uiso   1.00
H169   H     0.11674   0.37899   0.32491   0.00000  Uiso   1.00
H170   H     0.88121   0.43206   0.30334   0.00000  Uiso   1.00
H171   H     0.24906   0.29718   0.27466   0.00000  Uiso   1.00
H172   H     0.23723   0.42366   0.39104   0.00000  Uiso   1.00
H173   H     0.59291   0.46571   0.28838   0.00000  Uiso   1.00
H174   H     0.36858   0.18132   0.22791   0.00000  Uiso   1.00
H175   H     0.34365   0.44802   0.47333   0.00000  Uiso   1.00
O176   O     0.34453   0.41408   0.30502   0.00000  Uiso   1.00
O177   O     0.36219   0.04097   0.22569   0.00000  Uiso   1.00
O178   O     0.32948   0.39087   0.54768   0.00000  Uiso   1.00
N179   N     0.48811   0.33146   0.33661   0.00000  Uiso   1.00
N180   N     0.21329   0.06557   0.28006   0.00000  Uiso   1.00
N181   N     0.19002   0.31489   0.50952   0.00000  Uiso   1.00
N182   N     0.58460   0.42082   0.30476   0.00000  Uiso   1.00
N183   N     0.30979   0.15492   0.24821   0.00000  Uiso   1.00
N184   N     0.28652   0.40425   0.47767   0.00000  Uiso   1.00
C185   C     0.54474   0.72947   0.37821   0.00000  Uiso   1.00
C186   C     0.64990   0.77942   0.35897   0.00000  Uiso   1.00
C187   C     0.79208   0.77164   0.36052   0.00000  Uiso   1.00
C188   C     0.87054   0.82302   0.34099   0.00000  Uiso   1.00
C189   C     0.04321   0.89188   0.31419   0.00000  Uiso   1.00
C190   C     0.45005   0.70614   0.34338   0.00000  Uiso   1.00
C191   C     0.42418   0.63674   0.33183   0.00000  Uiso   1.00
C192   C     0.33439   0.62643   0.29918   0.00000  Uiso   1.00
C193   C     0.19671   0.58151   0.24819   0.00000  Uiso   1.00
C194   C     0.45649   0.77486   0.40661   0.00000  Uiso   1.00
C195   C     0.43599   0.76323   0.44824   0.00000  Uiso   1.00
C196   C     0.35159   0.81077   0.46883   0.00000  Uiso   1.00
C197   C     0.22390   0.87255   0.51603   0.00000  Uiso   1.00
C198   C     0.43125   0.83455   0.34075   0.00000  Uiso   1.00
C199   C     0.58826   0.83649   0.33862   0.00000  Uiso   1.00
C200   C     0.66652   0.88790   0.31908   0.00000  Uiso   1.00
C201   C     0.80879   0.88020   0.32061   0.00000  Uiso   1.00
C202   C     0.38841   0.76321   0.32303   0.00000  Uiso   1.00
C203   C     0.29863   0.75300   0.29039   0.00000  Uiso   1.00
C204   C     0.27264   0.68361   0.27880   0.00000  Uiso   1.00
C205   C     0.39485   0.83193   0.38627   0.00000  Uiso   1.00
C206   C     0.31045   0.87949   0.40680   0.00000  Uiso   1.00
C207   C     0.28984   0.86795   0.44844   0.00000  Uiso   1.00
H208   H     0.59272   0.68503   0.39405   0.00000  Uiso   1.00
H209   H     0.83974   0.72746   0.37627   0.00000  Uiso   1.00
H210   H     0.47189   0.59258   0.34758   0.00000  Uiso   1.00
H211   H     0.48371   0.71906   0.46397   0.00000  Uiso   1.00
H212   H     0.08642   0.79965   0.34757   0.00000  Uiso   1.00
H213   H     0.31075   0.51526   0.28710   0.00000  Uiso   1.00
H214   H     0.33567   0.78195   0.53252   0.00000  Uiso   1.00
H215   H     0.38326   0.87899   0.32491   0.00000  Uiso   1.00
H216   H     0.61879   0.93206   0.30334   0.00000  Uiso   1.00
H217   H     0.25094   0.79718   0.27466   0.00000  Uiso   1.00
H218   H     0.26277   0.92366   0.39104   0.00000  Uiso   1.00
H219   H     0.90709   0.96571   0.28838   0.00000  Uiso   1.00
H220   H     0.13142   0.68132   0.22791   0.00000  Uiso   1.00
H221   H     0.15635   0.94802   0.47333   0.00000  Uiso   1.00
O222   O     0.15547   0.91408   0.30502   0.00000  Uiso   1.00
O223   O     0.13781   0.54097   0.22569   0.00000  Uiso   1.00
O224   O     0.17052   0.89087   0.54768   0.00000  Uiso   1.00
N225   N     0.01189   0.83146   0.33661   0.00000  Uiso   1.00
N226   N     0.28671   0.56557   0.28006   0.00000  Uiso   1.00
N227   N     0.30998   0.81489   0.50952   0.00000  Uiso   1.00
N228   N     0.91540   0.92082   0.30476   0.00000  Uiso   1.00
N229   N     0.19021   0.65492   0.24821   0.00000  Uiso   1.00
N230   N     0.21348   0.90425   0.47767   0.00000  Uiso   1.00
C231   C     0.95526   0.27053   0.87821   0.00000  Uiso   1.00
C232   C     0.85010   0.22058   0.85897   0.00000  Uiso   1.00
C233   C     0.70792   0.22836   0.86052   0.00000  Uiso   1.00
C234   C     0.62946   0.17698   0.84099   0.00000  Uiso   1.00
C235   C     0.45679   0.10812   0.81419   0.00000  Uiso   1.00
C236   C     0.04995   0.29386   0.84338   0.00000  Uiso   1.00
C237   C     0.07582   0.36326   0.83183   0.00000  Uiso   1.00
C238   C     0.16561   0.37357   0.79918   0.00000  Uiso   1.00
C239   C     0.30329   0.41849   0.74819   0.00000  Uiso   1.00
C240   C     0.04351   0.22514   0.90661   0.00000  Uiso   1.00
C241   C     0.06401   0.23677   0.94824   0.00000  Uiso   1.00
C242   C     0.14841   0.18923   0.96883   0.00000  Uiso   1.00
C243   C     0.27610   0.12745   0.01603   0.00000  Uiso   1.00
C244   C     0.06875   0.16545   0.84075   0.00000  Uiso   1.00
C245   C     0.91174   0.16351   0.83862   0.00000  Uiso   1.00
C246   C     0.83348   0.11210   0.81908   0.00000  Uiso   1.00
C247   C     0.69121   0.11980   0.82061   0.00000  Uiso   1.00
C248   C     0.11159   0.23679   0.82303   0.00000  Uiso   1.00
C249   C     0.20137   0.24700   0.79039   0.00000  Uiso   1.00
C250   C     0.22736   0.31639   0.77880   0.00000  Uiso   1.00
C251   C     0.10515   0.16807   0.88627   0.00000  Uiso   1.00
C252   C     0.18955   0.12051   0.90680   0.00000  Uiso   1.00
C253   C     0.21016   0.13205   0.94844   0.00000  Uiso   1.00
H254   H     0.90728   0.31497   0.89405   0.00000  Uiso   1.00
H255   H     0.66026   0.27254   0.87627   0.00000  Uiso   1.00
H256   H     0.02811   0.40742   0.84758   0.00000  Uiso   1.00
H257   H     0.01629   0.28094   0.96397   0.00000  Uiso   1.00
H258   H     0.41358   0.20035   0.84757   0.00000  Uiso   1.00
H259   H     0.18925   0.48474   0.78710   0.00000  Uiso   1.00
H260   H     0.16433   0.21805   0.03252   0.00000  Uiso   1.00
H261   H     0.11674   0.12101   0.82491   0.00000  Uiso   1.00
H262   H     0.88121   0.06794   0.80334   0.00000  Uiso   1.00
H263   H     0.24906   0.20282   0.77466   0.00000  Uiso   1.00
H264   H     0.23723   0.07634   0.89104   0.00000  Uiso   1.00
H265   H     0.59291   0.03429   0.78838   0.00000  Uiso   1.00
H266   H     0.36858   0.31868   0.72791   0.00000  Uiso   1.00
H267   H     0.34365   0.05198   0.97333   0.00000  Uiso   1.00
O268   O     0.34453   0.08592   0.80502   0.00000  Uiso   1.00
O269   O     0.36219   0.45903   0.72569   0.00000  Uiso   1.00
O270   O     0.32948   0.10913   0.04768   0.00000  Uiso   1.00
N271   N     0.48811   0.16854   0.83661   0.00000  Uiso   1.00
N272   N     0.21329   0.43443   0.78006   0.00000  Uiso   1.00
N273   N     0.19002   0.18511   0.00952   0.00000  Uiso   1.00
N274   N     0.58460   0.07918   0.80476   0.00000  Uiso   1.00
N275   N     0.30979   0.34508   0.74821   0.00000  Uiso   1.00
N276   N     0.28652   0.09575   0.97767   0.00000  Uiso   1.00
C277   C     0.45526   0.22947   0.12179   0.00000  Uiso   1.00
C278   C     0.35010   0.27942   0.14103   0.00000  Uiso   1.00
C279   C     0.20792   0.27164   0.13948   0.00000  Uiso   1.00
C280   C     0.12946   0.32302   0.15901   0.00000  Uiso   1.00
C281   C     0.95679   0.39188   0.18581   0.00000  Uiso   1.00
C282   C     0.54995   0.20614   0.15662   0.00000  Uiso   1.00
C283   C     0.57582   0.13674   0.16817   0.00000  Uiso   1.00
C284   C     0.66561   0.12643   0.20082   0.00000  Uiso   1.00
C285   C     0.80329   0.08151   0.25181   0.00000  Uiso   1.00
C286   C     0.54351   0.27486   0.09339   0.00000  Uiso   1.00
C287   C     0.56401   0.26323   0.05176   0.00000  Uiso   1.00
C288   C     0.64841   0.31077   0.03117   0.00000  Uiso   1.00
C289   C     0.77610   0.37255   0.98397   0.00000  Uiso   1.00
C290   C     0.56875   0.33455   0.15925   0.00000  Uiso   1.00
C291   C     0.41174   0.33649   0.16138   0.00000  Uiso   1.00
C292   C     0.33348   0.38790   0.18092   0.00000  Uiso   1.00
C293   C     0.19121   0.38020   0.17939   0.00000  Uiso   1.00
C294   C     0.61159   0.26321   0.17697   0.00000  Uiso   1.00
C295   C     0.70137   0.25300   0.20961   0.00000  Uiso   1.00
C296   C     0.72736   0.18361   0.22120   0.00000  Uiso   1.00
C297   C     0.60515   0.33193   0.11373   0.00000  Uiso   1.00
C298   C     0.68955   0.37949   0.09320   0.00000  Uiso   1.00
C299   C     0.71016   0.36795   0.05156   0.00000  Uiso   1.00
H300   H     0.40728   0.18503   0.10595   0.00000  Uiso   1.00
H301   H     0.16026   0.22746   0.12373   0.00000  Uiso   1.00
H302   H     0.52811   0.09258   0.15242   0.00000  Uiso   1.00
H303   H     0.51629   0.21906   0.03603   0.00000  Uiso   1.00
H304   H     0.91358   0.29965   0.15243   0.00000  Uiso   1.00
H305   H     0.68925   0.01526   0.21290   0.00000  Uiso   1.00
H306   H     0.66433   0.28195   0.96748   0.00000  Uiso   1.00
H307   H     0.61674   0.37899   0.17509   0.00000  Uiso   1.00
H308   H     0.38121   0.43206   0.19666   0.00000  Uiso   1.00
H309   H     0.74906   0.29718   0.22534   0.00000  Uiso   1.00
H310   H     0.73723   0.42366   0.10896   0.00000  Uiso   1.00
H311   H     0.09291   0.46571   0.21162   0.00000  Uiso   1.00
H312   H     0.86858   0.18132   0.27209   0.00000  Uiso   1.00
H313   H     0.84365   0.44802   0.02667   0.00000  Uiso   1.00
O314   O     0.84453   0.41408   0.19498   0.00000  Uiso   1.00
O315   O     0.86219   0.04097   0.27431   0.00000  Uiso   1.00
O316   O     0.82948   0.39087   0.95232   0.00000  Uiso   1.00
N317   N     0.98811   0.33146   0.16339   0.00000  Uiso   1.00
N318   N     0.71329   0.06557   0.21994   0.00000  Uiso   1.00
N319   N     0.69002   0.31489   0.99048   0.00000  Uiso   1.00
N320   N     0.08460   0.42082   0.19524   0.00000  Uiso   1.00
N321   N     0.80979   0.15492   0.25179   0.00000  Uiso   1.00
N322   N     0.78652   0.40425   0.02233   0.00000  Uiso   1.00
C323   C     0.04474   0.77053   0.62179   0.00000  Uiso   1.00
C324   C     0.14990   0.72058   0.64103   0.00000  Uiso   1.00
C325   C     0.29208   0.72836   0.63948   0.00000  Uiso   1.00
C326   C     0.37054   0.67698   0.65901   0.00000  Uiso   1.00
C327   C     0.54321   0.60812   0.68581   0.00000  Uiso   1.00
C328   C     0.95005   0.79386   0.65662   0.00000  Uiso   1.00
C329   C     0.92418   0.86326   0.66817   0.00000  Uiso   1.00
C330   C     0.83439   0.87357   0.70082   0.00000  Uiso   1.00
C331   C     0.69671   0.91849   0.75181   0.00000  Uiso   1.00
C332   C     0.95649   0.72514   0.59339   0.00000  Uiso   1.00
C333   C     0.93599   0.73677   0.55176   0.00000  Uiso   1.00
C334   C     0.85159   0.68923   0.53117   0.00000  Uiso   1.00
C335   C     0.72390   0.62745   0.48397   0.00000  Uiso   1.00
C336   C     0.93125   0.66545   0.65925   0.00000  Uiso   1.00
C337   C     0.08826   0.66351   0.66138   0.00000  Uiso   1.00
C338   C     0.16652   0.61210   0.68092   0.00000  Uiso   1.00
C339   C     0.30879   0.61980   0.67939   0.00000  Uiso   1.00
C340   C     0.88841   0.73679   0.67697   0.00000  Uiso   1.00
C341   C     0.79863   0.74700   0.70961   0.00000  Uiso   1.00
C342   C     0.77264   0.81639   0.72120   0.00000  Uiso   1.00
C343   C     0.89485   0.66807   0.61373   0.00000  Uiso   1.00
C344   C     0.81045   0.62051   0.59320   0.00000  Uiso   1.00
C345   C     0.78984   0.63205   0.55156   0.00000  Uiso   1.00
H346   H     0.09272   0.81497   0.60595   0.00000  Uiso   1.00
H347   H     0.33974   0.77254   0.62373   0.00000  Uiso   1.00
H348   H     0.97189   0.90742   0.65242   0.00000  Uiso   1.00
H349   H     0.98371   0.78094   0.53603   0.00000  Uiso   1.00
H350   H     0.58642   0.70035   0.65243   0.00000  Uiso   1.00
H351   H     0.81075   0.98474   0.71290   0.00000  Uiso   1.00
H352   H     0.83567   0.71805   0.46748   0.00000  Uiso   1.00
H353   H     0.88326   0.62101   0.67509   0.00000  Uiso   1.00
H354   H     0.11879   0.56794   0.69666   0.00000  Uiso   1.00
H355   H     0.75094   0.70282   0.72534   0.00000  Uiso   1.00
H356   H     0.76277   0.57634   0.60896   0.00000  Uiso   1.00
H357   H     0.40709   0.53429   0.71162   0.00000  Uiso   1.00
H358   H     0.63142   0.81868   0.77209   0.00000  Uiso   1.00
H359   H     0.65635   0.55198   0.52667   0.00000  Uiso   1.00
O360   O     0.65547   0.58592   0.69498   0.00000  Uiso   1.00
O361   O     0.63781   0.95903   0.77431   0.00000  Uiso   1.00
O362   O     0.67052   0.60913   0.45232   0.00000  Uiso   1.00
N363   N     0.51189   0.66854   0.66339   0.00000  Uiso   1.00
N364   N     0.78671   0.93443   0.71994   0.00000  Uiso   1.00
N365   N     0.80998   0.68511   0.49048   0.00000  Uiso   1.00
N366   N     0.41540   0.57918   0.69524   0.00000  Uiso   1.00
N367   N     0.69021   0.84508   0.75179   0.00000  Uiso   1.00
N368   N     0.71348   0.59575   0.52233   0.00000  Uiso   1.00
