data_job_05781
_audit_creation_date              2018-12-19
_audit_creation_method            'Materials Studio'
_symmetry_space_group_name_H-M    'P1'
_symmetry_Int_Tables_number       1
_symmetry_cell_setting            triclinic
loop_
_symmetry_equiv_pos_as_xyz
  x,y,z
_cell_length_a                    21.3634
_cell_length_b                    14.2959
_cell_length_c                    11.1467
_cell_angle_alpha                 90.0000
_cell_angle_beta                  68.0027
_cell_angle_gamma                 90.0000
loop_
_atom_site_label
_atom_site_type_symbol
_atom_site_fract_x
_atom_site_fract_y
_atom_site_fract_z
_atom_site_U_iso_or_equiv
_atom_site_adp_type
_atom_site_occupancy
C1     C     0.76036   0.23497   0.39682   0.00000  Uiso   1.00
C2     C     0.78954   0.28956   0.48136   0.00000  Uiso   1.00
C3     C     0.84900   0.34089   0.43735   0.00000  Uiso   1.00
C4     C     0.86702   0.38582   0.53010   0.00000  Uiso   1.00
C5     C     0.91843   0.47149   0.64129   0.00000  Uiso   1.00
C6     C     0.75182   0.13462   0.44683   0.00000  Uiso   1.00
C7     C     0.77957   0.05569   0.37377   0.00000  Uiso   1.00
C8     C     0.76583   0.97020   0.43745   0.00000  Uiso   1.00
C9     C     0.75865   0.81533   0.49501   0.00000  Uiso   1.00
C10    C     0.68921   0.27283   0.42879   0.00000  Uiso   1.00
C11    C     0.66429   0.31008   0.34057   0.00000  Uiso   1.00
C12    C     0.59782   0.34093   0.38907   0.00000  Uiso   1.00
C13    C     0.49341   0.40065   0.41862   0.00000  Uiso   1.00
C14    C     0.68663   0.22348   0.63980   0.00000  Uiso   1.00
C15    C     0.74949   0.28331   0.61334   0.00000  Uiso   1.00
C16    C     0.76742   0.32818   0.70618   0.00000  Uiso   1.00
C17    C     0.82689   0.37957   0.66231   0.00000  Uiso   1.00
C18    C     0.71178   0.12838   0.57880   0.00000  Uiso   1.00
C19    C     0.69799   0.04298   0.64260   0.00000  Uiso   1.00
C20    C     0.72571   0.96394   0.56966   0.00000  Uiso   1.00
C21    C     0.64915   0.26659   0.56077   0.00000  Uiso   1.00
C22    C     0.58271   0.29738   0.60940   0.00000  Uiso   1.00
C23    C     0.55770   0.33467   0.52128   0.00000  Uiso   1.00
H24    H     0.79155   0.23982   0.29408   0.00000  Uiso   1.00
H25    H     0.87998   0.34569   0.33521   0.00000  Uiso   1.00
H26    H     0.81055   0.06054   0.27164   0.00000  Uiso   1.00
H27    H     0.69530   0.31490   0.23845   0.00000  Uiso   1.00
H28    H     0.96038   0.46030   0.43902   0.00000  Uiso   1.00
H29    H     0.81397   0.85904   0.30497   0.00000  Uiso   1.00
H30    H     0.57093   0.39539   0.23498   0.00000  Uiso   1.00
H31    H     0.65545   0.21861   0.74255   0.00000  Uiso   1.00
H32    H     0.73642   0.32334   0.80830   0.00000  Uiso   1.00
H33    H     0.66699   0.03818   0.74473   0.00000  Uiso   1.00
H34    H     0.55173   0.29254   0.71154   0.00000  Uiso   1.00
H35    H     0.84386   0.44215   0.82300   0.00000  Uiso   1.00
H36    H     0.69745   0.84088   0.68894   0.00000  Uiso   1.00
H37    H     0.45440   0.37724   0.61896   0.00000  Uiso   1.00
O38    O     0.95785   0.52047   0.66617   0.00000  Uiso   1.00
O39    O     0.76576   0.73164   0.49029   0.00000  Uiso   1.00
O40    O     0.44689   0.43533   0.39847   0.00000  Uiso   1.00
N41    N     0.92184   0.44167   0.52037   0.00000  Uiso   1.00
N42    N     0.78496   0.87953   0.39504   0.00000  Uiso   1.00
N43    N     0.55773   0.38095   0.32960   0.00000  Uiso   1.00
N44    N     0.85914   0.43190   0.72698   0.00000  Uiso   1.00
N45    N     0.72226   0.86976   0.60165   0.00000  Uiso   1.00
N46    N     0.49503   0.37119   0.53622   0.00000  Uiso   1.00
C47    C     0.23964   0.23497   0.10318   0.00000  Uiso   1.00
C48    C     0.21046   0.28956   0.01864   0.00000  Uiso   1.00
C49    C     0.15100   0.34089   0.06265   0.00000  Uiso   1.00
C50    C     0.13298   0.38582   0.96990   0.00000  Uiso   1.00
C51    C     0.08157   0.47149   0.85871   0.00000  Uiso   1.00
C52    C     0.24818   0.13462   0.05317   0.00000  Uiso   1.00
C53    C     0.22043   0.05569   0.12623   0.00000  Uiso   1.00
C54    C     0.23417   0.97020   0.06255   0.00000  Uiso   1.00
C55    C     0.24135   0.81533   0.00499   0.00000  Uiso   1.00
C56    C     0.31079   0.27283   0.07121   0.00000  Uiso   1.00
C57    C     0.33571   0.31008   0.15943   0.00000  Uiso   1.00
C58    C     0.40218   0.34093   0.11093   0.00000  Uiso   1.00
C59    C     0.50659   0.40065   0.08138   0.00000  Uiso   1.00
C60    C     0.31337   0.22348   0.86020   0.00000  Uiso   1.00
C61    C     0.25051   0.28331   0.88666   0.00000  Uiso   1.00
C62    C     0.23258   0.32818   0.79382   0.00000  Uiso   1.00
C63    C     0.17311   0.37957   0.83769   0.00000  Uiso   1.00
C64    C     0.28822   0.12838   0.92120   0.00000  Uiso   1.00
C65    C     0.30201   0.04298   0.85740   0.00000  Uiso   1.00
C66    C     0.27429   0.96394   0.93034   0.00000  Uiso   1.00
C67    C     0.35085   0.26659   0.93923   0.00000  Uiso   1.00
C68    C     0.41729   0.29738   0.89060   0.00000  Uiso   1.00
C69    C     0.44230   0.33467   0.97872   0.00000  Uiso   1.00
H70    H     0.20845   0.23982   0.20592   0.00000  Uiso   1.00
H71    H     0.12002   0.34569   0.16479   0.00000  Uiso   1.00
H72    H     0.18945   0.06054   0.22836   0.00000  Uiso   1.00
H73    H     0.30470   0.31490   0.26155   0.00000  Uiso   1.00
H74    H     0.03962   0.46030   0.06098   0.00000  Uiso   1.00
H75    H     0.18603   0.85904   0.19503   0.00000  Uiso   1.00
H76    H     0.42907   0.39539   0.26502   0.00000  Uiso   1.00
H77    H     0.34455   0.21861   0.75745   0.00000  Uiso   1.00
H78    H     0.26358   0.32334   0.69170   0.00000  Uiso   1.00
H79    H     0.33301   0.03818   0.75527   0.00000  Uiso   1.00
H80    H     0.44827   0.29254   0.78846   0.00000  Uiso   1.00
H81    H     0.15614   0.44215   0.67700   0.00000  Uiso   1.00
H82    H     0.30255   0.84088   0.81106   0.00000  Uiso   1.00
H83    H     0.54560   0.37724   0.88104   0.00000  Uiso   1.00
O84    O     0.04215   0.52047   0.83383   0.00000  Uiso   1.00
O85    O     0.23424   0.73164   0.00971   0.00000  Uiso   1.00
O86    O     0.55311   0.43533   0.10153   0.00000  Uiso   1.00
N87    N     0.07816   0.44167   0.97963   0.00000  Uiso   1.00
N88    N     0.21504   0.87953   0.10496   0.00000  Uiso   1.00
N89    N     0.44227   0.38095   0.17040   0.00000  Uiso   1.00
N90    N     0.14086   0.43190   0.77302   0.00000  Uiso   1.00
N91    N     0.27774   0.86976   0.89835   0.00000  Uiso   1.00
N92    N     0.50497   0.37119   0.96378   0.00000  Uiso   1.00
C93    C     0.23964   0.76503   0.60318   0.00000  Uiso   1.00
C94    C     0.21046   0.71044   0.51864   0.00000  Uiso   1.00
C95    C     0.15100   0.65911   0.56265   0.00000  Uiso   1.00
C96    C     0.13298   0.61418   0.46990   0.00000  Uiso   1.00
C97    C     0.08157   0.52851   0.35871   0.00000  Uiso   1.00
C98    C     0.24818   0.86538   0.55317   0.00000  Uiso   1.00
C99    C     0.22043   0.94431   0.62623   0.00000  Uiso   1.00
C100   C     0.23417   0.02980   0.56255   0.00000  Uiso   1.00
C101   C     0.24135   0.18467   0.50499   0.00000  Uiso   1.00
C102   C     0.31079   0.72717   0.57121   0.00000  Uiso   1.00
C103   C     0.33571   0.68992   0.65943   0.00000  Uiso   1.00
C104   C     0.40218   0.65907   0.61093   0.00000  Uiso   1.00
C105   C     0.50659   0.59935   0.58138   0.00000  Uiso   1.00
C106   C     0.31337   0.77652   0.36020   0.00000  Uiso   1.00
C107   C     0.25051   0.71669   0.38666   0.00000  Uiso   1.00
C108   C     0.23258   0.67182   0.29382   0.00000  Uiso   1.00
C109   C     0.17311   0.62043   0.33769   0.00000  Uiso   1.00
C110   C     0.28822   0.87162   0.42120   0.00000  Uiso   1.00
C111   C     0.30201   0.95702   0.35740   0.00000  Uiso   1.00
C112   C     0.27429   0.03606   0.43034   0.00000  Uiso   1.00
C113   C     0.35085   0.73341   0.43923   0.00000  Uiso   1.00
C114   C     0.41729   0.70262   0.39060   0.00000  Uiso   1.00
C115   C     0.44230   0.66533   0.47872   0.00000  Uiso   1.00
H116   H     0.20845   0.76018   0.70592   0.00000  Uiso   1.00
H117   H     0.12002   0.65431   0.66479   0.00000  Uiso   1.00
H118   H     0.18945   0.93946   0.72836   0.00000  Uiso   1.00
H119   H     0.30470   0.68510   0.76155   0.00000  Uiso   1.00
H120   H     0.03962   0.53970   0.56098   0.00000  Uiso   1.00
H121   H     0.18603   0.14096   0.69503   0.00000  Uiso   1.00
H122   H     0.42907   0.60461   0.76502   0.00000  Uiso   1.00
H123   H     0.34455   0.78139   0.25745   0.00000  Uiso   1.00
H124   H     0.26358   0.67666   0.19170   0.00000  Uiso   1.00
H125   H     0.33301   0.96182   0.25527   0.00000  Uiso   1.00
H126   H     0.44827   0.70746   0.28846   0.00000  Uiso   1.00
H127   H     0.15614   0.55785   0.17700   0.00000  Uiso   1.00
H128   H     0.30255   0.15912   0.31106   0.00000  Uiso   1.00
H129   H     0.54560   0.62276   0.38104   0.00000  Uiso   1.00
O130   O     0.04215   0.47953   0.33383   0.00000  Uiso   1.00
O131   O     0.23424   0.26836   0.50971   0.00000  Uiso   1.00
O132   O     0.55311   0.56467   0.60153   0.00000  Uiso   1.00
N133   N     0.07816   0.55833   0.47963   0.00000  Uiso   1.00
N134   N     0.21504   0.12047   0.60496   0.00000  Uiso   1.00
N135   N     0.44227   0.61905   0.67040   0.00000  Uiso   1.00
N136   N     0.14086   0.56810   0.27302   0.00000  Uiso   1.00
N137   N     0.27774   0.13024   0.39835   0.00000  Uiso   1.00
N138   N     0.50497   0.62881   0.46378   0.00000  Uiso   1.00
C139   C     0.76036   0.76503   0.89682   0.00000  Uiso   1.00
C140   C     0.78954   0.71044   0.98136   0.00000  Uiso   1.00
C141   C     0.84900   0.65911   0.93735   0.00000  Uiso   1.00
C142   C     0.86702   0.61418   0.03010   0.00000  Uiso   1.00
C143   C     0.91843   0.52851   0.14129   0.00000  Uiso   1.00
C144   C     0.75182   0.86538   0.94683   0.00000  Uiso   1.00
C145   C     0.77957   0.94431   0.87377   0.00000  Uiso   1.00
C146   C     0.76583   0.02980   0.93745   0.00000  Uiso   1.00
C147   C     0.75865   0.18467   0.99501   0.00000  Uiso   1.00
C148   C     0.68921   0.72717   0.92879   0.00000  Uiso   1.00
C149   C     0.66429   0.68992   0.84057   0.00000  Uiso   1.00
C150   C     0.59782   0.65907   0.88907   0.00000  Uiso   1.00
C151   C     0.49341   0.59935   0.91862   0.00000  Uiso   1.00
C152   C     0.68663   0.77652   0.13980   0.00000  Uiso   1.00
C153   C     0.74949   0.71669   0.11334   0.00000  Uiso   1.00
C154   C     0.76742   0.67182   0.20618   0.00000  Uiso   1.00
C155   C     0.82689   0.62043   0.16231   0.00000  Uiso   1.00
C156   C     0.71178   0.87162   0.07880   0.00000  Uiso   1.00
C157   C     0.69799   0.95702   0.14260   0.00000  Uiso   1.00
C158   C     0.72571   0.03606   0.06966   0.00000  Uiso   1.00
C159   C     0.64915   0.73341   0.06077   0.00000  Uiso   1.00
C160   C     0.58271   0.70262   0.10940   0.00000  Uiso   1.00
C161   C     0.55770   0.66533   0.02128   0.00000  Uiso   1.00
H162   H     0.79155   0.76018   0.79408   0.00000  Uiso   1.00
H163   H     0.87998   0.65431   0.83521   0.00000  Uiso   1.00
H164   H     0.81055   0.93946   0.77164   0.00000  Uiso   1.00
H165   H     0.69530   0.68510   0.73845   0.00000  Uiso   1.00
H166   H     0.96038   0.53970   0.93902   0.00000  Uiso   1.00
H167   H     0.81397   0.14096   0.80497   0.00000  Uiso   1.00
H168   H     0.57093   0.60461   0.73498   0.00000  Uiso   1.00
H169   H     0.65545   0.78139   0.24255   0.00000  Uiso   1.00
H170   H     0.73642   0.67666   0.30830   0.00000  Uiso   1.00
H171   H     0.66699   0.96182   0.24473   0.00000  Uiso   1.00
H172   H     0.55173   0.70746   0.21154   0.00000  Uiso   1.00
H173   H     0.84386   0.55785   0.32300   0.00000  Uiso   1.00
H174   H     0.69745   0.15912   0.18894   0.00000  Uiso   1.00
H175   H     0.45440   0.62276   0.11896   0.00000  Uiso   1.00
O176   O     0.95785   0.47953   0.16617   0.00000  Uiso   1.00
O177   O     0.76576   0.26836   0.99029   0.00000  Uiso   1.00
O178   O     0.44689   0.56467   0.89847   0.00000  Uiso   1.00
N179   N     0.92184   0.55833   0.02037   0.00000  Uiso   1.00
N180   N     0.78496   0.12047   0.89504   0.00000  Uiso   1.00
N181   N     0.55773   0.61905   0.82960   0.00000  Uiso   1.00
N182   N     0.85914   0.56810   0.22698   0.00000  Uiso   1.00
N183   N     0.72226   0.13024   0.10165   0.00000  Uiso   1.00
N184   N     0.49503   0.62881   0.03622   0.00000  Uiso   1.00
