data_job_01555
_audit_creation_date              2018-12-19
_audit_creation_method            'Materials Studio'
_symmetry_space_group_name_H-M    'P1'
_symmetry_Int_Tables_number       1
_symmetry_cell_setting            triclinic
loop_
_symmetry_equiv_pos_as_xyz
  x,y,z
_cell_length_a                    12.3403
_cell_length_b                    17.0774
_cell_length_c                    11.7417
_cell_angle_alpha                 90.0000
_cell_angle_beta                  90.0000
_cell_angle_gamma                 90.0000
loop_
_atom_site_label
_atom_site_type_symbol
_atom_site_fract_x
_atom_site_fract_y
_atom_site_fract_z
_atom_site_U_iso_or_equiv
_atom_site_adp_type
_atom_site_occupancy
C1     C     0.71692   0.44434   0.34600   0.00000  Uiso   1.00
C2     C     0.79277   0.41164   0.25516   0.00000  Uiso   1.00
C3     C     0.88464   0.44853   0.21311   0.00000  Uiso   1.00
C4     C     0.94321   0.40893   0.13019   0.00000  Uiso   1.00
C5     C     0.06585   0.36940   0.99509   0.00000  Uiso   1.00
C6     C     0.60423   0.44516   0.29273   0.00000  Uiso   1.00
C7     C     0.53757   0.51022   0.28228   0.00000  Uiso   1.00
C8     C     0.43742   0.49883   0.23099   0.00000  Uiso   1.00
C9     C     0.26732   0.51132   0.15430   0.00000  Uiso   1.00
C10    C     0.71310   0.38310   0.44042   0.00000  Uiso   1.00
C11    C     0.73795   0.39599   0.55416   0.00000  Uiso   1.00
C12    C     0.72944   0.33236   0.62723   0.00000  Uiso   1.00
C13    C     0.72837   0.24850   0.77984   0.00000  Uiso   1.00
C14    C     0.65758   0.30843   0.27352   0.00000  Uiso   1.00
C15    C     0.76053   0.33782   0.21579   0.00000  Uiso   1.00
C16    C     0.81898   0.29816   0.13292   0.00000  Uiso   1.00
C17    C     0.91092   0.33498   0.09075   0.00000  Uiso   1.00
C18    C     0.57199   0.37134   0.25336   0.00000  Uiso   1.00
C19    C     0.47191   0.35985   0.20209   0.00000  Uiso   1.00
C20    C     0.40513   0.42488   0.19156   0.00000  Uiso   1.00
C21    C     0.68086   0.30928   0.40105   0.00000  Uiso   1.00
C22    C     0.67230   0.24562   0.47396   0.00000  Uiso   1.00
C23    C     0.69714   0.25841   0.58779   0.00000  Uiso   1.00
H24    H     0.74201   0.50182   0.37664   0.00000  Uiso   1.00
H25    H     0.90955   0.50566   0.24359   0.00000  Uiso   1.00
H26    H     0.56254   0.56734   0.31276   0.00000  Uiso   1.00
H27    H     0.76289   0.45313   0.58459   0.00000  Uiso   1.00
H28    H     0.08106   0.47738   0.07868   0.00000  Uiso   1.00
H29    H     0.34935   0.60742   0.22457   0.00000  Uiso   1.00
H30    H     0.77183   0.36659   0.79778   0.00000  Uiso   1.00
H31    H     0.63248   0.25096   0.24287   0.00000  Uiso   1.00
H32    H     0.79401   0.24103   0.10247   0.00000  Uiso   1.00
H33    H     0.44700   0.30271   0.17164   0.00000  Uiso   1.00
H34    H     0.64735   0.18850   0.44347   0.00000  Uiso   1.00
H35    H     0.98729   0.26260   0.96414   0.00000  Uiso   1.00
H36    H     0.25557   0.39264   0.11003   0.00000  Uiso   1.00
H37    H     0.67805   0.15181   0.68324   0.00000  Uiso   1.00
O38    O     0.14239   0.36799   0.93144   0.00000  Uiso   1.00
O39    O     0.18241   0.53860   0.12286   0.00000  Uiso   1.00
O40    O     0.73670   0.22264   0.87490   0.00000  Uiso   1.00
N41    N     0.03684   0.42818   0.07101   0.00000  Uiso   1.00
N42    N     0.35273   0.54977   0.20739   0.00000  Uiso   1.00
N43    N     0.74769   0.32462   0.74330   0.00000  Uiso   1.00
N44    N     0.98638   0.31261   0.00938   0.00000  Uiso   1.00
N45    N     0.30227   0.43420   0.14575   0.00000  Uiso   1.00
N46    N     0.69723   0.20905   0.68167   0.00000  Uiso   1.00
C47    C     0.78308   0.55566   0.84600   0.00000  Uiso   1.00
C48    C     0.70723   0.58836   0.75516   0.00000  Uiso   1.00
C49    C     0.61536   0.55147   0.71311   0.00000  Uiso   1.00
C50    C     0.55679   0.59107   0.63019   0.00000  Uiso   1.00
C51    C     0.43415   0.63060   0.49509   0.00000  Uiso   1.00
C52    C     0.89577   0.55484   0.79273   0.00000  Uiso   1.00
C53    C     0.96243   0.48978   0.78228   0.00000  Uiso   1.00
C54    C     0.06258   0.50117   0.73099   0.00000  Uiso   1.00
C55    C     0.23268   0.48868   0.65430   0.00000  Uiso   1.00
C56    C     0.78690   0.61690   0.94042   0.00000  Uiso   1.00
C57    C     0.76205   0.60401   0.05416   0.00000  Uiso   1.00
C58    C     0.77056   0.66764   0.12723   0.00000  Uiso   1.00
C59    C     0.77163   0.75150   0.27984   0.00000  Uiso   1.00
C60    C     0.84242   0.69157   0.77352   0.00000  Uiso   1.00
C61    C     0.73947   0.66218   0.71579   0.00000  Uiso   1.00
C62    C     0.68102   0.70184   0.63292   0.00000  Uiso   1.00
C63    C     0.58908   0.66502   0.59075   0.00000  Uiso   1.00
C64    C     0.92801   0.62866   0.75336   0.00000  Uiso   1.00
C65    C     0.02809   0.64015   0.70209   0.00000  Uiso   1.00
C66    C     0.09487   0.57512   0.69156   0.00000  Uiso   1.00
C67    C     0.81914   0.69072   0.90105   0.00000  Uiso   1.00
C68    C     0.82770   0.75438   0.97396   0.00000  Uiso   1.00
C69    C     0.80286   0.74159   0.08779   0.00000  Uiso   1.00
H70    H     0.75799   0.49818   0.87664   0.00000  Uiso   1.00
H71    H     0.59045   0.49434   0.74359   0.00000  Uiso   1.00
H72    H     0.93746   0.43266   0.81276   0.00000  Uiso   1.00
H73    H     0.73711   0.54687   0.08459   0.00000  Uiso   1.00
H74    H     0.41894   0.52262   0.57868   0.00000  Uiso   1.00
H75    H     0.15065   0.39258   0.72457   0.00000  Uiso   1.00
H76    H     0.72817   0.63341   0.29778   0.00000  Uiso   1.00
H77    H     0.86752   0.74904   0.74287   0.00000  Uiso   1.00
H78    H     0.70599   0.75897   0.60247   0.00000  Uiso   1.00
H79    H     0.05300   0.69729   0.67164   0.00000  Uiso   1.00
H80    H     0.85265   0.81150   0.94347   0.00000  Uiso   1.00
H81    H     0.51271   0.73740   0.46414   0.00000  Uiso   1.00
H82    H     0.24443   0.60736   0.61003   0.00000  Uiso   1.00
H83    H     0.82195   0.84819   0.18324   0.00000  Uiso   1.00
O84    O     0.35761   0.63201   0.43144   0.00000  Uiso   1.00
O85    O     0.31759   0.46140   0.62286   0.00000  Uiso   1.00
O86    O     0.76330   0.77736   0.37490   0.00000  Uiso   1.00
N87    N     0.46316   0.57182   0.57101   0.00000  Uiso   1.00
N88    N     0.14727   0.45023   0.70739   0.00000  Uiso   1.00
N89    N     0.75231   0.67538   0.24330   0.00000  Uiso   1.00
N90    N     0.51362   0.68739   0.50938   0.00000  Uiso   1.00
N91    N     0.19773   0.56580   0.64575   0.00000  Uiso   1.00
N92    N     0.80277   0.79095   0.18167   0.00000  Uiso   1.00
C93    C     0.28308   0.94434   0.15400   0.00000  Uiso   1.00
C94    C     0.20723   0.91164   0.24484   0.00000  Uiso   1.00
C95    C     0.11536   0.94853   0.28689   0.00000  Uiso   1.00
C96    C     0.05679   0.90893   0.36981   0.00000  Uiso   1.00
C97    C     0.93415   0.86940   0.50491   0.00000  Uiso   1.00
C98    C     0.39577   0.94516   0.20727   0.00000  Uiso   1.00
C99    C     0.46243   0.01022   0.21772   0.00000  Uiso   1.00
C100   C     0.56258   0.99883   0.26901   0.00000  Uiso   1.00
C101   C     0.73268   0.01132   0.34570   0.00000  Uiso   1.00
C102   C     0.28690   0.88310   0.05958   0.00000  Uiso   1.00
C103   C     0.26205   0.89599   0.94584   0.00000  Uiso   1.00
C104   C     0.27056   0.83236   0.87277   0.00000  Uiso   1.00
C105   C     0.27163   0.74850   0.72016   0.00000  Uiso   1.00
C106   C     0.34242   0.80843   0.22648   0.00000  Uiso   1.00
C107   C     0.23947   0.83782   0.28421   0.00000  Uiso   1.00
C108   C     0.18102   0.79816   0.36708   0.00000  Uiso   1.00
C109   C     0.08908   0.83498   0.40925   0.00000  Uiso   1.00
C110   C     0.42801   0.87134   0.24664   0.00000  Uiso   1.00
C111   C     0.52809   0.85985   0.29791   0.00000  Uiso   1.00
C112   C     0.59487   0.92488   0.30844   0.00000  Uiso   1.00
C113   C     0.31914   0.80928   0.09895   0.00000  Uiso   1.00
C114   C     0.32770   0.74562   0.02604   0.00000  Uiso   1.00
C115   C     0.30286   0.75841   0.91221   0.00000  Uiso   1.00
H116   H     0.25799   0.00182   0.12336   0.00000  Uiso   1.00
H117   H     0.09045   0.00566   0.25641   0.00000  Uiso   1.00
H118   H     0.43746   0.06734   0.18724   0.00000  Uiso   1.00
H119   H     0.23711   0.95313   0.91541   0.00000  Uiso   1.00
H120   H     0.91894   0.97738   0.42132   0.00000  Uiso   1.00
H121   H     0.65065   0.10742   0.27543   0.00000  Uiso   1.00
H122   H     0.22817   0.86659   0.70222   0.00000  Uiso   1.00
H123   H     0.36752   0.75096   0.25713   0.00000  Uiso   1.00
H124   H     0.20599   0.74103   0.39753   0.00000  Uiso   1.00
H125   H     0.55300   0.80271   0.32836   0.00000  Uiso   1.00
H126   H     0.35265   0.68850   0.05653   0.00000  Uiso   1.00
H127   H     0.01271   0.76260   0.53586   0.00000  Uiso   1.00
H128   H     0.74443   0.89264   0.38997   0.00000  Uiso   1.00
H129   H     0.32195   0.65181   0.81676   0.00000  Uiso   1.00
O130   O     0.85761   0.86799   0.56856   0.00000  Uiso   1.00
O131   O     0.81759   0.03860   0.37714   0.00000  Uiso   1.00
O132   O     0.26330   0.72264   0.62510   0.00000  Uiso   1.00
N133   N     0.96316   0.92818   0.42899   0.00000  Uiso   1.00
N134   N     0.64727   0.04977   0.29261   0.00000  Uiso   1.00
N135   N     0.25231   0.82462   0.75670   0.00000  Uiso   1.00
N136   N     0.01362   0.81261   0.49062   0.00000  Uiso   1.00
N137   N     0.69773   0.93420   0.35425   0.00000  Uiso   1.00
N138   N     0.30277   0.70905   0.81833   0.00000  Uiso   1.00
C139   C     0.21692   0.05566   0.65400   0.00000  Uiso   1.00
C140   C     0.29277   0.08836   0.74484   0.00000  Uiso   1.00
C141   C     0.38464   0.05147   0.78689   0.00000  Uiso   1.00
C142   C     0.44321   0.09107   0.86981   0.00000  Uiso   1.00
C143   C     0.56585   0.13060   0.00491   0.00000  Uiso   1.00
C144   C     0.10423   0.05484   0.70727   0.00000  Uiso   1.00
C145   C     0.03757   0.98978   0.71772   0.00000  Uiso   1.00
C146   C     0.93742   0.00117   0.76901   0.00000  Uiso   1.00
C147   C     0.76732   0.98868   0.84570   0.00000  Uiso   1.00
C148   C     0.21310   0.11690   0.55958   0.00000  Uiso   1.00
C149   C     0.23795   0.10401   0.44584   0.00000  Uiso   1.00
C150   C     0.22944   0.16764   0.37277   0.00000  Uiso   1.00
C151   C     0.22837   0.25150   0.22016   0.00000  Uiso   1.00
C152   C     0.15758   0.19157   0.72648   0.00000  Uiso   1.00
C153   C     0.26053   0.16218   0.78421   0.00000  Uiso   1.00
C154   C     0.31898   0.20184   0.86708   0.00000  Uiso   1.00
C155   C     0.41092   0.16502   0.90925   0.00000  Uiso   1.00
C156   C     0.07199   0.12866   0.74664   0.00000  Uiso   1.00
C157   C     0.97191   0.14015   0.79791   0.00000  Uiso   1.00
C158   C     0.90513   0.07512   0.80844   0.00000  Uiso   1.00
C159   C     0.18086   0.19072   0.59895   0.00000  Uiso   1.00
C160   C     0.17230   0.25438   0.52604   0.00000  Uiso   1.00
C161   C     0.19714   0.24159   0.41221   0.00000  Uiso   1.00
H162   H     0.24201   0.99818   0.62336   0.00000  Uiso   1.00
H163   H     0.40955   0.99434   0.75641   0.00000  Uiso   1.00
H164   H     0.06254   0.93266   0.68724   0.00000  Uiso   1.00
H165   H     0.26289   0.04687   0.41541   0.00000  Uiso   1.00
H166   H     0.58106   0.02262   0.92132   0.00000  Uiso   1.00
H167   H     0.84935   0.89258   0.77543   0.00000  Uiso   1.00
H168   H     0.27183   0.13341   0.20222   0.00000  Uiso   1.00
H169   H     0.13248   0.24904   0.75713   0.00000  Uiso   1.00
H170   H     0.29401   0.25897   0.89753   0.00000  Uiso   1.00
H171   H     0.94700   0.19729   0.82836   0.00000  Uiso   1.00
H172   H     0.14735   0.31150   0.55653   0.00000  Uiso   1.00
H173   H     0.48729   0.23740   0.03586   0.00000  Uiso   1.00
H174   H     0.75557   0.10736   0.88997   0.00000  Uiso   1.00
H175   H     0.17805   0.34819   0.31676   0.00000  Uiso   1.00
O176   O     0.64239   0.13201   0.06856   0.00000  Uiso   1.00
O177   O     0.68241   0.96140   0.87714   0.00000  Uiso   1.00
O178   O     0.23670   0.27736   0.12510   0.00000  Uiso   1.00
N179   N     0.53684   0.07182   0.92899   0.00000  Uiso   1.00
N180   N     0.85273   0.95023   0.79261   0.00000  Uiso   1.00
N181   N     0.24769   0.17538   0.25670   0.00000  Uiso   1.00
N182   N     0.48638   0.18739   0.99062   0.00000  Uiso   1.00
N183   N     0.80227   0.06580   0.85425   0.00000  Uiso   1.00
N184   N     0.19723   0.29095   0.31833   0.00000  Uiso   1.00
