data_job_05386
_audit_creation_date              2018-12-19
_audit_creation_method            'Materials Studio'
_symmetry_space_group_name_H-M    'P1'
_symmetry_Int_Tables_number       1
_symmetry_cell_setting            triclinic
loop_
_symmetry_equiv_pos_as_xyz
  x,y,z
_cell_length_a                    22.1343
_cell_length_b                    7.0642
_cell_length_c                    24.1392
_cell_angle_alpha                 90.0000
_cell_angle_beta                  96.4118
_cell_angle_gamma                 90.0000
loop_
_atom_site_label
_atom_site_type_symbol
_atom_site_fract_x
_atom_site_fract_y
_atom_site_fract_z
_atom_site_U_iso_or_equiv
_atom_site_adp_type
_atom_site_occupancy
C1     C     0.29545   0.73587   0.03772   0.00000  Uiso   1.00
C2     C     0.33772   0.80050   0.99568   0.00000  Uiso   1.00
C3     C     0.35503   0.69304   0.95198   0.00000  Uiso   1.00
C4     C     0.39404   0.77777   0.91817   0.00000  Uiso   1.00
C5     C     0.45652   0.84986   0.85145   0.00000  Uiso   1.00
C6     C     0.33105   0.76092   0.09507   0.00000  Uiso   1.00
C7     C     0.34275   0.62018   0.13494   0.00000  Uiso   1.00
C8     C     0.37614   0.67161   0.18480   0.00000  Uiso   1.00
C9     C     0.42822   0.68228   0.27241   0.00000  Uiso   1.00
C10    C     0.24396   0.88025   0.03449   0.00000  Uiso   1.00
C11    C     0.18244   0.83986   0.02344   0.00000  Uiso   1.00
C12    C     0.14251   0.99175   0.02231   0.00000  Uiso   1.00
C13    C     0.05938   0.18771   0.01586   0.00000  Uiso   1.00
C14    C     0.33394   0.07742   0.05536   0.00000  Uiso   1.00
C15    C     0.35862   0.98601   0.00526   0.00000  Uiso   1.00
C16    C     0.39762   0.07093   0.97150   0.00000  Uiso   1.00
C17    C     0.41499   0.96362   0.92776   0.00000  Uiso   1.00
C18    C     0.35196   0.94642   0.10465   0.00000  Uiso   1.00
C19    C     0.38533   0.99807   0.15446   0.00000  Uiso   1.00
C20    C     0.39708   0.85746   0.19440   0.00000  Uiso   1.00
C21    C     0.26487   0.06577   0.04407   0.00000  Uiso   1.00
C22    C     0.22502   0.21775   0.04296   0.00000  Uiso   1.00
C23    C     0.16345   0.17760   0.03191   0.00000  Uiso   1.00
H24    H     0.27918   0.59144   0.03026   0.00000  Uiso   1.00
H25    H     0.33885   0.54947   0.94458   0.00000  Uiso   1.00
H26    H     0.32656   0.47664   0.12752   0.00000  Uiso   1.00
H27    H     0.16628   0.69628   0.01603   0.00000  Uiso   1.00
H28    H     0.41425   0.58474   0.85384   0.00000  Uiso   1.00
H29    H     0.38832   0.43117   0.23957   0.00000  Uiso   1.00
H30    H     0.05032   0.89433   0.00448   0.00000  Uiso   1.00
H31    H     0.35022   0.22186   0.06282   0.00000  Uiso   1.00
H32    H     0.41379   0.21450   0.97893   0.00000  Uiso   1.00
H33    H     0.40150   0.14165   0.16186   0.00000  Uiso   1.00
H34    H     0.24122   0.36129   0.05038   0.00000  Uiso   1.00
H35    H     0.47507   0.12449   0.88171   0.00000  Uiso   1.00
H36    H     0.44914   0.97092   0.26745   0.00000  Uiso   1.00
H37    H     0.11115   0.43408   0.03235   0.00000  Uiso   1.00
O38    O     0.48521   0.83837   0.81201   0.00000  Uiso   1.00
O39    O     0.45118   0.63691   0.31808   0.00000  Uiso   1.00
O40    O     0.00775   0.24456   0.00964   0.00000  Uiso   1.00
N41    N     0.41983   0.71279   0.87190   0.00000  Uiso   1.00
N42    N     0.39559   0.56921   0.23254   0.00000  Uiso   1.00
N43    N     0.07960   0.00222   0.01276   0.00000  Uiso   1.00
N44    N     0.45255   0.00323   0.88690   0.00000  Uiso   1.00
N45    N     0.42832   0.85965   0.24754   0.00000  Uiso   1.00
N46    N     0.11233   0.29265   0.02776   0.00000  Uiso   1.00
C47    C     0.70455   0.73587   0.46228   0.00000  Uiso   1.00
C48    C     0.66228   0.80050   0.50432   0.00000  Uiso   1.00
C49    C     0.64497   0.69304   0.54802   0.00000  Uiso   1.00
C50    C     0.60596   0.77777   0.58183   0.00000  Uiso   1.00
C51    C     0.54348   0.84986   0.64855   0.00000  Uiso   1.00
C52    C     0.66895   0.76092   0.40493   0.00000  Uiso   1.00
C53    C     0.65725   0.62018   0.36506   0.00000  Uiso   1.00
C54    C     0.62386   0.67161   0.31520   0.00000  Uiso   1.00
C55    C     0.57178   0.68228   0.22759   0.00000  Uiso   1.00
C56    C     0.75604   0.88025   0.46551   0.00000  Uiso   1.00
C57    C     0.81756   0.83986   0.47656   0.00000  Uiso   1.00
C58    C     0.85749   0.99175   0.47769   0.00000  Uiso   1.00
C59    C     0.94062   0.18771   0.48414   0.00000  Uiso   1.00
C60    C     0.66606   0.07742   0.44464   0.00000  Uiso   1.00
C61    C     0.64138   0.98601   0.49474   0.00000  Uiso   1.00
C62    C     0.60238   0.07093   0.52850   0.00000  Uiso   1.00
C63    C     0.58501   0.96362   0.57224   0.00000  Uiso   1.00
C64    C     0.64804   0.94642   0.39535   0.00000  Uiso   1.00
C65    C     0.61467   0.99807   0.34554   0.00000  Uiso   1.00
C66    C     0.60292   0.85746   0.30560   0.00000  Uiso   1.00
C67    C     0.73513   0.06577   0.45593   0.00000  Uiso   1.00
C68    C     0.77498   0.21775   0.45704   0.00000  Uiso   1.00
C69    C     0.83655   0.17760   0.46809   0.00000  Uiso   1.00
H70    H     0.72082   0.59144   0.46974   0.00000  Uiso   1.00
H71    H     0.66115   0.54947   0.55542   0.00000  Uiso   1.00
H72    H     0.67344   0.47664   0.37248   0.00000  Uiso   1.00
H73    H     0.83372   0.69628   0.48397   0.00000  Uiso   1.00
H74    H     0.58575   0.58474   0.64616   0.00000  Uiso   1.00
H75    H     0.61168   0.43117   0.26043   0.00000  Uiso   1.00
H76    H     0.94968   0.89433   0.49552   0.00000  Uiso   1.00
H77    H     0.64978   0.22186   0.43718   0.00000  Uiso   1.00
H78    H     0.58621   0.21450   0.52107   0.00000  Uiso   1.00
H79    H     0.59850   0.14165   0.33814   0.00000  Uiso   1.00
H80    H     0.75878   0.36129   0.44962   0.00000  Uiso   1.00
H81    H     0.52493   0.12449   0.61829   0.00000  Uiso   1.00
H82    H     0.55086   0.97092   0.23255   0.00000  Uiso   1.00
H83    H     0.88885   0.43408   0.46765   0.00000  Uiso   1.00
O84    O     0.51479   0.83837   0.68799   0.00000  Uiso   1.00
O85    O     0.54882   0.63691   0.18192   0.00000  Uiso   1.00
O86    O     0.99225   0.24456   0.49036   0.00000  Uiso   1.00
N87    N     0.58017   0.71279   0.62810   0.00000  Uiso   1.00
N88    N     0.60441   0.56921   0.26746   0.00000  Uiso   1.00
N89    N     0.92040   0.00222   0.48724   0.00000  Uiso   1.00
N90    N     0.54745   0.00323   0.61310   0.00000  Uiso   1.00
N91    N     0.57168   0.85965   0.25246   0.00000  Uiso   1.00
N92    N     0.88767   0.29265   0.47224   0.00000  Uiso   1.00
C93    C     0.70455   0.26413   0.96228   0.00000  Uiso   1.00
C94    C     0.66228   0.19950   0.00432   0.00000  Uiso   1.00
C95    C     0.64497   0.30696   0.04802   0.00000  Uiso   1.00
C96    C     0.60596   0.22223   0.08183   0.00000  Uiso   1.00
C97    C     0.54348   0.15014   0.14855   0.00000  Uiso   1.00
C98    C     0.66895   0.23908   0.90493   0.00000  Uiso   1.00
C99    C     0.65725   0.37982   0.86506   0.00000  Uiso   1.00
C100   C     0.62386   0.32839   0.81520   0.00000  Uiso   1.00
C101   C     0.57178   0.31772   0.72759   0.00000  Uiso   1.00
C102   C     0.75604   0.11975   0.96551   0.00000  Uiso   1.00
C103   C     0.81756   0.16014   0.97656   0.00000  Uiso   1.00
C104   C     0.85749   0.00825   0.97769   0.00000  Uiso   1.00
C105   C     0.94062   0.81229   0.98414   0.00000  Uiso   1.00
C106   C     0.66606   0.92258   0.94464   0.00000  Uiso   1.00
C107   C     0.64138   0.01399   0.99474   0.00000  Uiso   1.00
C108   C     0.60238   0.92907   0.02850   0.00000  Uiso   1.00
C109   C     0.58501   0.03638   0.07224   0.00000  Uiso   1.00
C110   C     0.64804   0.05358   0.89535   0.00000  Uiso   1.00
C111   C     0.61467   0.00193   0.84554   0.00000  Uiso   1.00
C112   C     0.60292   0.14254   0.80560   0.00000  Uiso   1.00
C113   C     0.73513   0.93423   0.95593   0.00000  Uiso   1.00
C114   C     0.77498   0.78225   0.95704   0.00000  Uiso   1.00
C115   C     0.83655   0.82240   0.96809   0.00000  Uiso   1.00
H116   H     0.72082   0.40856   0.96974   0.00000  Uiso   1.00
H117   H     0.66115   0.45053   0.05542   0.00000  Uiso   1.00
H118   H     0.67344   0.52336   0.87248   0.00000  Uiso   1.00
H119   H     0.83372   0.30372   0.98397   0.00000  Uiso   1.00
H120   H     0.58575   0.41526   0.14616   0.00000  Uiso   1.00
H121   H     0.61168   0.56883   0.76043   0.00000  Uiso   1.00
H122   H     0.94968   0.10567   0.99552   0.00000  Uiso   1.00
H123   H     0.64978   0.77814   0.93718   0.00000  Uiso   1.00
H124   H     0.58621   0.78550   0.02107   0.00000  Uiso   1.00
H125   H     0.59850   0.85835   0.83814   0.00000  Uiso   1.00
H126   H     0.75878   0.63871   0.94962   0.00000  Uiso   1.00
H127   H     0.52493   0.87551   0.11829   0.00000  Uiso   1.00
H128   H     0.55086   0.02908   0.73255   0.00000  Uiso   1.00
H129   H     0.88885   0.56592   0.96765   0.00000  Uiso   1.00
O130   O     0.51479   0.16163   0.18799   0.00000  Uiso   1.00
O131   O     0.54882   0.36309   0.68192   0.00000  Uiso   1.00
O132   O     0.99225   0.75544   0.99036   0.00000  Uiso   1.00
N133   N     0.58017   0.28721   0.12810   0.00000  Uiso   1.00
N134   N     0.60441   0.43079   0.76746   0.00000  Uiso   1.00
N135   N     0.92040   0.99778   0.98724   0.00000  Uiso   1.00
N136   N     0.54745   0.99677   0.11310   0.00000  Uiso   1.00
N137   N     0.57168   0.14035   0.75246   0.00000  Uiso   1.00
N138   N     0.88767   0.70735   0.97224   0.00000  Uiso   1.00
C139   C     0.29545   0.26413   0.53772   0.00000  Uiso   1.00
C140   C     0.33772   0.19950   0.49568   0.00000  Uiso   1.00
C141   C     0.35503   0.30696   0.45198   0.00000  Uiso   1.00
C142   C     0.39404   0.22223   0.41817   0.00000  Uiso   1.00
C143   C     0.45652   0.15014   0.35145   0.00000  Uiso   1.00
C144   C     0.33105   0.23908   0.59507   0.00000  Uiso   1.00
C145   C     0.34275   0.37982   0.63494   0.00000  Uiso   1.00
C146   C     0.37614   0.32839   0.68480   0.00000  Uiso   1.00
C147   C     0.42822   0.31772   0.77241   0.00000  Uiso   1.00
C148   C     0.24396   0.11975   0.53449   0.00000  Uiso   1.00
C149   C     0.18244   0.16014   0.52344   0.00000  Uiso   1.00
C150   C     0.14251   0.00825   0.52231   0.00000  Uiso   1.00
C151   C     0.05938   0.81229   0.51586   0.00000  Uiso   1.00
C152   C     0.33394   0.92258   0.55536   0.00000  Uiso   1.00
C153   C     0.35862   0.01399   0.50526   0.00000  Uiso   1.00
C154   C     0.39762   0.92907   0.47150   0.00000  Uiso   1.00
C155   C     0.41499   0.03638   0.42776   0.00000  Uiso   1.00
C156   C     0.35196   0.05358   0.60465   0.00000  Uiso   1.00
C157   C     0.38533   0.00193   0.65446   0.00000  Uiso   1.00
C158   C     0.39708   0.14254   0.69440   0.00000  Uiso   1.00
C159   C     0.26487   0.93423   0.54407   0.00000  Uiso   1.00
C160   C     0.22502   0.78225   0.54296   0.00000  Uiso   1.00
C161   C     0.16345   0.82240   0.53191   0.00000  Uiso   1.00
H162   H     0.27918   0.40856   0.53026   0.00000  Uiso   1.00
H163   H     0.33885   0.45053   0.44458   0.00000  Uiso   1.00
H164   H     0.32656   0.52336   0.62752   0.00000  Uiso   1.00
H165   H     0.16628   0.30372   0.51603   0.00000  Uiso   1.00
H166   H     0.41425   0.41526   0.35384   0.00000  Uiso   1.00
H167   H     0.38832   0.56883   0.73957   0.00000  Uiso   1.00
H168   H     0.05032   0.10567   0.50448   0.00000  Uiso   1.00
H169   H     0.35022   0.77814   0.56282   0.00000  Uiso   1.00
H170   H     0.41379   0.78550   0.47893   0.00000  Uiso   1.00
H171   H     0.40150   0.85835   0.66186   0.00000  Uiso   1.00
H172   H     0.24122   0.63871   0.55038   0.00000  Uiso   1.00
H173   H     0.47507   0.87551   0.38171   0.00000  Uiso   1.00
H174   H     0.44914   0.02908   0.76745   0.00000  Uiso   1.00
H175   H     0.11115   0.56592   0.53235   0.00000  Uiso   1.00
O176   O     0.48521   0.16163   0.31201   0.00000  Uiso   1.00
O177   O     0.45118   0.36309   0.81808   0.00000  Uiso   1.00
O178   O     0.00775   0.75544   0.50964   0.00000  Uiso   1.00
N179   N     0.41983   0.28721   0.37190   0.00000  Uiso   1.00
N180   N     0.39559   0.43079   0.73254   0.00000  Uiso   1.00
N181   N     0.07960   0.99778   0.51276   0.00000  Uiso   1.00
N182   N     0.45255   0.99677   0.38690   0.00000  Uiso   1.00
N183   N     0.42832   0.14035   0.74754   0.00000  Uiso   1.00
N184   N     0.11233   0.70735   0.52776   0.00000  Uiso   1.00
