data_job_00762
_audit_creation_date              2018-12-19
_audit_creation_method            'Materials Studio'
_symmetry_space_group_name_H-M    'P1'
_symmetry_Int_Tables_number       1
_symmetry_cell_setting            triclinic
loop_
_symmetry_equiv_pos_as_xyz
  x,y,z
_cell_length_a                    11.9514
_cell_length_b                    11.9514
_cell_length_c                    29.7918
_cell_angle_alpha                 90.0000
_cell_angle_beta                  90.0000
_cell_angle_gamma                 90.0000
loop_
_atom_site_label
_atom_site_type_symbol
_atom_site_fract_x
_atom_site_fract_y
_atom_site_fract_z
_atom_site_U_iso_or_equiv
_atom_site_adp_type
_atom_site_occupancy
C1     C     0.83514   0.73765   0.73249   0.00000  Uiso   1.00
C2     C     0.77293   0.76734   0.68942   0.00000  Uiso   1.00
C3     C     0.81620   0.76051   0.64628   0.00000  Uiso   1.00
C4     C     0.74592   0.79149   0.61131   0.00000  Uiso   1.00
C5     C     0.66602   0.83210   0.54322   0.00000  Uiso   1.00
C6     C     0.83040   0.84188   0.76196   0.00000  Uiso   1.00
C7     C     0.92199   0.89770   0.77981   0.00000  Uiso   1.00
C8     C     0.90009   0.99142   0.80591   0.00000  Uiso   1.00
C9     C     0.90941   0.14770   0.85046   0.00000  Uiso   1.00
C10    C     0.76383   0.64976   0.75612   0.00000  Uiso   1.00
C11    C     0.79944   0.54406   0.76908   0.00000  Uiso   1.00
C12    C     0.72149   0.47604   0.79029   0.00000  Uiso   1.00
C13    C     0.62744   0.33403   0.82578   0.00000  Uiso   1.00
C14    C     0.63339   0.80481   0.74711   0.00000  Uiso   1.00
C15    C     0.66335   0.80382   0.69736   0.00000  Uiso   1.00
C16    C     0.59299   0.83481   0.66245   0.00000  Uiso   1.00
C17    C     0.63614   0.82803   0.61927   0.00000  Uiso   1.00
C18    C     0.72083   0.87836   0.76990   0.00000  Uiso   1.00
C19    C     0.69878   0.97201   0.79598   0.00000  Uiso   1.00
C20    C     0.79031   0.02796   0.81387   0.00000  Uiso   1.00
C21    C     0.65424   0.68624   0.76406   0.00000  Uiso   1.00
C22    C     0.57623   0.61837   0.78526   0.00000  Uiso   1.00
C23    C     0.61171   0.51258   0.79824   0.00000  Uiso   1.00
H24    H     0.92045   0.70925   0.72631   0.00000  Uiso   1.00
H25    H     0.90101   0.73228   0.64014   0.00000  Uiso   1.00
H26    H     0.00678   0.86945   0.77366   0.00000  Uiso   1.00
H27    H     0.88425   0.51586   0.76293   0.00000  Uiso   1.00
H28    H     0.83114   0.77394   0.54812   0.00000  Uiso   1.00
H29    H     0.05416   0.06314   0.82965   0.00000  Uiso   1.00
H30    H     0.79578   0.31754   0.80704   0.00000  Uiso   1.00
H31    H     0.54808   0.83321   0.75330   0.00000  Uiso   1.00
H32    H     0.50819   0.86304   0.66861   0.00000  Uiso   1.00
H33    H     0.61397   0.00021   0.80212   0.00000  Uiso   1.00
H34    H     0.49144   0.64662   0.79140   0.00000  Uiso   1.00
H35    H     0.51232   0.88008   0.57122   0.00000  Uiso   1.00
H36    H     0.73535   0.16927   0.85276   0.00000  Uiso   1.00
H37    H     0.47696   0.42367   0.83014   0.00000  Uiso   1.00
O38    O     0.65222   0.84443   0.50347   0.00000  Uiso   1.00
O39    O     0.94483   0.22383   0.87284   0.00000  Uiso   1.00
O40    O     0.60583   0.24562   0.84316   0.00000  Uiso   1.00
N41    N     0.76157   0.79481   0.56518   0.00000  Uiso   1.00
N42    N     0.97009   0.06520   0.82839   0.00000  Uiso   1.00
N43    N     0.72853   0.36813   0.80725   0.00000  Uiso   1.00
N44    N     0.59001   0.85191   0.57761   0.00000  Uiso   1.00
N45    N     0.79853   0.12231   0.84082   0.00000  Uiso   1.00
N46    N     0.55697   0.42524   0.81968   0.00000  Uiso   1.00
C47    C     0.16486   0.26235   0.23249   0.00000  Uiso   1.00
C48    C     0.22707   0.23266   0.18942   0.00000  Uiso   1.00
C49    C     0.18380   0.23949   0.14628   0.00000  Uiso   1.00
C50    C     0.25408   0.20851   0.11131   0.00000  Uiso   1.00
C51    C     0.33398   0.16790   0.04322   0.00000  Uiso   1.00
C52    C     0.16960   0.15812   0.26196   0.00000  Uiso   1.00
C53    C     0.07801   0.10230   0.27981   0.00000  Uiso   1.00
C54    C     0.09991   0.00858   0.30591   0.00000  Uiso   1.00
C55    C     0.09059   0.85230   0.35046   0.00000  Uiso   1.00
C56    C     0.23617   0.35024   0.25612   0.00000  Uiso   1.00
C57    C     0.20056   0.45594   0.26908   0.00000  Uiso   1.00
C58    C     0.27851   0.52396   0.29029   0.00000  Uiso   1.00
C59    C     0.37256   0.66597   0.32578   0.00000  Uiso   1.00
C60    C     0.36661   0.19519   0.24711   0.00000  Uiso   1.00
C61    C     0.33665   0.19618   0.19736   0.00000  Uiso   1.00
C62    C     0.40701   0.16519   0.16245   0.00000  Uiso   1.00
C63    C     0.36386   0.17197   0.11927   0.00000  Uiso   1.00
C64    C     0.27917   0.12164   0.26990   0.00000  Uiso   1.00
C65    C     0.30122   0.02799   0.29598   0.00000  Uiso   1.00
C66    C     0.20969   0.97204   0.31387   0.00000  Uiso   1.00
C67    C     0.34576   0.31376   0.26406   0.00000  Uiso   1.00
C68    C     0.42377   0.38163   0.28526   0.00000  Uiso   1.00
C69    C     0.38829   0.48742   0.29824   0.00000  Uiso   1.00
H70    H     0.07955   0.29075   0.22631   0.00000  Uiso   1.00
H71    H     0.09899   0.26772   0.14014   0.00000  Uiso   1.00
H72    H     0.99322   0.13055   0.27366   0.00000  Uiso   1.00
H73    H     0.11575   0.48414   0.26293   0.00000  Uiso   1.00
H74    H     0.16886   0.22606   0.04812   0.00000  Uiso   1.00
H75    H     0.94584   0.93686   0.32965   0.00000  Uiso   1.00
H76    H     0.20422   0.68246   0.30704   0.00000  Uiso   1.00
H77    H     0.45192   0.16679   0.25330   0.00000  Uiso   1.00
H78    H     0.49181   0.13696   0.16861   0.00000  Uiso   1.00
H79    H     0.38603   0.99979   0.30212   0.00000  Uiso   1.00
H80    H     0.50856   0.35338   0.29140   0.00000  Uiso   1.00
H81    H     0.48768   0.11992   0.07122   0.00000  Uiso   1.00
H82    H     0.26465   0.83073   0.35276   0.00000  Uiso   1.00
H83    H     0.52304   0.57633   0.33014   0.00000  Uiso   1.00
O84    O     0.34778   0.15557   0.00347   0.00000  Uiso   1.00
O85    O     0.05517   0.77617   0.37284   0.00000  Uiso   1.00
O86    O     0.39417   0.75438   0.34316   0.00000  Uiso   1.00
N87    N     0.23843   0.20519   0.06518   0.00000  Uiso   1.00
N88    N     0.02991   0.93480   0.32839   0.00000  Uiso   1.00
N89    N     0.27147   0.63187   0.30725   0.00000  Uiso   1.00
N90    N     0.40999   0.14809   0.07761   0.00000  Uiso   1.00
N91    N     0.20147   0.87769   0.34082   0.00000  Uiso   1.00
N92    N     0.44303   0.57476   0.31968   0.00000  Uiso   1.00
C93    C     0.76235   0.33514   0.48249   0.00000  Uiso   1.00
C94    C     0.73266   0.27293   0.43942   0.00000  Uiso   1.00
C95    C     0.73949   0.31620   0.39628   0.00000  Uiso   1.00
C96    C     0.70851   0.24592   0.36131   0.00000  Uiso   1.00
C97    C     0.66790   0.16602   0.29322   0.00000  Uiso   1.00
C98    C     0.65812   0.33040   0.51196   0.00000  Uiso   1.00
C99    C     0.60230   0.42199   0.52981   0.00000  Uiso   1.00
C100   C     0.50858   0.40009   0.55591   0.00000  Uiso   1.00
C101   C     0.35230   0.40941   0.60046   0.00000  Uiso   1.00
C102   C     0.85024   0.26383   0.50612   0.00000  Uiso   1.00
C103   C     0.95594   0.29944   0.51908   0.00000  Uiso   1.00
C104   C     0.02396   0.22149   0.54029   0.00000  Uiso   1.00
C105   C     0.16597   0.12744   0.57578   0.00000  Uiso   1.00
C106   C     0.69519   0.13339   0.49711   0.00000  Uiso   1.00
C107   C     0.69618   0.16335   0.44736   0.00000  Uiso   1.00
C108   C     0.66519   0.09299   0.41245   0.00000  Uiso   1.00
C109   C     0.67197   0.13614   0.36927   0.00000  Uiso   1.00
C110   C     0.62164   0.22083   0.51990   0.00000  Uiso   1.00
C111   C     0.52799   0.19878   0.54598   0.00000  Uiso   1.00
C112   C     0.47204   0.29031   0.56387   0.00000  Uiso   1.00
C113   C     0.81376   0.15424   0.51406   0.00000  Uiso   1.00
C114   C     0.88163   0.07623   0.53526   0.00000  Uiso   1.00
C115   C     0.98742   0.11171   0.54824   0.00000  Uiso   1.00
H116   H     0.79075   0.42045   0.47631   0.00000  Uiso   1.00
H117   H     0.76772   0.40101   0.39014   0.00000  Uiso   1.00
H118   H     0.63055   0.50678   0.52366   0.00000  Uiso   1.00
H119   H     0.98414   0.38425   0.51293   0.00000  Uiso   1.00
H120   H     0.72606   0.33114   0.29812   0.00000  Uiso   1.00
H121   H     0.43686   0.55416   0.57965   0.00000  Uiso   1.00
H122   H     0.18246   0.29578   0.55704   0.00000  Uiso   1.00
H123   H     0.66679   0.04808   0.50330   0.00000  Uiso   1.00
H124   H     0.63696   0.00819   0.41861   0.00000  Uiso   1.00
H125   H     0.49979   0.11397   0.55212   0.00000  Uiso   1.00
H126   H     0.85338   0.99144   0.54140   0.00000  Uiso   1.00
H127   H     0.61992   0.01232   0.32122   0.00000  Uiso   1.00
H128   H     0.33073   0.23535   0.60276   0.00000  Uiso   1.00
H129   H     0.07633   0.97696   0.58014   0.00000  Uiso   1.00
O130   O     0.65557   0.15222   0.25347   0.00000  Uiso   1.00
O131   O     0.27617   0.44483   0.62284   0.00000  Uiso   1.00
O132   O     0.25438   0.10583   0.59316   0.00000  Uiso   1.00
N133   N     0.70519   0.26157   0.31518   0.00000  Uiso   1.00
N134   N     0.43480   0.47009   0.57839   0.00000  Uiso   1.00
N135   N     0.13187   0.22853   0.55725   0.00000  Uiso   1.00
N136   N     0.64809   0.09001   0.32761   0.00000  Uiso   1.00
N137   N     0.37769   0.29853   0.59082   0.00000  Uiso   1.00
N138   N     0.07476   0.05697   0.56968   0.00000  Uiso   1.00
C139   C     0.23765   0.66486   0.98249   0.00000  Uiso   1.00
C140   C     0.26734   0.72707   0.93942   0.00000  Uiso   1.00
C141   C     0.26051   0.68380   0.89628   0.00000  Uiso   1.00
C142   C     0.29149   0.75408   0.86131   0.00000  Uiso   1.00
C143   C     0.33210   0.83398   0.79322   0.00000  Uiso   1.00
C144   C     0.34188   0.66960   0.01196   0.00000  Uiso   1.00
C145   C     0.39770   0.57801   0.02981   0.00000  Uiso   1.00
C146   C     0.49142   0.59991   0.05591   0.00000  Uiso   1.00
C147   C     0.64770   0.59059   0.10046   0.00000  Uiso   1.00
C148   C     0.14976   0.73617   0.00612   0.00000  Uiso   1.00
C149   C     0.04406   0.70056   0.01908   0.00000  Uiso   1.00
C150   C     0.97604   0.77851   0.04029   0.00000  Uiso   1.00
C151   C     0.83403   0.87256   0.07578   0.00000  Uiso   1.00
C152   C     0.30481   0.86661   0.99711   0.00000  Uiso   1.00
C153   C     0.30382   0.83665   0.94736   0.00000  Uiso   1.00
C154   C     0.33481   0.90701   0.91245   0.00000  Uiso   1.00
C155   C     0.32803   0.86386   0.86927   0.00000  Uiso   1.00
C156   C     0.37836   0.77917   0.01990   0.00000  Uiso   1.00
C157   C     0.47201   0.80122   0.04598   0.00000  Uiso   1.00
C158   C     0.52796   0.70969   0.06387   0.00000  Uiso   1.00
C159   C     0.18624   0.84576   0.01406   0.00000  Uiso   1.00
C160   C     0.11837   0.92377   0.03526   0.00000  Uiso   1.00
C161   C     0.01258   0.88829   0.04824   0.00000  Uiso   1.00
H162   H     0.20925   0.57955   0.97631   0.00000  Uiso   1.00
H163   H     0.23228   0.59899   0.89014   0.00000  Uiso   1.00
H164   H     0.36945   0.49322   0.02366   0.00000  Uiso   1.00
H165   H     0.01586   0.61575   0.01293   0.00000  Uiso   1.00
H166   H     0.27394   0.66886   0.79812   0.00000  Uiso   1.00
H167   H     0.56314   0.44584   0.07965   0.00000  Uiso   1.00
H168   H     0.81754   0.70422   0.05704   0.00000  Uiso   1.00
H169   H     0.33321   0.95192   0.00330   0.00000  Uiso   1.00
H170   H     0.36304   0.99181   0.91861   0.00000  Uiso   1.00
H171   H     0.50021   0.88603   0.05212   0.00000  Uiso   1.00
H172   H     0.14662   0.00856   0.04140   0.00000  Uiso   1.00
H173   H     0.38008   0.98768   0.82122   0.00000  Uiso   1.00
H174   H     0.66927   0.76465   0.10276   0.00000  Uiso   1.00
H175   H     0.92367   0.02304   0.08014   0.00000  Uiso   1.00
O176   O     0.34443   0.84778   0.75347   0.00000  Uiso   1.00
O177   O     0.72383   0.55517   0.12284   0.00000  Uiso   1.00
O178   O     0.74562   0.89417   0.09316   0.00000  Uiso   1.00
N179   N     0.29481   0.73843   0.81518   0.00000  Uiso   1.00
N180   N     0.56520   0.52991   0.07839   0.00000  Uiso   1.00
N181   N     0.86813   0.77147   0.05725   0.00000  Uiso   1.00
N182   N     0.35191   0.90999   0.82761   0.00000  Uiso   1.00
N183   N     0.62231   0.70147   0.09082   0.00000  Uiso   1.00
N184   N     0.92524   0.94303   0.06968   0.00000  Uiso   1.00
C185   C     0.66486   0.23765   0.01751   0.00000  Uiso   1.00
C186   C     0.72707   0.26734   0.06058   0.00000  Uiso   1.00
C187   C     0.68380   0.26051   0.10372   0.00000  Uiso   1.00
C188   C     0.75408   0.29149   0.13869   0.00000  Uiso   1.00
C189   C     0.83398   0.33210   0.20678   0.00000  Uiso   1.00
C190   C     0.66960   0.34188   0.98804   0.00000  Uiso   1.00
C191   C     0.57801   0.39770   0.97019   0.00000  Uiso   1.00
C192   C     0.59991   0.49142   0.94409   0.00000  Uiso   1.00
C193   C     0.59059   0.64770   0.89954   0.00000  Uiso   1.00
C194   C     0.73617   0.14976   0.99388   0.00000  Uiso   1.00
C195   C     0.70056   0.04406   0.98092   0.00000  Uiso   1.00
C196   C     0.77851   0.97604   0.95971   0.00000  Uiso   1.00
C197   C     0.87256   0.83403   0.92422   0.00000  Uiso   1.00
C198   C     0.86661   0.30481   0.00289   0.00000  Uiso   1.00
C199   C     0.83665   0.30382   0.05264   0.00000  Uiso   1.00
C200   C     0.90701   0.33481   0.08755   0.00000  Uiso   1.00
C201   C     0.86386   0.32803   0.13073   0.00000  Uiso   1.00
C202   C     0.77917   0.37836   0.98010   0.00000  Uiso   1.00
C203   C     0.80122   0.47201   0.95402   0.00000  Uiso   1.00
C204   C     0.70969   0.52796   0.93613   0.00000  Uiso   1.00
C205   C     0.84576   0.18624   0.98594   0.00000  Uiso   1.00
C206   C     0.92377   0.11837   0.96474   0.00000  Uiso   1.00
C207   C     0.88829   0.01258   0.95176   0.00000  Uiso   1.00
H208   H     0.57955   0.20925   0.02369   0.00000  Uiso   1.00
H209   H     0.59899   0.23228   0.10986   0.00000  Uiso   1.00
H210   H     0.49322   0.36945   0.97634   0.00000  Uiso   1.00
H211   H     0.61575   0.01586   0.98707   0.00000  Uiso   1.00
H212   H     0.66886   0.27394   0.20188   0.00000  Uiso   1.00
H213   H     0.44584   0.56314   0.92035   0.00000  Uiso   1.00
H214   H     0.70422   0.81754   0.94296   0.00000  Uiso   1.00
H215   H     0.95192   0.33321   0.99670   0.00000  Uiso   1.00
H216   H     0.99181   0.36304   0.08139   0.00000  Uiso   1.00
H217   H     0.88603   0.50021   0.94788   0.00000  Uiso   1.00
H218   H     0.00856   0.14662   0.95860   0.00000  Uiso   1.00
H219   H     0.98768   0.38008   0.17878   0.00000  Uiso   1.00
H220   H     0.76465   0.66927   0.89724   0.00000  Uiso   1.00
H221   H     0.02304   0.92367   0.91986   0.00000  Uiso   1.00
O222   O     0.84778   0.34443   0.24653   0.00000  Uiso   1.00
O223   O     0.55517   0.72383   0.87716   0.00000  Uiso   1.00
O224   O     0.89417   0.74562   0.90684   0.00000  Uiso   1.00
N225   N     0.73843   0.29481   0.18482   0.00000  Uiso   1.00
N226   N     0.52991   0.56520   0.92161   0.00000  Uiso   1.00
N227   N     0.77147   0.86813   0.94275   0.00000  Uiso   1.00
N228   N     0.90999   0.35191   0.17239   0.00000  Uiso   1.00
N229   N     0.70147   0.62231   0.90918   0.00000  Uiso   1.00
N230   N     0.94303   0.92524   0.93032   0.00000  Uiso   1.00
C231   C     0.33514   0.76235   0.51751   0.00000  Uiso   1.00
C232   C     0.27293   0.73266   0.56058   0.00000  Uiso   1.00
C233   C     0.31620   0.73949   0.60372   0.00000  Uiso   1.00
C234   C     0.24592   0.70851   0.63869   0.00000  Uiso   1.00
C235   C     0.16602   0.66790   0.70678   0.00000  Uiso   1.00
C236   C     0.33040   0.65812   0.48804   0.00000  Uiso   1.00
C237   C     0.42199   0.60230   0.47019   0.00000  Uiso   1.00
C238   C     0.40009   0.50858   0.44409   0.00000  Uiso   1.00
C239   C     0.40941   0.35230   0.39954   0.00000  Uiso   1.00
C240   C     0.26383   0.85024   0.49388   0.00000  Uiso   1.00
C241   C     0.29944   0.95594   0.48092   0.00000  Uiso   1.00
C242   C     0.22149   0.02396   0.45971   0.00000  Uiso   1.00
C243   C     0.12744   0.16597   0.42422   0.00000  Uiso   1.00
C244   C     0.13339   0.69519   0.50289   0.00000  Uiso   1.00
C245   C     0.16335   0.69618   0.55264   0.00000  Uiso   1.00
C246   C     0.09299   0.66519   0.58755   0.00000  Uiso   1.00
C247   C     0.13614   0.67197   0.63073   0.00000  Uiso   1.00
C248   C     0.22083   0.62164   0.48010   0.00000  Uiso   1.00
C249   C     0.19878   0.52799   0.45402   0.00000  Uiso   1.00
C250   C     0.29031   0.47204   0.43613   0.00000  Uiso   1.00
C251   C     0.15424   0.81376   0.48594   0.00000  Uiso   1.00
C252   C     0.07623   0.88163   0.46474   0.00000  Uiso   1.00
C253   C     0.11171   0.98742   0.45176   0.00000  Uiso   1.00
H254   H     0.42045   0.79075   0.52369   0.00000  Uiso   1.00
H255   H     0.40101   0.76772   0.60986   0.00000  Uiso   1.00
H256   H     0.50678   0.63055   0.47634   0.00000  Uiso   1.00
H257   H     0.38425   0.98414   0.48707   0.00000  Uiso   1.00
H258   H     0.33114   0.72606   0.70188   0.00000  Uiso   1.00
H259   H     0.55416   0.43686   0.42035   0.00000  Uiso   1.00
H260   H     0.29578   0.18246   0.44296   0.00000  Uiso   1.00
H261   H     0.04808   0.66679   0.49670   0.00000  Uiso   1.00
H262   H     0.00819   0.63696   0.58139   0.00000  Uiso   1.00
H263   H     0.11397   0.49979   0.44788   0.00000  Uiso   1.00
H264   H     0.99144   0.85338   0.45860   0.00000  Uiso   1.00
H265   H     0.01232   0.61992   0.67878   0.00000  Uiso   1.00
H266   H     0.23535   0.33073   0.39724   0.00000  Uiso   1.00
H267   H     0.97696   0.07633   0.41986   0.00000  Uiso   1.00
O268   O     0.15222   0.65557   0.74653   0.00000  Uiso   1.00
O269   O     0.44483   0.27617   0.37716   0.00000  Uiso   1.00
O270   O     0.10583   0.25438   0.40684   0.00000  Uiso   1.00
N271   N     0.26157   0.70519   0.68482   0.00000  Uiso   1.00
N272   N     0.47009   0.43480   0.42161   0.00000  Uiso   1.00
N273   N     0.22853   0.13187   0.44275   0.00000  Uiso   1.00
N274   N     0.09001   0.64809   0.67239   0.00000  Uiso   1.00
N275   N     0.29853   0.37769   0.40918   0.00000  Uiso   1.00
N276   N     0.05697   0.07476   0.43032   0.00000  Uiso   1.00
C277   C     0.73765   0.83514   0.26751   0.00000  Uiso   1.00
C278   C     0.76734   0.77293   0.31058   0.00000  Uiso   1.00
C279   C     0.76051   0.81620   0.35372   0.00000  Uiso   1.00
C280   C     0.79149   0.74592   0.38869   0.00000  Uiso   1.00
C281   C     0.83210   0.66602   0.45678   0.00000  Uiso   1.00
C282   C     0.84188   0.83040   0.23804   0.00000  Uiso   1.00
C283   C     0.89770   0.92199   0.22019   0.00000  Uiso   1.00
C284   C     0.99142   0.90009   0.19409   0.00000  Uiso   1.00
C285   C     0.14770   0.90941   0.14954   0.00000  Uiso   1.00
C286   C     0.64976   0.76383   0.24388   0.00000  Uiso   1.00
C287   C     0.54406   0.79944   0.23092   0.00000  Uiso   1.00
C288   C     0.47604   0.72149   0.20971   0.00000  Uiso   1.00
C289   C     0.33403   0.62744   0.17422   0.00000  Uiso   1.00
C290   C     0.80481   0.63339   0.25289   0.00000  Uiso   1.00
C291   C     0.80382   0.66335   0.30264   0.00000  Uiso   1.00
C292   C     0.83481   0.59299   0.33755   0.00000  Uiso   1.00
C293   C     0.82803   0.63614   0.38073   0.00000  Uiso   1.00
C294   C     0.87836   0.72083   0.23010   0.00000  Uiso   1.00
C295   C     0.97201   0.69878   0.20402   0.00000  Uiso   1.00
C296   C     0.02796   0.79031   0.18613   0.00000  Uiso   1.00
C297   C     0.68624   0.65424   0.23594   0.00000  Uiso   1.00
C298   C     0.61837   0.57623   0.21474   0.00000  Uiso   1.00
C299   C     0.51258   0.61171   0.20176   0.00000  Uiso   1.00
H300   H     0.70925   0.92045   0.27369   0.00000  Uiso   1.00
H301   H     0.73228   0.90101   0.35986   0.00000  Uiso   1.00
H302   H     0.86945   0.00678   0.22634   0.00000  Uiso   1.00
H303   H     0.51586   0.88425   0.23707   0.00000  Uiso   1.00
H304   H     0.77394   0.83114   0.45188   0.00000  Uiso   1.00
H305   H     0.06314   0.05416   0.17035   0.00000  Uiso   1.00
H306   H     0.31754   0.79578   0.19296   0.00000  Uiso   1.00
H307   H     0.83321   0.54808   0.24670   0.00000  Uiso   1.00
H308   H     0.86304   0.50819   0.33139   0.00000  Uiso   1.00
H309   H     0.00021   0.61397   0.19788   0.00000  Uiso   1.00
H310   H     0.64662   0.49144   0.20860   0.00000  Uiso   1.00
H311   H     0.88008   0.51232   0.42878   0.00000  Uiso   1.00
H312   H     0.16927   0.73535   0.14724   0.00000  Uiso   1.00
H313   H     0.42367   0.47696   0.16986   0.00000  Uiso   1.00
O314   O     0.84443   0.65222   0.49653   0.00000  Uiso   1.00
O315   O     0.22383   0.94483   0.12716   0.00000  Uiso   1.00
O316   O     0.24562   0.60583   0.15684   0.00000  Uiso   1.00
N317   N     0.79481   0.76157   0.43482   0.00000  Uiso   1.00
N318   N     0.06520   0.97009   0.17161   0.00000  Uiso   1.00
N319   N     0.36813   0.72853   0.19275   0.00000  Uiso   1.00
N320   N     0.85191   0.59001   0.42239   0.00000  Uiso   1.00
N321   N     0.12231   0.79853   0.15918   0.00000  Uiso   1.00
N322   N     0.42524   0.55697   0.18032   0.00000  Uiso   1.00
C323   C     0.26235   0.16486   0.76751   0.00000  Uiso   1.00
C324   C     0.23266   0.22707   0.81058   0.00000  Uiso   1.00
C325   C     0.23949   0.18380   0.85372   0.00000  Uiso   1.00
C326   C     0.20851   0.25408   0.88869   0.00000  Uiso   1.00
C327   C     0.16790   0.33398   0.95678   0.00000  Uiso   1.00
C328   C     0.15812   0.16960   0.73804   0.00000  Uiso   1.00
C329   C     0.10230   0.07801   0.72019   0.00000  Uiso   1.00
C330   C     0.00858   0.09991   0.69409   0.00000  Uiso   1.00
C331   C     0.85230   0.09059   0.64954   0.00000  Uiso   1.00
C332   C     0.35024   0.23617   0.74388   0.00000  Uiso   1.00
C333   C     0.45594   0.20056   0.73092   0.00000  Uiso   1.00
C334   C     0.52396   0.27851   0.70971   0.00000  Uiso   1.00
C335   C     0.66597   0.37256   0.67422   0.00000  Uiso   1.00
C336   C     0.19519   0.36661   0.75289   0.00000  Uiso   1.00
C337   C     0.19618   0.33665   0.80264   0.00000  Uiso   1.00
C338   C     0.16519   0.40701   0.83755   0.00000  Uiso   1.00
C339   C     0.17197   0.36386   0.88073   0.00000  Uiso   1.00
C340   C     0.12164   0.27917   0.73010   0.00000  Uiso   1.00
C341   C     0.02799   0.30122   0.70402   0.00000  Uiso   1.00
C342   C     0.97204   0.20969   0.68613   0.00000  Uiso   1.00
C343   C     0.31376   0.34576   0.73594   0.00000  Uiso   1.00
C344   C     0.38163   0.42377   0.71474   0.00000  Uiso   1.00
C345   C     0.48742   0.38829   0.70176   0.00000  Uiso   1.00
H346   H     0.29075   0.07955   0.77369   0.00000  Uiso   1.00
H347   H     0.26772   0.09899   0.85986   0.00000  Uiso   1.00
H348   H     0.13055   0.99322   0.72634   0.00000  Uiso   1.00
H349   H     0.48414   0.11575   0.73707   0.00000  Uiso   1.00
H350   H     0.22606   0.16886   0.95188   0.00000  Uiso   1.00
H351   H     0.93686   0.94584   0.67035   0.00000  Uiso   1.00
H352   H     0.68246   0.20422   0.69296   0.00000  Uiso   1.00
H353   H     0.16679   0.45192   0.74670   0.00000  Uiso   1.00
H354   H     0.13696   0.49181   0.83139   0.00000  Uiso   1.00
H355   H     0.99979   0.38603   0.69788   0.00000  Uiso   1.00
H356   H     0.35338   0.50856   0.70860   0.00000  Uiso   1.00
H357   H     0.11992   0.48768   0.92878   0.00000  Uiso   1.00
H358   H     0.83073   0.26465   0.64724   0.00000  Uiso   1.00
H359   H     0.57633   0.52304   0.66986   0.00000  Uiso   1.00
O360   O     0.15557   0.34778   0.99653   0.00000  Uiso   1.00
O361   O     0.77617   0.05517   0.62716   0.00000  Uiso   1.00
O362   O     0.75438   0.39417   0.65684   0.00000  Uiso   1.00
N363   N     0.20519   0.23843   0.93482   0.00000  Uiso   1.00
N364   N     0.93480   0.02991   0.67161   0.00000  Uiso   1.00
N365   N     0.63187   0.27147   0.69275   0.00000  Uiso   1.00
N366   N     0.14809   0.40999   0.92239   0.00000  Uiso   1.00
N367   N     0.87769   0.20147   0.65918   0.00000  Uiso   1.00
N368   N     0.57476   0.44303   0.68032   0.00000  Uiso   1.00
