data_job_01502
_audit_creation_date              2018-12-19
_audit_creation_method            'Materials Studio'
_symmetry_space_group_name_H-M    'P1'
_symmetry_Int_Tables_number       1
_symmetry_cell_setting            triclinic
loop_
_symmetry_equiv_pos_as_xyz
  x,y,z
_cell_length_a                    10.0110
_cell_length_b                    12.7948
_cell_length_c                    12.8960
_cell_angle_alpha                 63.3882
_cell_angle_beta                  96.7083
_cell_angle_gamma                 105.8955
loop_
_atom_site_label
_atom_site_type_symbol
_atom_site_fract_x
_atom_site_fract_y
_atom_site_fract_z
_atom_site_U_iso_or_equiv
_atom_site_adp_type
_atom_site_occupancy
C1     C     0.55033   0.62062   0.81321   0.00000  Uiso   1.00
C2     C     0.67238   0.72842   0.79817   0.00000  Uiso   1.00
C3     C     0.72642   0.76575   0.88362   0.00000  Uiso   1.00
C4     C     0.83826   0.86651   0.85256   0.00000  Uiso   1.00
C5     C     0.01926   0.02462   0.84629   0.00000  Uiso   1.00
C6     C     0.44467   0.67019   0.72140   0.00000  Uiso   1.00
C7     C     0.30723   0.65854   0.74231   0.00000  Uiso   1.00
C8     C     0.22738   0.71027   0.64661   0.00000  Uiso   1.00
C9     C     0.05481   0.77791   0.52115   0.00000  Uiso   1.00
C10    C     0.60421   0.54041   0.77813   0.00000  Uiso   1.00
C11    C     0.60089   0.41962   0.84673   0.00000  Uiso   1.00
C12    C     0.65533   0.36208   0.79878   0.00000  Uiso   1.00
C13    C     0.73048   0.22821   0.76140   0.00000  Uiso   1.00
C14    C     0.65287   0.73320   0.60608   0.00000  Uiso   1.00
C15    C     0.72807   0.78957   0.68565   0.00000  Uiso   1.00
C16    C     0.83987   0.89030   0.65445   0.00000  Uiso   1.00
C17    C     0.89406   0.92776   0.73985   0.00000  Uiso   1.00
C18    C     0.50035   0.73134   0.60889   0.00000  Uiso   1.00
C19    C     0.42068   0.78309   0.51314   0.00000  Uiso   1.00
C20    C     0.28317   0.77153   0.53390   0.00000  Uiso   1.00
C21    C     0.65991   0.60156   0.66562   0.00000  Uiso   1.00
C22    C     0.71435   0.54418   0.61755   0.00000  Uiso   1.00
C23    C     0.71113   0.42333   0.68607   0.00000  Uiso   1.00
H24    H     0.50696   0.57302   0.90080   0.00000  Uiso   1.00
H25    H     0.68328   0.71841   0.97068   0.00000  Uiso   1.00
H26    H     0.26416   0.61121   0.82938   0.00000  Uiso   1.00
H27    H     0.55778   0.37234   0.93378   0.00000  Uiso   1.00
H28    H     0.90329   0.90659   0.99852   0.00000  Uiso   1.00
H29    H     0.01954   0.68052   0.70059   0.00000  Uiso   1.00
H30    H     0.63869   0.17680   0.92074   0.00000  Uiso   1.00
H31    H     0.69623   0.78081   0.51848   0.00000  Uiso   1.00
H32    H     0.88295   0.93760   0.56738   0.00000  Uiso   1.00
H33    H     0.46382   0.83040   0.42609   0.00000  Uiso   1.00
H34    H     0.75744   0.59153   0.53049   0.00000  Uiso   1.00
H35    H     0.06534   0.08449   0.67119   0.00000  Uiso   1.00
H36    H     0.18158   0.85842   0.37326   0.00000  Uiso   1.00
H37    H     0.80074   0.35471   0.59341   0.00000  Uiso   1.00
O38    O     0.10370   0.09496   0.87391   0.00000  Uiso   1.00
O39    O     0.94424   0.79834   0.48304   0.00000  Uiso   1.00
O40    O     0.75656   0.13749   0.77187   0.00000  Uiso   1.00
N41    N     0.91582   0.92693   0.91478   0.00000  Uiso   1.00
N42    N     0.08957   0.71558   0.63623   0.00000  Uiso   1.00
N43    N     0.66840   0.24464   0.84205   0.00000  Uiso   1.00
N44    N     0.00302   0.02265   0.73864   0.00000  Uiso   1.00
N45    N     0.17677   0.81131   0.46010   0.00000  Uiso   1.00
N46    N     0.75560   0.34037   0.66591   0.00000  Uiso   1.00
C47    C     0.44967   0.37938   0.18679   0.00000  Uiso   1.00
C48    C     0.32762   0.27158   0.20183   0.00000  Uiso   1.00
C49    C     0.27358   0.23425   0.11638   0.00000  Uiso   1.00
C50    C     0.16174   0.13349   0.14744   0.00000  Uiso   1.00
C51    C     0.98074   0.97538   0.15371   0.00000  Uiso   1.00
C52    C     0.55533   0.32981   0.27860   0.00000  Uiso   1.00
C53    C     0.69277   0.34146   0.25769   0.00000  Uiso   1.00
C54    C     0.77262   0.28973   0.35339   0.00000  Uiso   1.00
C55    C     0.94519   0.22209   0.47885   0.00000  Uiso   1.00
C56    C     0.39579   0.45959   0.22187   0.00000  Uiso   1.00
C57    C     0.39911   0.58038   0.15327   0.00000  Uiso   1.00
C58    C     0.34467   0.63792   0.20122   0.00000  Uiso   1.00
C59    C     0.26952   0.77179   0.23860   0.00000  Uiso   1.00
C60    C     0.34713   0.26680   0.39392   0.00000  Uiso   1.00
C61    C     0.27193   0.21043   0.31435   0.00000  Uiso   1.00
C62    C     0.16013   0.10970   0.34555   0.00000  Uiso   1.00
C63    C     0.10594   0.07224   0.26015   0.00000  Uiso   1.00
C64    C     0.49965   0.26866   0.39111   0.00000  Uiso   1.00
C65    C     0.57932   0.21691   0.48686   0.00000  Uiso   1.00
C66    C     0.71683   0.22847   0.46610   0.00000  Uiso   1.00
C67    C     0.34009   0.39844   0.33438   0.00000  Uiso   1.00
C68    C     0.28565   0.45582   0.38245   0.00000  Uiso   1.00
C69    C     0.28887   0.57667   0.31393   0.00000  Uiso   1.00
H70    H     0.49304   0.42698   0.09920   0.00000  Uiso   1.00
H71    H     0.31672   0.28159   0.02932   0.00000  Uiso   1.00
H72    H     0.73584   0.38879   0.17062   0.00000  Uiso   1.00
H73    H     0.44222   0.62766   0.06622   0.00000  Uiso   1.00
H74    H     0.09671   0.09341   0.00148   0.00000  Uiso   1.00
H75    H     0.98046   0.31948   0.29941   0.00000  Uiso   1.00
H76    H     0.36131   0.82320   0.07926   0.00000  Uiso   1.00
H77    H     0.30377   0.21919   0.48152   0.00000  Uiso   1.00
H78    H     0.11705   0.06240   0.43262   0.00000  Uiso   1.00
H79    H     0.53618   0.16960   0.57391   0.00000  Uiso   1.00
H80    H     0.24256   0.40847   0.46951   0.00000  Uiso   1.00
H81    H     0.93466   0.91551   0.32881   0.00000  Uiso   1.00
H82    H     0.81842   0.14158   0.62674   0.00000  Uiso   1.00
H83    H     0.19926   0.64529   0.40659   0.00000  Uiso   1.00
O84    O     0.89630   0.90504   0.12609   0.00000  Uiso   1.00
O85    O     0.05576   0.20166   0.51696   0.00000  Uiso   1.00
O86    O     0.24344   0.86251   0.22813   0.00000  Uiso   1.00
N87    N     0.08418   0.07307   0.08522   0.00000  Uiso   1.00
N88    N     0.91043   0.28442   0.36377   0.00000  Uiso   1.00
N89    N     0.33160   0.75536   0.15795   0.00000  Uiso   1.00
N90    N     0.99698   0.97735   0.26136   0.00000  Uiso   1.00
N91    N     0.82323   0.18869   0.53990   0.00000  Uiso   1.00
N92    N     0.24440   0.65963   0.33409   0.00000  Uiso   1.00
