data_job_02181
_audit_creation_date              2018-12-19
_audit_creation_method            'Materials Studio'
_symmetry_space_group_name_H-M    'P1'
_symmetry_Int_Tables_number       1
_symmetry_cell_setting            triclinic
loop_
_symmetry_equiv_pos_as_xyz
  x,y,z
_cell_length_a                    11.8413
_cell_length_b                    19.4911
_cell_length_c                    11.5901
_cell_angle_alpha                 90.0000
_cell_angle_beta                  90.0000
_cell_angle_gamma                 90.0000
loop_
_atom_site_label
_atom_site_type_symbol
_atom_site_fract_x
_atom_site_fract_y
_atom_site_fract_z
_atom_site_U_iso_or_equiv
_atom_site_adp_type
_atom_site_occupancy
C1     C     0.27500   0.74397   0.00524   0.00000  Uiso   1.00
C2     C     0.19045   0.72312   0.91239   0.00000  Uiso   1.00
C3     C     0.18711   0.74831   0.80046   0.00000  Uiso   1.00
C4     C     0.10322   0.72275   0.72865   0.00000  Uiso   1.00
C5     C     0.98373   0.69784   0.57860   0.00000  Uiso   1.00
C6     C     0.20503   0.76921   0.10721   0.00000  Uiso   1.00
C7     C     0.21395   0.83315   0.15909   0.00000  Uiso   1.00
C8     C     0.14234   0.84639   0.25130   0.00000  Uiso   1.00
C9     C     0.04553   0.89302   0.40376   0.00000  Uiso   1.00
C10    C     0.33148   0.67779   0.04512   0.00000  Uiso   1.00
C11    C     0.44674   0.66487   0.04482   0.00000  Uiso   1.00
C12    C     0.48159   0.60114   0.08478   0.00000  Uiso   1.00
C13    C     0.58112   0.50583   0.14083   0.00000  Uiso   1.00
C14    C     0.13195   0.65377   0.07677   0.00000  Uiso   1.00
C15    C     0.11276   0.67412   0.95125   0.00000  Uiso   1.00
C16    C     0.02885   0.64851   0.87959   0.00000  Uiso   1.00
C17    C     0.02539   0.67366   0.76757   0.00000  Uiso   1.00
C18    C     0.12733   0.72021   0.14607   0.00000  Uiso   1.00
C19    C     0.05569   0.73335   0.23823   0.00000  Uiso   1.00
C20    C     0.06450   0.79730   0.29022   0.00000  Uiso   1.00
C21    C     0.25379   0.62879   0.08397   0.00000  Uiso   1.00
C22    C     0.28847   0.56507   0.12395   0.00000  Uiso   1.00
C23    C     0.40376   0.55206   0.12370   0.00000  Uiso   1.00
H24    H     0.33549   0.78212   0.97499   0.00000  Uiso   1.00
H25    H     0.24725   0.78623   0.77043   0.00000  Uiso   1.00
H26    H     0.27409   0.87106   0.12901   0.00000  Uiso   1.00
H27    H     0.50684   0.70280   0.01475   0.00000  Uiso   1.00
H28    H     0.11514   0.76921   0.56077   0.00000  Uiso   1.00
H29    H     0.17177   0.94805   0.31689   0.00000  Uiso   1.00
H30    H     0.66255   0.59325   0.07595   0.00000  Uiso   1.00
H31    H     0.07146   0.61562   0.10702   0.00000  Uiso   1.00
H32    H     0.96874   0.61060   0.90969   0.00000  Uiso   1.00
H33    H     0.99558   0.69542   0.26827   0.00000  Uiso   1.00
H34    H     0.22832   0.52717   0.15401   0.00000  Uiso   1.00
H35    H     0.88908   0.62665   0.67380   0.00000  Uiso   1.00
H36    H     0.94571   0.80550   0.42992   0.00000  Uiso   1.00
H37    H     0.43650   0.45070   0.18898   0.00000  Uiso   1.00
O38    O     0.93927   0.69765   0.48510   0.00000  Uiso   1.00
O39    O     0.01359   0.93228   0.47711   0.00000  Uiso   1.00
O40    O     0.65748   0.46679   0.16100   0.00000  Uiso   1.00
N41    N     0.07605   0.73634   0.61444   0.00000  Uiso   1.00
N42    N     0.12898   0.90355   0.32136   0.00000  Uiso   1.00
N43    N     0.58783   0.57185   0.09613   0.00000  Uiso   1.00
N44    N     0.95441   0.65963   0.67527   0.00000  Uiso   1.00
N45    N     0.00734   0.82684   0.38218   0.00000  Uiso   1.00
N46    N     0.46619   0.49514   0.15695   0.00000  Uiso   1.00
C47    C     0.22500   0.25603   0.50524   0.00000  Uiso   1.00
C48    C     0.30955   0.27688   0.41239   0.00000  Uiso   1.00
C49    C     0.31289   0.25169   0.30046   0.00000  Uiso   1.00
C50    C     0.39678   0.27725   0.22865   0.00000  Uiso   1.00
C51    C     0.51627   0.30216   0.07860   0.00000  Uiso   1.00
C52    C     0.29497   0.23079   0.60721   0.00000  Uiso   1.00
C53    C     0.28605   0.16685   0.65909   0.00000  Uiso   1.00
C54    C     0.35766   0.15361   0.75130   0.00000  Uiso   1.00
C55    C     0.45447   0.10698   0.90376   0.00000  Uiso   1.00
C56    C     0.16852   0.32221   0.54512   0.00000  Uiso   1.00
C57    C     0.05326   0.33513   0.54482   0.00000  Uiso   1.00
C58    C     0.01841   0.39886   0.58478   0.00000  Uiso   1.00
C59    C     0.91888   0.49417   0.64083   0.00000  Uiso   1.00
C60    C     0.36805   0.34623   0.57677   0.00000  Uiso   1.00
C61    C     0.38724   0.32588   0.45125   0.00000  Uiso   1.00
C62    C     0.47115   0.35149   0.37959   0.00000  Uiso   1.00
C63    C     0.47461   0.32634   0.26757   0.00000  Uiso   1.00
C64    C     0.37267   0.27979   0.64607   0.00000  Uiso   1.00
C65    C     0.44431   0.26665   0.73823   0.00000  Uiso   1.00
C66    C     0.43550   0.20270   0.79022   0.00000  Uiso   1.00
C67    C     0.24621   0.37121   0.58397   0.00000  Uiso   1.00
C68    C     0.21153   0.43493   0.62395   0.00000  Uiso   1.00
C69    C     0.09624   0.44794   0.62370   0.00000  Uiso   1.00
H70    H     0.16451   0.21788   0.47499   0.00000  Uiso   1.00
H71    H     0.25275   0.21377   0.27043   0.00000  Uiso   1.00
H72    H     0.22591   0.12894   0.62901   0.00000  Uiso   1.00
H73    H     0.99316   0.29720   0.51475   0.00000  Uiso   1.00
H74    H     0.38486   0.23079   0.06077   0.00000  Uiso   1.00
H75    H     0.32823   0.05195   0.81689   0.00000  Uiso   1.00
H76    H     0.83745   0.40675   0.57595   0.00000  Uiso   1.00
H77    H     0.42854   0.38438   0.60702   0.00000  Uiso   1.00
H78    H     0.53126   0.38940   0.40969   0.00000  Uiso   1.00
H79    H     0.50442   0.30458   0.76827   0.00000  Uiso   1.00
H80    H     0.27168   0.47283   0.65401   0.00000  Uiso   1.00
H81    H     0.61092   0.37335   0.17380   0.00000  Uiso   1.00
H82    H     0.55429   0.19450   0.92992   0.00000  Uiso   1.00
H83    H     0.06350   0.54930   0.68898   0.00000  Uiso   1.00
O84    O     0.56073   0.30235   0.98510   0.00000  Uiso   1.00
O85    O     0.48641   0.06772   0.97711   0.00000  Uiso   1.00
O86    O     0.84252   0.53321   0.66100   0.00000  Uiso   1.00
N87    N     0.42395   0.26366   0.11444   0.00000  Uiso   1.00
N88    N     0.37102   0.09645   0.82136   0.00000  Uiso   1.00
N89    N     0.91217   0.42815   0.59613   0.00000  Uiso   1.00
N90    N     0.54559   0.34037   0.17527   0.00000  Uiso   1.00
N91    N     0.49266   0.17316   0.88218   0.00000  Uiso   1.00
N92    N     0.03381   0.50486   0.65695   0.00000  Uiso   1.00
C93    C     0.72500   0.24397   0.49476   0.00000  Uiso   1.00
C94    C     0.80955   0.22312   0.58761   0.00000  Uiso   1.00
C95    C     0.81289   0.24831   0.69954   0.00000  Uiso   1.00
C96    C     0.89678   0.22275   0.77135   0.00000  Uiso   1.00
C97    C     0.01627   0.19784   0.92140   0.00000  Uiso   1.00
C98    C     0.79497   0.26921   0.39279   0.00000  Uiso   1.00
C99    C     0.78605   0.33315   0.34091   0.00000  Uiso   1.00
C100   C     0.85766   0.34639   0.24870   0.00000  Uiso   1.00
C101   C     0.95447   0.39302   0.09624   0.00000  Uiso   1.00
C102   C     0.66852   0.17779   0.45488   0.00000  Uiso   1.00
C103   C     0.55326   0.16487   0.45518   0.00000  Uiso   1.00
C104   C     0.51841   0.10114   0.41522   0.00000  Uiso   1.00
C105   C     0.41888   0.00583   0.35917   0.00000  Uiso   1.00
C106   C     0.86805   0.15377   0.42323   0.00000  Uiso   1.00
C107   C     0.88724   0.17412   0.54875   0.00000  Uiso   1.00
C108   C     0.97115   0.14851   0.62041   0.00000  Uiso   1.00
C109   C     0.97461   0.17366   0.73243   0.00000  Uiso   1.00
C110   C     0.87267   0.22021   0.35393   0.00000  Uiso   1.00
C111   C     0.94431   0.23335   0.26177   0.00000  Uiso   1.00
C112   C     0.93550   0.29730   0.20978   0.00000  Uiso   1.00
C113   C     0.74621   0.12879   0.41603   0.00000  Uiso   1.00
C114   C     0.71153   0.06507   0.37605   0.00000  Uiso   1.00
C115   C     0.59624   0.05206   0.37630   0.00000  Uiso   1.00
H116   H     0.66451   0.28212   0.52501   0.00000  Uiso   1.00
H117   H     0.75275   0.28623   0.72957   0.00000  Uiso   1.00
H118   H     0.72591   0.37106   0.37099   0.00000  Uiso   1.00
H119   H     0.49316   0.20280   0.48525   0.00000  Uiso   1.00
H120   H     0.88486   0.26921   0.93923   0.00000  Uiso   1.00
H121   H     0.82823   0.44805   0.18311   0.00000  Uiso   1.00
H122   H     0.33745   0.09325   0.42405   0.00000  Uiso   1.00
H123   H     0.92854   0.11562   0.39298   0.00000  Uiso   1.00
H124   H     0.03126   0.11060   0.59031   0.00000  Uiso   1.00
H125   H     0.00442   0.19542   0.23173   0.00000  Uiso   1.00
H126   H     0.77168   0.02717   0.34599   0.00000  Uiso   1.00
H127   H     0.11092   0.12665   0.82620   0.00000  Uiso   1.00
H128   H     0.05429   0.30550   0.07008   0.00000  Uiso   1.00
H129   H     0.56350   0.95070   0.31102   0.00000  Uiso   1.00
O130   O     0.06073   0.19765   0.01490   0.00000  Uiso   1.00
O131   O     0.98641   0.43228   0.02289   0.00000  Uiso   1.00
O132   O     0.34252   0.96679   0.33900   0.00000  Uiso   1.00
N133   N     0.92395   0.23634   0.88556   0.00000  Uiso   1.00
N134   N     0.87102   0.40355   0.17864   0.00000  Uiso   1.00
N135   N     0.41217   0.07185   0.40387   0.00000  Uiso   1.00
N136   N     0.04559   0.15963   0.82473   0.00000  Uiso   1.00
N137   N     0.99266   0.32684   0.11782   0.00000  Uiso   1.00
N138   N     0.53381   0.99514   0.34305   0.00000  Uiso   1.00
C139   C     0.77500   0.75603   0.99476   0.00000  Uiso   1.00
C140   C     0.69045   0.77688   0.08761   0.00000  Uiso   1.00
C141   C     0.68711   0.75169   0.19954   0.00000  Uiso   1.00
C142   C     0.60322   0.77725   0.27135   0.00000  Uiso   1.00
C143   C     0.48373   0.80216   0.42140   0.00000  Uiso   1.00
C144   C     0.70503   0.73079   0.89279   0.00000  Uiso   1.00
C145   C     0.71395   0.66685   0.84091   0.00000  Uiso   1.00
C146   C     0.64234   0.65361   0.74870   0.00000  Uiso   1.00
C147   C     0.54553   0.60698   0.59624   0.00000  Uiso   1.00
C148   C     0.83148   0.82221   0.95488   0.00000  Uiso   1.00
C149   C     0.94674   0.83513   0.95518   0.00000  Uiso   1.00
C150   C     0.98159   0.89886   0.91522   0.00000  Uiso   1.00
C151   C     0.08112   0.99417   0.85917   0.00000  Uiso   1.00
C152   C     0.63195   0.84623   0.92323   0.00000  Uiso   1.00
C153   C     0.61276   0.82588   0.04875   0.00000  Uiso   1.00
C154   C     0.52885   0.85149   0.12041   0.00000  Uiso   1.00
C155   C     0.52539   0.82634   0.23243   0.00000  Uiso   1.00
C156   C     0.62733   0.77979   0.85393   0.00000  Uiso   1.00
C157   C     0.55569   0.76665   0.76177   0.00000  Uiso   1.00
C158   C     0.56450   0.70270   0.70978   0.00000  Uiso   1.00
C159   C     0.75379   0.87121   0.91603   0.00000  Uiso   1.00
C160   C     0.78847   0.93493   0.87605   0.00000  Uiso   1.00
C161   C     0.90376   0.94794   0.87630   0.00000  Uiso   1.00
H162   H     0.83549   0.71788   0.02501   0.00000  Uiso   1.00
H163   H     0.74725   0.71377   0.22957   0.00000  Uiso   1.00
H164   H     0.77409   0.62894   0.87099   0.00000  Uiso   1.00
H165   H     0.00684   0.79720   0.98525   0.00000  Uiso   1.00
H166   H     0.61514   0.73079   0.43923   0.00000  Uiso   1.00
H167   H     0.67177   0.55195   0.68311   0.00000  Uiso   1.00
H168   H     0.16255   0.90675   0.92405   0.00000  Uiso   1.00
H169   H     0.57146   0.88438   0.89298   0.00000  Uiso   1.00
H170   H     0.46874   0.88940   0.09031   0.00000  Uiso   1.00
H171   H     0.49558   0.80458   0.73173   0.00000  Uiso   1.00
H172   H     0.72832   0.97283   0.84599   0.00000  Uiso   1.00
H173   H     0.38908   0.87335   0.32620   0.00000  Uiso   1.00
H174   H     0.44571   0.69450   0.57008   0.00000  Uiso   1.00
H175   H     0.93650   0.04930   0.81102   0.00000  Uiso   1.00
O176   O     0.43927   0.80235   0.51490   0.00000  Uiso   1.00
O177   O     0.51359   0.56772   0.52289   0.00000  Uiso   1.00
O178   O     0.15748   0.03321   0.83900   0.00000  Uiso   1.00
N179   N     0.57605   0.76366   0.38556   0.00000  Uiso   1.00
N180   N     0.62898   0.59645   0.67864   0.00000  Uiso   1.00
N181   N     0.08783   0.92815   0.90387   0.00000  Uiso   1.00
N182   N     0.45441   0.84037   0.32473   0.00000  Uiso   1.00
N183   N     0.50734   0.67316   0.61782   0.00000  Uiso   1.00
N184   N     0.96619   0.00486   0.84305   0.00000  Uiso   1.00
