data_job_07030
_audit_creation_date              2018-12-19
_audit_creation_method            'Materials Studio'
_symmetry_space_group_name_H-M    'P1'
_symmetry_Int_Tables_number       1
_symmetry_cell_setting            triclinic
loop_
_symmetry_equiv_pos_as_xyz
  x,y,z
_cell_length_a                    24.1422
_cell_length_b                    28.5471
_cell_length_c                    28.7490
_cell_angle_alpha                 116.5442
_cell_angle_beta                  103.2667
_cell_angle_gamma                 71.1870
loop_
_atom_site_label
_atom_site_type_symbol
_atom_site_fract_x
_atom_site_fract_y
_atom_site_fract_z
_atom_site_U_iso_or_equiv
_atom_site_adp_type
_atom_site_occupancy
C1     C     0.17762   0.18920   0.11315   0.00000  Uiso   1.00
C2     C     0.16874   0.23353   0.09430   0.00000  Uiso   1.00
C3     C     0.17792   0.22542   0.04504   0.00000  Uiso   1.00
C4     C     0.16733   0.27125   0.03544   0.00000  Uiso   1.00
C5     C     0.15647   0.33216   0.00036   0.00000  Uiso   1.00
C6     C     0.22096   0.20180   0.16221   0.00000  Uiso   1.00
C7     C     0.27405   0.16702   0.17005   0.00000  Uiso   1.00
C8     C     0.30741   0.18614   0.21762   0.00000  Uiso   1.00
C9     C     0.37760   0.19778   0.28798   0.00000  Uiso   1.00
C10    C     0.11909   0.19792   0.13127   0.00000  Uiso   1.00
C11    C     0.08653   0.15987   0.11312   0.00000  Uiso   1.00
C12    C     0.03414   0.17571   0.13465   0.00000  Uiso   1.00
C13    C     0.94617   0.18133   0.15698   0.00000  Uiso   1.00
C14    C     0.14248   0.28500   0.18368   0.00000  Uiso   1.00
C15    C     0.14966   0.28556   0.13261   0.00000  Uiso   1.00
C16    C     0.13905   0.33141   0.12308   0.00000  Uiso   1.00
C17    C     0.14821   0.32338   0.07382   0.00000  Uiso   1.00
C18    C     0.20188   0.25384   0.20052   0.00000  Uiso   1.00
C19    C     0.23517   0.27301   0.24809   0.00000  Uiso   1.00
C20    C     0.28829   0.23826   0.25600   0.00000  Uiso   1.00
C21    C     0.10001   0.24996   0.16958   0.00000  Uiso   1.00
C22    C     0.04766   0.26586   0.19115   0.00000  Uiso   1.00
C23    C     0.01502   0.22784   0.17303   0.00000  Uiso   1.00
H24    H     0.19249   0.14869   0.08332   0.00000  Uiso   1.00
H25    H     0.19270   0.18514   0.01541   0.00000  Uiso   1.00
H26    H     0.28880   0.12675   0.14040   0.00000  Uiso   1.00
H27    H     0.10132   0.11960   0.08347   0.00000  Uiso   1.00
H28    H     0.18454   0.24851   0.95701   0.00000  Uiso   1.00
H29    H     0.38717   0.12537   0.22057   0.00000  Uiso   1.00
H30    H     0.99182   0.11031   0.10052   0.00000  Uiso   1.00
H31    H     0.12762   0.32551   0.21351   0.00000  Uiso   1.00
H32    H     0.12428   0.37168   0.15274   0.00000  Uiso   1.00
H33    H     0.22038   0.31328   0.27773   0.00000  Uiso   1.00
H34    H     0.03290   0.30613   0.22080   0.00000  Uiso   1.00
H35    H     0.12901   0.39991   0.06848   0.00000  Uiso   1.00
H36    H     0.33164   0.27677   0.33203   0.00000  Uiso   1.00
H37    H     0.93629   0.26170   0.21199   0.00000  Uiso   1.00
O38    O     0.15576   0.35139   0.97042   0.00000  Uiso   1.00
O39    O     0.42160   0.18983   0.31620   0.00000  Uiso   1.00
O40    O     0.90291   0.17006   0.15870   0.00000  Uiso   1.00
N41    N     0.17192   0.27781   0.99158   0.00000  Uiso   1.00
N42    N     0.36137   0.16268   0.23799   0.00000  Uiso   1.00
N43    N     0.99176   0.14859   0.12577   0.00000  Uiso   1.00
N44    N     0.14204   0.35927   0.05156   0.00000  Uiso   1.00
N45    N     0.33149   0.24415   0.29797   0.00000  Uiso   1.00
N46    N     0.96188   0.23006   0.18574   0.00000  Uiso   1.00
C47    C     0.69067   0.07532   0.88399   0.00000  Uiso   1.00
C48    C     0.75332   0.05829   0.90732   0.00000  Uiso   1.00
C49    C     0.80091   0.02394   0.87921   0.00000  Uiso   1.00
C50    C     0.85460   0.01335   0.90780   0.00000  Uiso   1.00
C51    C     0.95098   0.98339   0.93570   0.00000  Uiso   1.00
C52    C     0.65175   0.05962   0.90671   0.00000  Uiso   1.00
C53    C     0.61393   0.02640   0.87808   0.00000  Uiso   1.00
C54    C     0.58212   0.01694   0.90616   0.00000  Uiso   1.00
C55    C     0.52078   0.98908   0.93311   0.00000  Uiso   1.00
C56    C     0.67429   0.13701   0.90699   0.00000  Uiso   1.00
C57    C     0.65542   0.16886   0.87860   0.00000  Uiso   1.00
C58    C     0.64258   0.22456   0.90691   0.00000  Uiso   1.00
C59    C     0.61625   0.31686   0.93429   0.00000  Uiso   1.00
C60    C     0.70140   0.11759   0.98475   0.00000  Uiso   1.00
C61    C     0.75914   0.08125   0.96205   0.00000  Uiso   1.00
C62    C     0.81278   0.07071   0.99069   0.00000  Uiso   1.00
C63    C     0.86044   0.03635   0.96263   0.00000  Uiso   1.00
C64    C     0.65757   0.08258   0.96144   0.00000  Uiso   1.00
C65    C     0.62580   0.07317   0.98956   0.00000  Uiso   1.00
C66    C     0.58795   0.03994   0.96099   0.00000  Uiso   1.00
C67    C     0.68012   0.15997   0.96172   0.00000  Uiso   1.00
C68    C     0.66730   0.21563   0.99008   0.00000  Uiso   1.00
C69    C     0.64841   0.24756   0.96174   0.00000  Uiso   1.00
H70    H     0.68613   0.05744   0.84138   0.00000  Uiso   1.00
H71    H     0.79638   0.00617   0.83685   0.00000  Uiso   1.00
H72    H     0.60943   0.00864   0.83573   0.00000  Uiso   1.00
H73    H     0.65092   0.15108   0.83624   0.00000  Uiso   1.00
H74    H     0.92117   0.95945   0.85597   0.00000  Uiso   1.00
H75    H     0.52696   0.96466   0.85360   0.00000  Uiso   1.00
H76    H     0.61445   0.26502   0.85469   0.00000  Uiso   1.00
H77    H     0.70593   0.13546   0.02736   0.00000  Uiso   1.00
H78    H     0.81727   0.08848   0.03304   0.00000  Uiso   1.00
H79    H     0.63032   0.09094   0.03192   0.00000  Uiso   1.00
H80    H     0.67181   0.23338   0.03243   0.00000  Uiso   1.00
H81    H     0.93813   0.02624   0.01521   0.00000  Uiso   1.00
H82    H     0.54392   0.03146   0.01283   0.00000  Uiso   1.00
H83    H     0.63141   0.33182   0.01392   0.00000  Uiso   1.00
O84    O     0.00254   0.96051   0.93597   0.00000  Uiso   1.00
O85    O     0.48534   0.96736   0.93286   0.00000  Uiso   1.00
O86    O     0.60012   0.36143   0.93428   0.00000  Uiso   1.00
N87    N     0.90989   0.98162   0.89267   0.00000  Uiso   1.00
N88    N     0.54133   0.98649   0.89045   0.00000  Uiso   1.00
N89    N     0.62311   0.26731   0.89146   0.00000  Uiso   1.00
N90    N     0.91902   0.01757   0.97835   0.00000  Uiso   1.00
N91    N     0.55046   0.02243   0.97613   0.00000  Uiso   1.00
N92    N     0.63224   0.30325   0.97715   0.00000  Uiso   1.00
C93    C     0.86633   0.40489   0.83859   0.00000  Uiso   1.00
C94    C     0.81290   0.38848   0.84030   0.00000  Uiso   1.00
C95    C     0.80173   0.33790   0.81114   0.00000  Uiso   1.00
C96    C     0.75041   0.33098   0.81831   0.00000  Uiso   1.00
C97    C     0.67332   0.29908   0.81561   0.00000  Uiso   1.00
C98    C     0.84213   0.45419   0.82510   0.00000  Uiso   1.00
C99    C     0.85554   0.45886   0.78318   0.00000  Uiso   1.00
C100   C     0.82884   0.50726   0.77756   0.00000  Uiso   1.00
C101   C     0.79717   0.57740   0.75129   0.00000  Uiso   1.00
C102   C     0.89513   0.42522   0.89461   0.00000  Uiso   1.00
C103   C     0.95310   0.40555   0.91113   0.00000  Uiso   1.00
C104   C     0.97102   0.42958   0.96404   0.00000  Uiso   1.00
C105   C     0.02163   0.45474   0.04569   0.00000  Uiso   1.00
C106   C     0.79508   0.48254   0.90317   0.00000  Uiso   1.00
C107   C     0.77420   0.43065   0.87537   0.00000  Uiso   1.00
C108   C     0.72289   0.42381   0.88259   0.00000  Uiso   1.00
C109   C     0.71164   0.37323   0.85345   0.00000  Uiso   1.00
C110   C     0.80343   0.49636   0.86018   0.00000  Uiso   1.00
C111   C     0.77671   0.54477   0.85462   0.00000  Uiso   1.00
C112   C     0.79007   0.54951   0.81270   0.00000  Uiso   1.00
C113   C     0.85643   0.46740   0.92969   0.00000  Uiso   1.00
C114   C     0.87426   0.49146   0.98258   0.00000  Uiso   1.00
C115   C     0.93225   0.47183   0.99918   0.00000  Uiso   1.00
H116   H     0.89646   0.37206   0.81128   0.00000  Uiso   1.00
H117   H     0.83169   0.30527   0.78399   0.00000  Uiso   1.00
H118   H     0.88550   0.42622   0.75604   0.00000  Uiso   1.00
H119   H     0.98304   0.37292   0.88398   0.00000  Uiso   1.00
H120   H     0.74279   0.24983   0.76920   0.00000  Uiso   1.00
H121   H     0.85627   0.50486   0.71027   0.00000  Uiso   1.00
H122   H     0.06196   0.39246   0.98004   0.00000  Uiso   1.00
H123   H     0.76495   0.51538   0.93048   0.00000  Uiso   1.00
H124   H     0.69295   0.45645   0.90973   0.00000  Uiso   1.00
H125   H     0.74676   0.57740   0.88178   0.00000  Uiso   1.00
H126   H     0.84430   0.52409   0.00971   0.00000  Uiso   1.00
H127   H     0.63018   0.37253   0.87125   0.00000  Uiso   1.00
H128   H     0.74367   0.62756   0.81232   0.00000  Uiso   1.00
H129   H     0.94935   0.51516   0.08210   0.00000  Uiso   1.00
O130   O     0.64149   0.26984   0.80442   0.00000  Uiso   1.00
O131   O     0.79038   0.60443   0.72711   0.00000  Uiso   1.00
O132   O     0.06023   0.45696   0.08105   0.00000  Uiso   1.00
N133   N     0.72617   0.28679   0.79607   0.00000  Uiso   1.00
N134   N     0.83226   0.52523   0.74097   0.00000  Uiso   1.00
N135   N     0.02457   0.42015   0.99319   0.00000  Uiso   1.00
N136   N     0.66558   0.35282   0.85099   0.00000  Uiso   1.00
N137   N     0.77167   0.59125   0.79588   0.00000  Uiso   1.00
N138   N     0.96398   0.48618   0.04810   0.00000  Uiso   1.00
C139   C     0.40065   0.69008   0.73430   0.00000  Uiso   1.00
C140   C     0.42914   0.65965   0.76939   0.00000  Uiso   1.00
C141   C     0.46394   0.60693   0.75355   0.00000  Uiso   1.00
C142   C     0.48590   0.58640   0.79160   0.00000  Uiso   1.00
C143   C     0.53205   0.53442   0.83819   0.00000  Uiso   1.00
C144   C     0.42217   0.74158   0.75900   0.00000  Uiso   1.00
C145   C     0.45110   0.75775   0.73442   0.00000  Uiso   1.00
C146   C     0.46719   0.80619   0.76372   0.00000  Uiso   1.00
C147   C     0.50248   0.88143   0.79416   0.00000  Uiso   1.00
C148   C     0.33497   0.70828   0.74011   0.00000  Uiso   1.00
C149   C     0.29057   0.69647   0.69964   0.00000  Uiso   1.00
C150   C     0.23323   0.71689   0.71303   0.00000  Uiso   1.00
C151   C     0.13313   0.74043   0.71414   0.00000  Uiso   1.00
C152   C     0.37776   0.74738   0.83004   0.00000  Uiso   1.00
C153   C     0.41671   0.69077   0.82139   0.00000  Uiso   1.00
C154   C     0.43862   0.67031   0.85948   0.00000  Uiso   1.00
C155   C     0.47344   0.61757   0.84370   0.00000  Uiso   1.00
C156   C     0.40974   0.77270   0.81100   0.00000  Uiso   1.00
C157   C     0.42578   0.82113   0.84034   0.00000  Uiso   1.00
C158   C     0.45473   0.83736   0.81582   0.00000  Uiso   1.00
C159   C     0.32253   0.73940   0.79211   0.00000  Uiso   1.00
C160   C     0.26525   0.75985   0.80557   0.00000  Uiso   1.00
C161   C     0.22078   0.74806   0.76513   0.00000  Uiso   1.00
H162   H     0.41033   0.66586   0.69381   0.00000  Uiso   1.00
H163   H     0.47356   0.58286   0.71331   0.00000  Uiso   1.00
H164   H     0.46071   0.73366   0.69418   0.00000  Uiso   1.00
H165   H     0.30021   0.67239   0.65940   0.00000  Uiso   1.00
H166   H     0.53819   0.50457   0.75786   0.00000  Uiso   1.00
H167   H     0.51109   0.82255   0.71751   0.00000  Uiso   1.00
H168   H     0.17264   0.69334   0.64419   0.00000  Uiso   1.00
H169   H     0.36808   0.77160   0.87052   0.00000  Uiso   1.00
H170   H     0.42899   0.69440   0.89972   0.00000  Uiso   1.00
H171   H     0.41615   0.84520   0.88058   0.00000  Uiso   1.00
H172   H     0.25565   0.78393   0.84581   0.00000  Uiso   1.00
H173   H     0.50202   0.59511   0.90916   0.00000  Uiso   1.00
H174   H     0.47492   0.91308   0.86881   0.00000  Uiso   1.00
H175   H     0.13647   0.78387   0.79548   0.00000  Uiso   1.00
O176   O     0.56095   0.49716   0.84953   0.00000  Uiso   1.00
O177   O     0.52538   0.91432   0.79659   0.00000  Uiso   1.00
O178   O     0.08135   0.74481   0.70039   0.00000  Uiso   1.00
N179   N     0.52131   0.53647   0.78946   0.00000  Uiso   1.00
N180   N     0.49598   0.83375   0.75174   0.00000  Uiso   1.00
N181   N     0.17955   0.71297   0.68318   0.00000  Uiso   1.00
N182   N     0.50184   0.58519   0.87087   0.00000  Uiso   1.00
N183   N     0.47652   0.88247   0.83315   0.00000  Uiso   1.00
N184   N     0.16009   0.76168   0.76459   0.00000  Uiso   1.00
C185   C     0.99258   0.46722   0.61039   0.00000  Uiso   1.00
C186   C     0.01572   0.51266   0.61401   0.00000  Uiso   1.00
C187   C     0.06145   0.50618   0.58819   0.00000  Uiso   1.00
C188   C     0.07600   0.55281   0.59664   0.00000  Uiso   1.00
C189   C     0.11650   0.61557   0.59720   0.00000  Uiso   1.00
C190   C     0.92705   0.48086   0.59261   0.00000  Uiso   1.00
C191   C     0.89821   0.44764   0.54879   0.00000  Uiso   1.00
C192   C     0.83812   0.46750   0.53923   0.00000  Uiso   1.00
C193   C     0.74094   0.48088   0.50659   0.00000  Uiso   1.00
C194   C     0.99695   0.47279   0.66631   0.00000  Uiso   1.00
C195   C     0.02689   0.43278   0.68446   0.00000  Uiso   1.00
C196   C     0.02564   0.44584   0.73695   0.00000  Uiso   1.00
C197   C     0.03700   0.44669   0.81874   0.00000  Uiso   1.00
C198   C     0.93711   0.56155   0.67133   0.00000  Uiso   1.00
C199   C     0.98559   0.56389   0.64711   0.00000  Uiso   1.00
C200   C     0.00008   0.61054   0.65561   0.00000  Uiso   1.00
C201   C     0.04582   0.60414   0.62980   0.00000  Uiso   1.00
C202   C     0.89692   0.53209   0.62571   0.00000  Uiso   1.00
C203   C     0.83685   0.55200   0.61621   0.00000  Uiso   1.00
C204   C     0.80793   0.51883   0.57239   0.00000  Uiso   1.00
C205   C     0.96683   0.52402   0.69941   0.00000  Uiso   1.00
C206   C     0.96553   0.53715   0.75188   0.00000  Uiso   1.00
C207   C     0.99546   0.49717   0.77011   0.00000  Uiso   1.00
H208   H     0.01603   0.42734   0.58462   0.00000  Uiso   1.00
H209   H     0.08475   0.46653   0.56257   0.00000  Uiso   1.00
H210   H     0.92154   0.40800   0.52319   0.00000  Uiso   1.00
H211   H     0.05020   0.39314   0.65883   0.00000  Uiso   1.00
H212   H     0.14763   0.53257   0.55271   0.00000  Uiso   1.00
H213   H     0.80349   0.40915   0.46967   0.00000  Uiso   1.00
H214   H     0.07479   0.37782   0.75571   0.00000  Uiso   1.00
H215   H     0.91366   0.60144   0.69710   0.00000  Uiso   1.00
H216   H     0.97676   0.65018   0.68122   0.00000  Uiso   1.00
H217   H     0.81355   0.59165   0.64184   0.00000  Uiso   1.00
H218   H     0.94221   0.57680   0.77748   0.00000  Uiso   1.00
H219   H     0.05999   0.68164   0.64900   0.00000  Uiso   1.00
H220   H     0.71584   0.55821   0.56597   0.00000  Uiso   1.00
H221   H     0.98715   0.52689   0.85201   0.00000  Uiso   1.00
O222   O     0.14716   0.63603   0.58837   0.00000  Uiso   1.00
O223   O     0.69566   0.47410   0.47944   0.00000  Uiso   1.00
O224   O     0.05160   0.43300   0.85471   0.00000  Uiso   1.00
N225   N     0.11835   0.56097   0.57756   0.00000  Uiso   1.00
N226   N     0.79661   0.44558   0.49992   0.00000  Uiso   1.00
N227   N     0.05023   0.41628   0.76734   0.00000  Uiso   1.00
N228   N     0.07119   0.64117   0.62937   0.00000  Uiso   1.00
N229   N     0.74944   0.52579   0.55174   0.00000  Uiso   1.00
N230   N     0.00307   0.49649   0.81916   0.00000  Uiso   1.00
C231   C     0.41858   0.33558   0.88000   0.00000  Uiso   1.00
C232   C     0.35301   0.33969   0.86401   0.00000  Uiso   1.00
C233   C     0.32745   0.31496   0.81376   0.00000  Uiso   1.00
C234   C     0.26671   0.32369   0.80720   0.00000  Uiso   1.00
C235   C     0.17006   0.32513   0.77595   0.00000  Uiso   1.00
C236   C     0.43509   0.31425   0.92272   0.00000  Uiso   1.00
C237   C     0.47854   0.26813   0.92184   0.00000  Uiso   1.00
C238   C     0.48690   0.25545   0.96471   0.00000  Uiso   1.00
C239   C     0.51770   0.21742   0.02463   0.00000  Uiso   1.00
C240   C     0.42486   0.39357   0.90651   0.00000  Uiso   1.00
C241   C     0.45973   0.41414   0.89202   0.00000  Uiso   1.00
C242   C     0.45948   0.46825   0.92125   0.00000  Uiso   1.00
C243   C     0.47440   0.55337   0.95600   0.00000  Uiso   1.00
C244   C     0.35615   0.39506   0.95768   0.00000  Uiso   1.00
C245   C     0.31910   0.37200   0.90620   0.00000  Uiso   1.00
C246   C     0.25838   0.38077   0.89971   0.00000  Uiso   1.00
C247   C     0.23274   0.35606   0.84947   0.00000  Uiso   1.00
C248   C     0.40118   0.34655   0.96491   0.00000  Uiso   1.00
C249   C     0.40947   0.33394   0.00779   0.00000  Uiso   1.00
C250   C     0.45292   0.28782   0.00698   0.00000  Uiso   1.00
C251   C     0.39095   0.42588   0.94871   0.00000  Uiso   1.00
C252   C     0.39065   0.47996   0.97796   0.00000  Uiso   1.00
C253   C     0.42551   0.50061   0.96352   0.00000  Uiso   1.00
H254   H     0.44498   0.31043   0.84715   0.00000  Uiso   1.00
H255   H     0.35371   0.28995   0.78112   0.00000  Uiso   1.00
H256   H     0.50478   0.24314   0.88919   0.00000  Uiso   1.00
H257   H     0.48596   0.38913   0.85937   0.00000  Uiso   1.00
H258   H     0.23757   0.28149   0.72652   0.00000  Uiso   1.00
H259   H     0.55612   0.18279   0.95440   0.00000  Uiso   1.00
H260   H     0.51645   0.49064   0.89151   0.00000  Uiso   1.00
H261   H     0.32975   0.42022   0.99054   0.00000  Uiso   1.00
H262   H     0.23215   0.40577   0.93237   0.00000  Uiso   1.00
H263   H     0.38322   0.35896   0.04044   0.00000  Uiso   1.00
H264   H     0.36440   0.50495   0.01061   0.00000  Uiso   1.00
H265   H     0.13890   0.37549   0.84928   0.00000  Uiso   1.00
H266   H     0.45746   0.27679   0.07716   0.00000  Uiso   1.00
H267   H     0.41778   0.58464   0.01427   0.00000  Uiso   1.00
O268   O     0.12612   0.31699   0.74706   0.00000  Uiso   1.00
O269   O     0.54406   0.18751   0.04602   0.00000  Uiso   1.00
O270   O     0.49199   0.59140   0.96351   0.00000  Uiso   1.00
N271   N     0.22774   0.30560   0.76340   0.00000  Uiso   1.00
N272   N     0.52556   0.21332   0.97644   0.00000  Uiso   1.00
N273   N     0.48848   0.50113   0.91765   0.00000  Uiso   1.00
N274   N     0.17465   0.35619   0.82945   0.00000  Uiso   1.00
N275   N     0.47247   0.26390   0.04250   0.00000  Uiso   1.00
N276   N     0.43539   0.55171   0.98371   0.00000  Uiso   1.00
C277   C     0.82238   0.81080   0.88685   0.00000  Uiso   1.00
C278   C     0.83126   0.76647   0.90570   0.00000  Uiso   1.00
C279   C     0.82208   0.77458   0.95496   0.00000  Uiso   1.00
C280   C     0.83267   0.72875   0.96456   0.00000  Uiso   1.00
C281   C     0.84353   0.66784   0.99964   0.00000  Uiso   1.00
C282   C     0.77904   0.79820   0.83779   0.00000  Uiso   1.00
C283   C     0.72595   0.83298   0.82995   0.00000  Uiso   1.00
C284   C     0.69259   0.81386   0.78238   0.00000  Uiso   1.00
C285   C     0.62240   0.80222   0.71202   0.00000  Uiso   1.00
C286   C     0.88091   0.80208   0.86873   0.00000  Uiso   1.00
C287   C     0.91347   0.84013   0.88688   0.00000  Uiso   1.00
C288   C     0.96586   0.82429   0.86535   0.00000  Uiso   1.00
C289   C     0.05383   0.81867   0.84302   0.00000  Uiso   1.00
C290   C     0.85752   0.71500   0.81632   0.00000  Uiso   1.00
C291   C     0.85034   0.71444   0.86739   0.00000  Uiso   1.00
C292   C     0.86095   0.66859   0.87692   0.00000  Uiso   1.00
C293   C     0.85179   0.67662   0.92618   0.00000  Uiso   1.00
C294   C     0.79812   0.74616   0.79948   0.00000  Uiso   1.00
C295   C     0.76483   0.72699   0.75191   0.00000  Uiso   1.00
C296   C     0.71171   0.76174   0.74400   0.00000  Uiso   1.00
C297   C     0.89999   0.75004   0.83042   0.00000  Uiso   1.00
C298   C     0.95234   0.73414   0.80885   0.00000  Uiso   1.00
C299   C     0.98498   0.77216   0.82697   0.00000  Uiso   1.00
H300   H     0.80751   0.85131   0.91668   0.00000  Uiso   1.00
H301   H     0.80730   0.81486   0.98459   0.00000  Uiso   1.00
H302   H     0.71120   0.87325   0.85960   0.00000  Uiso   1.00
H303   H     0.89868   0.88040   0.91653   0.00000  Uiso   1.00
H304   H     0.81546   0.75149   0.04299   0.00000  Uiso   1.00
H305   H     0.61283   0.87463   0.77943   0.00000  Uiso   1.00
H306   H     0.00818   0.88969   0.89948   0.00000  Uiso   1.00
H307   H     0.87238   0.67449   0.78649   0.00000  Uiso   1.00
H308   H     0.87572   0.62832   0.84726   0.00000  Uiso   1.00
H309   H     0.77962   0.68672   0.72227   0.00000  Uiso   1.00
H310   H     0.96710   0.69387   0.77920   0.00000  Uiso   1.00
H311   H     0.87099   0.60009   0.93152   0.00000  Uiso   1.00
H312   H     0.66836   0.72323   0.66797   0.00000  Uiso   1.00
H313   H     0.06371   0.73830   0.78801   0.00000  Uiso   1.00
O314   O     0.84424   0.64861   0.02958   0.00000  Uiso   1.00
O315   O     0.57840   0.81017   0.68380   0.00000  Uiso   1.00
O316   O     0.09709   0.82994   0.84130   0.00000  Uiso   1.00
N317   N     0.82808   0.72219   0.00842   0.00000  Uiso   1.00
N318   N     0.63863   0.83732   0.76201   0.00000  Uiso   1.00
N319   N     0.00824   0.85141   0.87423   0.00000  Uiso   1.00
N320   N     0.85796   0.64073   0.94844   0.00000  Uiso   1.00
N321   N     0.66851   0.75585   0.70203   0.00000  Uiso   1.00
N322   N     0.03812   0.76994   0.81426   0.00000  Uiso   1.00
C323   C     0.30933   0.92468   0.11601   0.00000  Uiso   1.00
C324   C     0.24668   0.94171   0.09268   0.00000  Uiso   1.00
C325   C     0.19909   0.97606   0.12079   0.00000  Uiso   1.00
C326   C     0.14540   0.98665   0.09220   0.00000  Uiso   1.00
C327   C     0.04902   0.01661   0.06430   0.00000  Uiso   1.00
C328   C     0.34825   0.94038   0.09329   0.00000  Uiso   1.00
C329   C     0.38607   0.97360   0.12192   0.00000  Uiso   1.00
C330   C     0.41788   0.98306   0.09384   0.00000  Uiso   1.00
C331   C     0.47922   0.01092   0.06689   0.00000  Uiso   1.00
C332   C     0.32571   0.86299   0.09301   0.00000  Uiso   1.00
C333   C     0.34458   0.83114   0.12140   0.00000  Uiso   1.00
C334   C     0.35742   0.77544   0.09309   0.00000  Uiso   1.00
C335   C     0.38375   0.68314   0.06571   0.00000  Uiso   1.00
C336   C     0.29860   0.88241   0.01525   0.00000  Uiso   1.00
C337   C     0.24086   0.91875   0.03795   0.00000  Uiso   1.00
C338   C     0.18722   0.92929   0.00931   0.00000  Uiso   1.00
C339   C     0.13956   0.96365   0.03737   0.00000  Uiso   1.00
C340   C     0.34243   0.91742   0.03856   0.00000  Uiso   1.00
C341   C     0.37420   0.92683   0.01044   0.00000  Uiso   1.00
C342   C     0.41205   0.96006   0.03901   0.00000  Uiso   1.00
C343   C     0.31988   0.84003   0.03828   0.00000  Uiso   1.00
C344   C     0.33270   0.78437   0.00992   0.00000  Uiso   1.00
C345   C     0.35159   0.75244   0.03826   0.00000  Uiso   1.00
H346   H     0.31387   0.94256   0.15862   0.00000  Uiso   1.00
H347   H     0.20362   0.99383   0.16315   0.00000  Uiso   1.00
H348   H     0.39057   0.99136   0.16427   0.00000  Uiso   1.00
H349   H     0.34908   0.84892   0.16376   0.00000  Uiso   1.00
H350   H     0.07883   0.04055   0.14403   0.00000  Uiso   1.00
H351   H     0.47304   0.03534   0.14640   0.00000  Uiso   1.00
H352   H     0.38555   0.73498   0.14531   0.00000  Uiso   1.00
H353   H     0.29407   0.86454   0.97264   0.00000  Uiso   1.00
H354   H     0.18273   0.91152   0.96696   0.00000  Uiso   1.00
H355   H     0.36968   0.90906   0.96808   0.00000  Uiso   1.00
H356   H     0.32819   0.76662   0.96757   0.00000  Uiso   1.00
H357   H     0.06187   0.97376   0.98479   0.00000  Uiso   1.00
H358   H     0.45608   0.96854   0.98717   0.00000  Uiso   1.00
H359   H     0.36859   0.66818   0.98608   0.00000  Uiso   1.00
O360   O     0.99746   0.03949   0.06403   0.00000  Uiso   1.00
O361   O     0.51466   0.03264   0.06714   0.00000  Uiso   1.00
O362   O     0.39988   0.63857   0.06572   0.00000  Uiso   1.00
N363   N     0.09011   0.01838   0.10733   0.00000  Uiso   1.00
N364   N     0.45867   0.01351   0.10955   0.00000  Uiso   1.00
N365   N     0.37689   0.73269   0.10854   0.00000  Uiso   1.00
N366   N     0.08098   0.98243   0.02165   0.00000  Uiso   1.00
N367   N     0.44954   0.97757   0.02387   0.00000  Uiso   1.00
N368   N     0.36776   0.69675   0.02285   0.00000  Uiso   1.00
C369   C     0.13367   0.59511   0.16141   0.00000  Uiso   1.00
C370   C     0.18710   0.61152   0.15970   0.00000  Uiso   1.00
C371   C     0.19827   0.66210   0.18886   0.00000  Uiso   1.00
C372   C     0.24959   0.66902   0.18169   0.00000  Uiso   1.00
C373   C     0.32668   0.70092   0.18439   0.00000  Uiso   1.00
C374   C     0.15787   0.54581   0.17490   0.00000  Uiso   1.00
C375   C     0.14446   0.54114   0.21682   0.00000  Uiso   1.00
C376   C     0.17116   0.49274   0.22244   0.00000  Uiso   1.00
C377   C     0.20283   0.42260   0.24871   0.00000  Uiso   1.00
C378   C     0.10487   0.57478   0.10539   0.00000  Uiso   1.00
C379   C     0.04690   0.59445   0.08887   0.00000  Uiso   1.00
C380   C     0.02898   0.57042   0.03596   0.00000  Uiso   1.00
C381   C     0.97837   0.54526   0.95431   0.00000  Uiso   1.00
C382   C     0.20492   0.51746   0.09683   0.00000  Uiso   1.00
C383   C     0.22580   0.56935   0.12463   0.00000  Uiso   1.00
C384   C     0.27711   0.57619   0.11741   0.00000  Uiso   1.00
C385   C     0.28836   0.62677   0.14655   0.00000  Uiso   1.00
C386   C     0.19657   0.50364   0.13982   0.00000  Uiso   1.00
C387   C     0.22329   0.45523   0.14538   0.00000  Uiso   1.00
C388   C     0.20993   0.45049   0.18730   0.00000  Uiso   1.00
C389   C     0.14357   0.53260   0.07031   0.00000  Uiso   1.00
C390   C     0.12574   0.50854   0.01742   0.00000  Uiso   1.00
C391   C     0.06775   0.52817   0.00082   0.00000  Uiso   1.00
H392   H     0.10354   0.62794   0.18872   0.00000  Uiso   1.00
H393   H     0.16831   0.69473   0.21601   0.00000  Uiso   1.00
H394   H     0.11450   0.57378   0.24396   0.00000  Uiso   1.00
H395   H     0.01696   0.62708   0.11602   0.00000  Uiso   1.00
H396   H     0.25721   0.75017   0.23080   0.00000  Uiso   1.00
H397   H     0.14373   0.49514   0.28973   0.00000  Uiso   1.00
H398   H     0.93804   0.60754   0.01996   0.00000  Uiso   1.00
H399   H     0.23505   0.48462   0.06952   0.00000  Uiso   1.00
H400   H     0.30705   0.54355   0.09027   0.00000  Uiso   1.00
H401   H     0.25324   0.42260   0.11822   0.00000  Uiso   1.00
H402   H     0.15570   0.47591   0.99029   0.00000  Uiso   1.00
H403   H     0.36982   0.62747   0.12875   0.00000  Uiso   1.00
H404   H     0.25633   0.37244   0.18768   0.00000  Uiso   1.00
H405   H     0.05065   0.48484   0.91790   0.00000  Uiso   1.00
O406   O     0.35851   0.73016   0.19558   0.00000  Uiso   1.00
O407   O     0.20962   0.39557   0.27289   0.00000  Uiso   1.00
O408   O     0.93977   0.54304   0.91895   0.00000  Uiso   1.00
N409   N     0.27383   0.71321   0.20393   0.00000  Uiso   1.00
N410   N     0.16774   0.47477   0.25903   0.00000  Uiso   1.00
N411   N     0.97543   0.57985   0.00681   0.00000  Uiso   1.00
N412   N     0.33442   0.64718   0.14901   0.00000  Uiso   1.00
N413   N     0.22833   0.40875   0.20412   0.00000  Uiso   1.00
N414   N     0.03602   0.51382   0.95190   0.00000  Uiso   1.00
C415   C     0.59935   0.30992   0.26570   0.00000  Uiso   1.00
C416   C     0.57086   0.34035   0.23061   0.00000  Uiso   1.00
C417   C     0.53606   0.39307   0.24645   0.00000  Uiso   1.00
C418   C     0.51410   0.41360   0.20840   0.00000  Uiso   1.00
C419   C     0.46795   0.46558   0.16181   0.00000  Uiso   1.00
C420   C     0.57783   0.25842   0.24100   0.00000  Uiso   1.00
C421   C     0.54890   0.24225   0.26558   0.00000  Uiso   1.00
C422   C     0.53281   0.19381   0.23628   0.00000  Uiso   1.00
C423   C     0.49752   0.11857   0.20584   0.00000  Uiso   1.00
C424   C     0.66503   0.29172   0.25989   0.00000  Uiso   1.00
C425   C     0.70943   0.30353   0.30036   0.00000  Uiso   1.00
C426   C     0.76677   0.28311   0.28697   0.00000  Uiso   1.00
C427   C     0.86687   0.25957   0.28586   0.00000  Uiso   1.00
C428   C     0.62224   0.25262   0.16996   0.00000  Uiso   1.00
C429   C     0.58329   0.30923   0.17861   0.00000  Uiso   1.00
C430   C     0.56138   0.32969   0.14052   0.00000  Uiso   1.00
C431   C     0.52656   0.38243   0.15630   0.00000  Uiso   1.00
C432   C     0.59026   0.22730   0.18900   0.00000  Uiso   1.00
C433   C     0.57422   0.17887   0.15966   0.00000  Uiso   1.00
C434   C     0.54527   0.16264   0.18418   0.00000  Uiso   1.00
C435   C     0.67747   0.26060   0.20789   0.00000  Uiso   1.00
C436   C     0.73475   0.24015   0.19443   0.00000  Uiso   1.00
C437   C     0.77922   0.25194   0.23487   0.00000  Uiso   1.00
H438   H     0.58967   0.33414   0.30619   0.00000  Uiso   1.00
H439   H     0.52644   0.41714   0.28669   0.00000  Uiso   1.00
H440   H     0.53929   0.26634   0.30582   0.00000  Uiso   1.00
H441   H     0.69979   0.32761   0.34060   0.00000  Uiso   1.00
H442   H     0.46181   0.49543   0.24214   0.00000  Uiso   1.00
H443   H     0.48891   0.17745   0.28249   0.00000  Uiso   1.00
H444   H     0.82736   0.30666   0.35581   0.00000  Uiso   1.00
H445   H     0.63192   0.22840   0.12948   0.00000  Uiso   1.00
H446   H     0.57101   0.30560   0.10028   0.00000  Uiso   1.00
H447   H     0.58385   0.15480   0.11942   0.00000  Uiso   1.00
H448   H     0.74435   0.21607   0.15419   0.00000  Uiso   1.00
H449   H     0.49798   0.40489   0.09084   0.00000  Uiso   1.00
H450   H     0.52508   0.08692   0.13119   0.00000  Uiso   1.00
H451   H     0.86353   0.21613   0.20452   0.00000  Uiso   1.00
O452   O     0.43905   0.50284   0.15047   0.00000  Uiso   1.00
O453   O     0.47462   0.08568   0.20341   0.00000  Uiso   1.00
O454   O     0.91865   0.25519   0.29961   0.00000  Uiso   1.00
N455   N     0.47869   0.46353   0.21054   0.00000  Uiso   1.00
N456   N     0.50402   0.16625   0.24826   0.00000  Uiso   1.00
N457   N     0.82045   0.28703   0.31682   0.00000  Uiso   1.00
N458   N     0.49816   0.41481   0.12913   0.00000  Uiso   1.00
N459   N     0.52348   0.11753   0.16685   0.00000  Uiso   1.00
N460   N     0.83991   0.23832   0.23541   0.00000  Uiso   1.00
C461   C     0.00742   0.53278   0.38961   0.00000  Uiso   1.00
C462   C     0.98428   0.48734   0.38599   0.00000  Uiso   1.00
C463   C     0.93855   0.49382   0.41181   0.00000  Uiso   1.00
C464   C     0.92400   0.44719   0.40336   0.00000  Uiso   1.00
C465   C     0.88350   0.38443   0.40280   0.00000  Uiso   1.00
C466   C     0.07295   0.51914   0.40739   0.00000  Uiso   1.00
C467   C     0.10179   0.55236   0.45121   0.00000  Uiso   1.00
C468   C     0.16188   0.53250   0.46077   0.00000  Uiso   1.00
C469   C     0.25906   0.51912   0.49341   0.00000  Uiso   1.00
C470   C     0.00305   0.52721   0.33369   0.00000  Uiso   1.00
C471   C     0.97311   0.56722   0.31554   0.00000  Uiso   1.00
C472   C     0.97436   0.55416   0.26305   0.00000  Uiso   1.00
C473   C     0.96300   0.55331   0.18126   0.00000  Uiso   1.00
C474   C     0.06289   0.43845   0.32867   0.00000  Uiso   1.00
C475   C     0.01441   0.43611   0.35289   0.00000  Uiso   1.00
C476   C     0.99992   0.38946   0.34439   0.00000  Uiso   1.00
C477   C     0.95418   0.39586   0.37020   0.00000  Uiso   1.00
C478   C     0.10308   0.46791   0.37429   0.00000  Uiso   1.00
C479   C     0.16315   0.44800   0.38379   0.00000  Uiso   1.00
C480   C     0.19207   0.48117   0.42761   0.00000  Uiso   1.00
C481   C     0.03317   0.47598   0.30059   0.00000  Uiso   1.00
C482   C     0.03447   0.46285   0.24812   0.00000  Uiso   1.00
C483   C     0.00454   0.50283   0.22989   0.00000  Uiso   1.00
H484   H     0.98397   0.57266   0.41538   0.00000  Uiso   1.00
H485   H     0.91525   0.53347   0.43743   0.00000  Uiso   1.00
H486   H     0.07846   0.59200   0.47681   0.00000  Uiso   1.00
H487   H     0.94980   0.60686   0.34117   0.00000  Uiso   1.00
H488   H     0.85237   0.46743   0.44729   0.00000  Uiso   1.00
H489   H     0.19651   0.59085   0.53033   0.00000  Uiso   1.00
H490   H     0.92521   0.62218   0.24429   0.00000  Uiso   1.00
H491   H     0.08634   0.39856   0.30290   0.00000  Uiso   1.00
H492   H     0.02324   0.34982   0.31878   0.00000  Uiso   1.00
H493   H     0.18645   0.40835   0.35816   0.00000  Uiso   1.00
H494   H     0.05779   0.42320   0.22252   0.00000  Uiso   1.00
H495   H     0.94001   0.31836   0.35100   0.00000  Uiso   1.00
H496   H     0.28416   0.44179   0.43403   0.00000  Uiso   1.00
H497   H     0.01285   0.47311   0.14799   0.00000  Uiso   1.00
O498   O     0.85284   0.36397   0.41163   0.00000  Uiso   1.00
O499   O     0.30434   0.52590   0.52056   0.00000  Uiso   1.00
O500   O     0.94840   0.56700   0.14529   0.00000  Uiso   1.00
N501   N     0.88165   0.43903   0.42244   0.00000  Uiso   1.00
N502   N     0.20339   0.55442   0.50008   0.00000  Uiso   1.00
N503   N     0.94977   0.58372   0.23266   0.00000  Uiso   1.00
N504   N     0.92881   0.35883   0.37063   0.00000  Uiso   1.00
N505   N     0.25056   0.47421   0.44826   0.00000  Uiso   1.00
N506   N     0.99693   0.50351   0.18084   0.00000  Uiso   1.00
C507   C     0.58142   0.66442   0.12000   0.00000  Uiso   1.00
C508   C     0.64699   0.66031   0.13599   0.00000  Uiso   1.00
C509   C     0.67255   0.68504   0.18624   0.00000  Uiso   1.00
C510   C     0.73329   0.67631   0.19280   0.00000  Uiso   1.00
C511   C     0.82994   0.67487   0.22405   0.00000  Uiso   1.00
C512   C     0.56491   0.68575   0.07728   0.00000  Uiso   1.00
C513   C     0.52146   0.73187   0.07816   0.00000  Uiso   1.00
C514   C     0.51310   0.74455   0.03529   0.00000  Uiso   1.00
C515   C     0.48230   0.78258   0.97537   0.00000  Uiso   1.00
C516   C     0.57514   0.60643   0.09349   0.00000  Uiso   1.00
C517   C     0.54027   0.58586   0.10798   0.00000  Uiso   1.00
C518   C     0.54052   0.53175   0.07875   0.00000  Uiso   1.00
C519   C     0.52560   0.44663   0.04400   0.00000  Uiso   1.00
C520   C     0.64385   0.60494   0.04232   0.00000  Uiso   1.00
C521   C     0.68090   0.62800   0.09380   0.00000  Uiso   1.00
C522   C     0.74162   0.61923   0.10029   0.00000  Uiso   1.00
C523   C     0.76726   0.64394   0.15053   0.00000  Uiso   1.00
C524   C     0.59882   0.65345   0.03509   0.00000  Uiso   1.00
C525   C     0.59053   0.66606   0.99221   0.00000  Uiso   1.00
C526   C     0.54708   0.71218   0.99302   0.00000  Uiso   1.00
C527   C     0.60905   0.57412   0.05129   0.00000  Uiso   1.00
C528   C     0.60935   0.52004   0.02204   0.00000  Uiso   1.00
C529   C     0.57449   0.49939   0.03648   0.00000  Uiso   1.00
H530   H     0.55502   0.68957   0.15285   0.00000  Uiso   1.00
H531   H     0.64629   0.71005   0.21888   0.00000  Uiso   1.00
H532   H     0.49522   0.75686   0.11081   0.00000  Uiso   1.00
H533   H     0.51404   0.61087   0.14063   0.00000  Uiso   1.00
H534   H     0.76243   0.71851   0.27348   0.00000  Uiso   1.00
H535   H     0.44388   0.81721   0.04560   0.00000  Uiso   1.00
H536   H     0.48355   0.50936   0.10849   0.00000  Uiso   1.00
H537   H     0.67025   0.57978   0.00946   0.00000  Uiso   1.00
H538   H     0.76785   0.59423   0.06763   0.00000  Uiso   1.00
H539   H     0.61678   0.64104   0.95956   0.00000  Uiso   1.00
H540   H     0.63560   0.49505   0.98939   0.00000  Uiso   1.00
H541   H     0.86110   0.62451   0.15072   0.00000  Uiso   1.00
H542   H     0.54254   0.72321   0.92284   0.00000  Uiso   1.00
H543   H     0.58222   0.41536   0.98573   0.00000  Uiso   1.00
O544   O     0.87388   0.68301   0.25294   0.00000  Uiso   1.00
O545   O     0.45594   0.81249   0.95398   0.00000  Uiso   1.00
O546   O     0.50801   0.40860   0.03649   0.00000  Uiso   1.00
N547   N     0.77226   0.69440   0.23660   0.00000  Uiso   1.00
N548   N     0.47444   0.78668   0.02356   0.00000  Uiso   1.00
N549   N     0.51152   0.49887   0.08235   0.00000  Uiso   1.00
N550   N     0.82535   0.64381   0.17055   0.00000  Uiso   1.00
N551   N     0.52753   0.73610   0.95750   0.00000  Uiso   1.00
N552   N     0.56461   0.44829   0.01629   0.00000  Uiso   1.00
