data_job_04150
_audit_creation_date              2018-12-19
_audit_creation_method            'Materials Studio'
_symmetry_space_group_name_H-M    'P1'
_symmetry_Int_Tables_number       1
_symmetry_cell_setting            triclinic
loop_
_symmetry_equiv_pos_as_xyz
  x,y,z
_cell_length_a                    36.2931
_cell_length_b                    22.4130
_cell_length_c                    9.2196
_cell_angle_alpha                 90.0000
_cell_angle_beta                  90.0000
_cell_angle_gamma                 90.0000
loop_
_atom_site_label
_atom_site_type_symbol
_atom_site_fract_x
_atom_site_fract_y
_atom_site_fract_z
_atom_site_U_iso_or_equiv
_atom_site_adp_type
_atom_site_occupancy
C1     C     0.62244   0.58802   0.25820   0.00000  Uiso   1.00
C2     C     0.60280   0.64609   0.22001   0.00000  Uiso   1.00
C3     C     0.60988   0.70152   0.28101   0.00000  Uiso   1.00
C4     C     0.58892   0.74916   0.23143   0.00000  Uiso   1.00
C5     C     0.56254   0.84047   0.18842   0.00000  Uiso   1.00
C6     C     0.59234   0.54439   0.30376   0.00000  Uiso   1.00
C7     C     0.59063   0.51432   0.43517   0.00000  Uiso   1.00
C8     C     0.56087   0.47635   0.45607   0.00000  Uiso   1.00
C9     C     0.51826   0.40974   0.54304   0.00000  Uiso   1.00
C10    C     0.63803   0.56401   0.11615   0.00000  Uiso   1.00
C11    C     0.67474   0.55042   0.08982   0.00000  Uiso   1.00
C12    C     0.68345   0.52896   0.95277   0.00000  Uiso   1.00
C13    C     0.71178   0.49281   0.74845   0.00000  Uiso   1.00
C14    C     0.57264   0.57406   0.06164   0.00000  Uiso   1.00
C15    C     0.57575   0.63850   0.11325   0.00000  Uiso   1.00
C16    C     0.55479   0.68607   0.06355   0.00000  Uiso   1.00
C17    C     0.56183   0.74157   0.12447   0.00000  Uiso   1.00
C18    C     0.56530   0.53681   0.19700   0.00000  Uiso   1.00
C19    C     0.53554   0.49887   0.21771   0.00000  Uiso   1.00
C20    C     0.53378   0.46875   0.34912   0.00000  Uiso   1.00
C21    C     0.61099   0.55643   0.00938   0.00000  Uiso   1.00
C22    C     0.61964   0.53498   0.87236   0.00000  Uiso   1.00
C23    C     0.65635   0.52136   0.84582   0.00000  Uiso   1.00
H24    H     0.64349   0.59392   0.34132   0.00000  Uiso   1.00
H25    H     0.63081   0.70737   0.36364   0.00000  Uiso   1.00
H26    H     0.61156   0.52019   0.51776   0.00000  Uiso   1.00
H27    H     0.69566   0.55630   0.17246   0.00000  Uiso   1.00
H28    H     0.60481   0.82980   0.34134   0.00000  Uiso   1.00
H29    H     0.56424   0.43511   0.66630   0.00000  Uiso   1.00
H30    H     0.74157   0.51123   0.93817   0.00000  Uiso   1.00
H31    H     0.55158   0.56815   0.97853   0.00000  Uiso   1.00
H32    H     0.53386   0.68019   0.98093   0.00000  Uiso   1.00
H33    H     0.51461   0.49301   0.13506   0.00000  Uiso   1.00
H34    H     0.59871   0.52911   0.78977   0.00000  Uiso   1.00
H35    H     0.52612   0.80774   0.03073   0.00000  Uiso   1.00
H36    H     0.48555   0.41304   0.35569   0.00000  Uiso   1.00
H37    H     0.66288   0.48917   0.62756   0.00000  Uiso   1.00
O38    O     0.55545   0.89293   0.19420   0.00000  Uiso   1.00
O39    O     0.50223   0.37510   0.62052   0.00000  Uiso   1.00
O40    O     0.73489   0.47498   0.66524   0.00000  Uiso   1.00
N41    N     0.58873   0.80923   0.26789   0.00000  Uiso   1.00
N42    N     0.55079   0.44023   0.57172   0.00000  Uiso   1.00
N43    N     0.71658   0.51138   0.89099   0.00000  Uiso   1.00
N44    N     0.54639   0.79736   0.10075   0.00000  Uiso   1.00
N45    N     0.50845   0.42836   0.40457   0.00000  Uiso   1.00
N46    N     0.67424   0.49951   0.72385   0.00000  Uiso   1.00
C47    C     0.87756   0.41198   0.75820   0.00000  Uiso   1.00
C48    C     0.89720   0.35391   0.72001   0.00000  Uiso   1.00
C49    C     0.89012   0.29848   0.78101   0.00000  Uiso   1.00
C50    C     0.91108   0.25084   0.73143   0.00000  Uiso   1.00
C51    C     0.93746   0.15953   0.68842   0.00000  Uiso   1.00
C52    C     0.90766   0.45561   0.80376   0.00000  Uiso   1.00
C53    C     0.90937   0.48568   0.93517   0.00000  Uiso   1.00
C54    C     0.93913   0.52365   0.95607   0.00000  Uiso   1.00
C55    C     0.98174   0.59026   0.04304   0.00000  Uiso   1.00
C56    C     0.86197   0.43599   0.61615   0.00000  Uiso   1.00
C57    C     0.82526   0.44958   0.58982   0.00000  Uiso   1.00
C58    C     0.81655   0.47104   0.45277   0.00000  Uiso   1.00
C59    C     0.78822   0.50719   0.24845   0.00000  Uiso   1.00
C60    C     0.92736   0.42594   0.56164   0.00000  Uiso   1.00
C61    C     0.92425   0.36150   0.61325   0.00000  Uiso   1.00
C62    C     0.94521   0.31393   0.56355   0.00000  Uiso   1.00
C63    C     0.93817   0.25843   0.62447   0.00000  Uiso   1.00
C64    C     0.93470   0.46319   0.69700   0.00000  Uiso   1.00
C65    C     0.96446   0.50113   0.71771   0.00000  Uiso   1.00
C66    C     0.96622   0.53125   0.84912   0.00000  Uiso   1.00
C67    C     0.88901   0.44357   0.50938   0.00000  Uiso   1.00
C68    C     0.88036   0.46502   0.37236   0.00000  Uiso   1.00
C69    C     0.84365   0.47864   0.34582   0.00000  Uiso   1.00
H70    H     0.85651   0.40608   0.84132   0.00000  Uiso   1.00
H71    H     0.86919   0.29263   0.86364   0.00000  Uiso   1.00
H72    H     0.88844   0.47981   0.01776   0.00000  Uiso   1.00
H73    H     0.80434   0.44370   0.67246   0.00000  Uiso   1.00
H74    H     0.89519   0.17020   0.84134   0.00000  Uiso   1.00
H75    H     0.93576   0.56489   0.16630   0.00000  Uiso   1.00
H76    H     0.75843   0.48877   0.43817   0.00000  Uiso   1.00
H77    H     0.94842   0.43185   0.47853   0.00000  Uiso   1.00
H78    H     0.96614   0.31981   0.48093   0.00000  Uiso   1.00
H79    H     0.98539   0.50699   0.63506   0.00000  Uiso   1.00
H80    H     0.90129   0.47089   0.28977   0.00000  Uiso   1.00
H81    H     0.97388   0.19226   0.53073   0.00000  Uiso   1.00
H82    H     0.01445   0.58696   0.85569   0.00000  Uiso   1.00
H83    H     0.83712   0.51083   0.12756   0.00000  Uiso   1.00
O84    O     0.94455   0.10707   0.69420   0.00000  Uiso   1.00
O85    O     0.99777   0.62490   0.12052   0.00000  Uiso   1.00
O86    O     0.76511   0.52502   0.16524   0.00000  Uiso   1.00
N87    N     0.91127   0.19077   0.76789   0.00000  Uiso   1.00
N88    N     0.94921   0.55977   0.07172   0.00000  Uiso   1.00
N89    N     0.78342   0.48862   0.39099   0.00000  Uiso   1.00
N90    N     0.95361   0.20264   0.60075   0.00000  Uiso   1.00
N91    N     0.99155   0.57164   0.90457   0.00000  Uiso   1.00
N92    N     0.82576   0.50049   0.22385   0.00000  Uiso   1.00
C93    C     0.37756   0.08802   0.24180   0.00000  Uiso   1.00
C94    C     0.39720   0.14609   0.27999   0.00000  Uiso   1.00
C95    C     0.39012   0.20152   0.21899   0.00000  Uiso   1.00
C96    C     0.41108   0.24916   0.26857   0.00000  Uiso   1.00
C97    C     0.43746   0.34047   0.31158   0.00000  Uiso   1.00
C98    C     0.40766   0.04439   0.19624   0.00000  Uiso   1.00
C99    C     0.40937   0.01432   0.06483   0.00000  Uiso   1.00
C100   C     0.43913   0.97635   0.04393   0.00000  Uiso   1.00
C101   C     0.48174   0.90974   0.95696   0.00000  Uiso   1.00
C102   C     0.36197   0.06401   0.38385   0.00000  Uiso   1.00
C103   C     0.32526   0.05042   0.41018   0.00000  Uiso   1.00
C104   C     0.31655   0.02896   0.54723   0.00000  Uiso   1.00
C105   C     0.28822   0.99281   0.75155   0.00000  Uiso   1.00
C106   C     0.42736   0.07406   0.43836   0.00000  Uiso   1.00
C107   C     0.42425   0.13850   0.38675   0.00000  Uiso   1.00
C108   C     0.44521   0.18607   0.43645   0.00000  Uiso   1.00
C109   C     0.43817   0.24157   0.37553   0.00000  Uiso   1.00
C110   C     0.43470   0.03681   0.30300   0.00000  Uiso   1.00
C111   C     0.46446   0.99887   0.28229   0.00000  Uiso   1.00
C112   C     0.46622   0.96875   0.15088   0.00000  Uiso   1.00
C113   C     0.38901   0.05643   0.49062   0.00000  Uiso   1.00
C114   C     0.38036   0.03498   0.62764   0.00000  Uiso   1.00
C115   C     0.34365   0.02136   0.65418   0.00000  Uiso   1.00
H116   H     0.35651   0.09392   0.15868   0.00000  Uiso   1.00
H117   H     0.36919   0.20737   0.13636   0.00000  Uiso   1.00
H118   H     0.38844   0.02019   0.98224   0.00000  Uiso   1.00
H119   H     0.30434   0.05630   0.32754   0.00000  Uiso   1.00
H120   H     0.39519   0.32980   0.15866   0.00000  Uiso   1.00
H121   H     0.43576   0.93511   0.83370   0.00000  Uiso   1.00
H122   H     0.25843   0.01123   0.56183   0.00000  Uiso   1.00
H123   H     0.44842   0.06815   0.52147   0.00000  Uiso   1.00
H124   H     0.46614   0.18019   0.51907   0.00000  Uiso   1.00
H125   H     0.48539   0.99301   0.36494   0.00000  Uiso   1.00
H126   H     0.40129   0.02911   0.71023   0.00000  Uiso   1.00
H127   H     0.47388   0.30774   0.46927   0.00000  Uiso   1.00
H128   H     0.51445   0.91304   0.14431   0.00000  Uiso   1.00
H129   H     0.33712   0.98917   0.87244   0.00000  Uiso   1.00
O130   O     0.44455   0.39293   0.30580   0.00000  Uiso   1.00
O131   O     0.49777   0.87510   0.87948   0.00000  Uiso   1.00
O132   O     0.26511   0.97498   0.83476   0.00000  Uiso   1.00
N133   N     0.41127   0.30923   0.23211   0.00000  Uiso   1.00
N134   N     0.44921   0.94023   0.92828   0.00000  Uiso   1.00
N135   N     0.28342   0.01138   0.60901   0.00000  Uiso   1.00
N136   N     0.45361   0.29736   0.39925   0.00000  Uiso   1.00
N137   N     0.49155   0.92836   0.09543   0.00000  Uiso   1.00
N138   N     0.32576   0.99951   0.77615   0.00000  Uiso   1.00
C139   C     0.12244   0.91198   0.74180   0.00000  Uiso   1.00
C140   C     0.10280   0.85391   0.77999   0.00000  Uiso   1.00
C141   C     0.10988   0.79848   0.71899   0.00000  Uiso   1.00
C142   C     0.08892   0.75084   0.76857   0.00000  Uiso   1.00
C143   C     0.06254   0.65953   0.81158   0.00000  Uiso   1.00
C144   C     0.09234   0.95561   0.69624   0.00000  Uiso   1.00
C145   C     0.09063   0.98568   0.56483   0.00000  Uiso   1.00
C146   C     0.06087   0.02365   0.54393   0.00000  Uiso   1.00
C147   C     0.01826   0.09026   0.45696   0.00000  Uiso   1.00
C148   C     0.13803   0.93599   0.88385   0.00000  Uiso   1.00
C149   C     0.17474   0.94958   0.91018   0.00000  Uiso   1.00
C150   C     0.18345   0.97104   0.04723   0.00000  Uiso   1.00
C151   C     0.21178   0.00719   0.25155   0.00000  Uiso   1.00
C152   C     0.07264   0.92594   0.93836   0.00000  Uiso   1.00
C153   C     0.07575   0.86150   0.88675   0.00000  Uiso   1.00
C154   C     0.05479   0.81393   0.93645   0.00000  Uiso   1.00
C155   C     0.06183   0.75843   0.87553   0.00000  Uiso   1.00
C156   C     0.06530   0.96319   0.80300   0.00000  Uiso   1.00
C157   C     0.03554   0.00113   0.78229   0.00000  Uiso   1.00
C158   C     0.03378   0.03125   0.65088   0.00000  Uiso   1.00
C159   C     0.11099   0.94357   0.99062   0.00000  Uiso   1.00
C160   C     0.11964   0.96502   0.12764   0.00000  Uiso   1.00
C161   C     0.15635   0.97864   0.15418   0.00000  Uiso   1.00
H162   H     0.14349   0.90608   0.65868   0.00000  Uiso   1.00
H163   H     0.13081   0.79263   0.63636   0.00000  Uiso   1.00
H164   H     0.11156   0.97981   0.48224   0.00000  Uiso   1.00
H165   H     0.19566   0.94370   0.82754   0.00000  Uiso   1.00
H166   H     0.10481   0.67020   0.65866   0.00000  Uiso   1.00
H167   H     0.06424   0.06489   0.33370   0.00000  Uiso   1.00
H168   H     0.24157   0.98877   0.06183   0.00000  Uiso   1.00
H169   H     0.05158   0.93185   0.02147   0.00000  Uiso   1.00
H170   H     0.03386   0.81981   0.01907   0.00000  Uiso   1.00
H171   H     0.01461   0.00699   0.86494   0.00000  Uiso   1.00
H172   H     0.09871   0.97089   0.21023   0.00000  Uiso   1.00
H173   H     0.02612   0.69226   0.96927   0.00000  Uiso   1.00
H174   H     0.98555   0.08696   0.64431   0.00000  Uiso   1.00
H175   H     0.16288   0.01083   0.37244   0.00000  Uiso   1.00
O176   O     0.05545   0.60707   0.80580   0.00000  Uiso   1.00
O177   O     0.00223   0.12490   0.37948   0.00000  Uiso   1.00
O178   O     0.23489   0.02502   0.33476   0.00000  Uiso   1.00
N179   N     0.08873   0.69077   0.73211   0.00000  Uiso   1.00
N180   N     0.05079   0.05977   0.42828   0.00000  Uiso   1.00
N181   N     0.21658   0.98862   0.10901   0.00000  Uiso   1.00
N182   N     0.04639   0.70264   0.89925   0.00000  Uiso   1.00
N183   N     0.00845   0.07164   0.59543   0.00000  Uiso   1.00
N184   N     0.17424   0.00049   0.27615   0.00000  Uiso   1.00
C185   C     0.37756   0.41198   0.74180   0.00000  Uiso   1.00
C186   C     0.39720   0.35391   0.77999   0.00000  Uiso   1.00
C187   C     0.39012   0.29848   0.71899   0.00000  Uiso   1.00
C188   C     0.41108   0.25084   0.76857   0.00000  Uiso   1.00
C189   C     0.43746   0.15953   0.81158   0.00000  Uiso   1.00
C190   C     0.40766   0.45561   0.69624   0.00000  Uiso   1.00
C191   C     0.40937   0.48568   0.56483   0.00000  Uiso   1.00
C192   C     0.43913   0.52365   0.54393   0.00000  Uiso   1.00
C193   C     0.48174   0.59026   0.45696   0.00000  Uiso   1.00
C194   C     0.36197   0.43599   0.88385   0.00000  Uiso   1.00
C195   C     0.32526   0.44958   0.91018   0.00000  Uiso   1.00
C196   C     0.31655   0.47104   0.04723   0.00000  Uiso   1.00
C197   C     0.28822   0.50719   0.25155   0.00000  Uiso   1.00
C198   C     0.42736   0.42594   0.93836   0.00000  Uiso   1.00
C199   C     0.42425   0.36150   0.88675   0.00000  Uiso   1.00
C200   C     0.44521   0.31393   0.93645   0.00000  Uiso   1.00
C201   C     0.43817   0.25843   0.87553   0.00000  Uiso   1.00
C202   C     0.43470   0.46319   0.80300   0.00000  Uiso   1.00
C203   C     0.46446   0.50113   0.78229   0.00000  Uiso   1.00
C204   C     0.46622   0.53125   0.65088   0.00000  Uiso   1.00
C205   C     0.38901   0.44357   0.99062   0.00000  Uiso   1.00
C206   C     0.38036   0.46502   0.12764   0.00000  Uiso   1.00
C207   C     0.34365   0.47864   0.15418   0.00000  Uiso   1.00
H208   H     0.35651   0.40608   0.65868   0.00000  Uiso   1.00
H209   H     0.36919   0.29263   0.63636   0.00000  Uiso   1.00
H210   H     0.38844   0.47981   0.48224   0.00000  Uiso   1.00
H211   H     0.30434   0.44370   0.82754   0.00000  Uiso   1.00
H212   H     0.39519   0.17020   0.65866   0.00000  Uiso   1.00
H213   H     0.43576   0.56489   0.33370   0.00000  Uiso   1.00
H214   H     0.25843   0.48877   0.06183   0.00000  Uiso   1.00
H215   H     0.44842   0.43185   0.02147   0.00000  Uiso   1.00
H216   H     0.46614   0.31981   0.01907   0.00000  Uiso   1.00
H217   H     0.48539   0.50699   0.86494   0.00000  Uiso   1.00
H218   H     0.40129   0.47089   0.21023   0.00000  Uiso   1.00
H219   H     0.47388   0.19226   0.96927   0.00000  Uiso   1.00
H220   H     0.51445   0.58696   0.64431   0.00000  Uiso   1.00
H221   H     0.33712   0.51083   0.37244   0.00000  Uiso   1.00
O222   O     0.44455   0.10707   0.80580   0.00000  Uiso   1.00
O223   O     0.49777   0.62490   0.37948   0.00000  Uiso   1.00
O224   O     0.26511   0.52502   0.33476   0.00000  Uiso   1.00
N225   N     0.41127   0.19077   0.73211   0.00000  Uiso   1.00
N226   N     0.44921   0.55977   0.42828   0.00000  Uiso   1.00
N227   N     0.28342   0.48862   0.10901   0.00000  Uiso   1.00
N228   N     0.45361   0.20264   0.89925   0.00000  Uiso   1.00
N229   N     0.49155   0.57164   0.59543   0.00000  Uiso   1.00
N230   N     0.32576   0.50049   0.27615   0.00000  Uiso   1.00
C231   C     0.12244   0.58802   0.24180   0.00000  Uiso   1.00
C232   C     0.10280   0.64609   0.27999   0.00000  Uiso   1.00
C233   C     0.10988   0.70152   0.21899   0.00000  Uiso   1.00
C234   C     0.08892   0.74916   0.26857   0.00000  Uiso   1.00
C235   C     0.06254   0.84047   0.31158   0.00000  Uiso   1.00
C236   C     0.09234   0.54439   0.19624   0.00000  Uiso   1.00
C237   C     0.09063   0.51432   0.06483   0.00000  Uiso   1.00
C238   C     0.06087   0.47635   0.04393   0.00000  Uiso   1.00
C239   C     0.01826   0.40974   0.95696   0.00000  Uiso   1.00
C240   C     0.13803   0.56401   0.38385   0.00000  Uiso   1.00
C241   C     0.17474   0.55042   0.41018   0.00000  Uiso   1.00
C242   C     0.18345   0.52896   0.54723   0.00000  Uiso   1.00
C243   C     0.21178   0.49281   0.75155   0.00000  Uiso   1.00
C244   C     0.07264   0.57406   0.43836   0.00000  Uiso   1.00
C245   C     0.07575   0.63850   0.38675   0.00000  Uiso   1.00
C246   C     0.05479   0.68607   0.43645   0.00000  Uiso   1.00
C247   C     0.06183   0.74157   0.37553   0.00000  Uiso   1.00
C248   C     0.06530   0.53681   0.30300   0.00000  Uiso   1.00
C249   C     0.03554   0.49887   0.28229   0.00000  Uiso   1.00
C250   C     0.03378   0.46875   0.15088   0.00000  Uiso   1.00
C251   C     0.11099   0.55643   0.49062   0.00000  Uiso   1.00
C252   C     0.11964   0.53498   0.62764   0.00000  Uiso   1.00
C253   C     0.15635   0.52136   0.65418   0.00000  Uiso   1.00
H254   H     0.14349   0.59392   0.15868   0.00000  Uiso   1.00
H255   H     0.13081   0.70737   0.13636   0.00000  Uiso   1.00
H256   H     0.11156   0.52019   0.98224   0.00000  Uiso   1.00
H257   H     0.19566   0.55630   0.32754   0.00000  Uiso   1.00
H258   H     0.10481   0.82980   0.15866   0.00000  Uiso   1.00
H259   H     0.06424   0.43511   0.83370   0.00000  Uiso   1.00
H260   H     0.24157   0.51123   0.56183   0.00000  Uiso   1.00
H261   H     0.05158   0.56815   0.52147   0.00000  Uiso   1.00
H262   H     0.03386   0.68019   0.51907   0.00000  Uiso   1.00
H263   H     0.01461   0.49301   0.36494   0.00000  Uiso   1.00
H264   H     0.09871   0.52911   0.71023   0.00000  Uiso   1.00
H265   H     0.02612   0.80774   0.46927   0.00000  Uiso   1.00
H266   H     0.98555   0.41304   0.14431   0.00000  Uiso   1.00
H267   H     0.16288   0.48917   0.87244   0.00000  Uiso   1.00
O268   O     0.05545   0.89293   0.30580   0.00000  Uiso   1.00
O269   O     0.00223   0.37510   0.87948   0.00000  Uiso   1.00
O270   O     0.23489   0.47498   0.83476   0.00000  Uiso   1.00
N271   N     0.08873   0.80923   0.23211   0.00000  Uiso   1.00
N272   N     0.05079   0.44023   0.92828   0.00000  Uiso   1.00
N273   N     0.21658   0.51138   0.60901   0.00000  Uiso   1.00
N274   N     0.04639   0.79736   0.39925   0.00000  Uiso   1.00
N275   N     0.00845   0.42836   0.09543   0.00000  Uiso   1.00
N276   N     0.17424   0.49951   0.77615   0.00000  Uiso   1.00
C277   C     0.62243   0.91198   0.75820   0.00000  Uiso   1.00
C278   C     0.60280   0.85391   0.72001   0.00000  Uiso   1.00
C279   C     0.60988   0.79848   0.78101   0.00000  Uiso   1.00
C280   C     0.58892   0.75084   0.73143   0.00000  Uiso   1.00
C281   C     0.56254   0.65953   0.68842   0.00000  Uiso   1.00
C282   C     0.59234   0.95561   0.80376   0.00000  Uiso   1.00
C283   C     0.59063   0.98568   0.93517   0.00000  Uiso   1.00
C284   C     0.56087   0.02365   0.95607   0.00000  Uiso   1.00
C285   C     0.51826   0.09026   0.04304   0.00000  Uiso   1.00
C286   C     0.63803   0.93599   0.61615   0.00000  Uiso   1.00
C287   C     0.67474   0.94958   0.58982   0.00000  Uiso   1.00
C288   C     0.68345   0.97104   0.45277   0.00000  Uiso   1.00
C289   C     0.71178   0.00719   0.24845   0.00000  Uiso   1.00
C290   C     0.57264   0.92594   0.56164   0.00000  Uiso   1.00
C291   C     0.57575   0.86150   0.61325   0.00000  Uiso   1.00
C292   C     0.55479   0.81393   0.56355   0.00000  Uiso   1.00
C293   C     0.56183   0.75843   0.62447   0.00000  Uiso   1.00
C294   C     0.56530   0.96319   0.69700   0.00000  Uiso   1.00
C295   C     0.53554   0.00113   0.71771   0.00000  Uiso   1.00
C296   C     0.53378   0.03125   0.84912   0.00000  Uiso   1.00
C297   C     0.61099   0.94357   0.50938   0.00000  Uiso   1.00
C298   C     0.61964   0.96502   0.37236   0.00000  Uiso   1.00
C299   C     0.65635   0.97864   0.34582   0.00000  Uiso   1.00
H300   H     0.64349   0.90608   0.84132   0.00000  Uiso   1.00
H301   H     0.63081   0.79263   0.86364   0.00000  Uiso   1.00
H302   H     0.61156   0.97981   0.01776   0.00000  Uiso   1.00
H303   H     0.69566   0.94370   0.67246   0.00000  Uiso   1.00
H304   H     0.60481   0.67020   0.84134   0.00000  Uiso   1.00
H305   H     0.56424   0.06489   0.16630   0.00000  Uiso   1.00
H306   H     0.74157   0.98877   0.43817   0.00000  Uiso   1.00
H307   H     0.55158   0.93185   0.47853   0.00000  Uiso   1.00
H308   H     0.53386   0.81981   0.48093   0.00000  Uiso   1.00
H309   H     0.51461   0.00699   0.63506   0.00000  Uiso   1.00
H310   H     0.59871   0.97089   0.28977   0.00000  Uiso   1.00
H311   H     0.52612   0.69226   0.53073   0.00000  Uiso   1.00
H312   H     0.48555   0.08696   0.85569   0.00000  Uiso   1.00
H313   H     0.66288   0.01083   0.12756   0.00000  Uiso   1.00
O314   O     0.55545   0.60707   0.69420   0.00000  Uiso   1.00
O315   O     0.50223   0.12490   0.12052   0.00000  Uiso   1.00
O316   O     0.73489   0.02502   0.16524   0.00000  Uiso   1.00
N317   N     0.58873   0.69077   0.76789   0.00000  Uiso   1.00
N318   N     0.55079   0.05977   0.07172   0.00000  Uiso   1.00
N319   N     0.71658   0.98862   0.39099   0.00000  Uiso   1.00
N320   N     0.54639   0.70264   0.60075   0.00000  Uiso   1.00
N321   N     0.50845   0.07164   0.90457   0.00000  Uiso   1.00
N322   N     0.67424   0.00049   0.22385   0.00000  Uiso   1.00
C323   C     0.87756   0.08802   0.25820   0.00000  Uiso   1.00
C324   C     0.89720   0.14609   0.22001   0.00000  Uiso   1.00
C325   C     0.89012   0.20152   0.28101   0.00000  Uiso   1.00
C326   C     0.91108   0.24916   0.23143   0.00000  Uiso   1.00
C327   C     0.93746   0.34047   0.18842   0.00000  Uiso   1.00
C328   C     0.90766   0.04439   0.30376   0.00000  Uiso   1.00
C329   C     0.90937   0.01432   0.43517   0.00000  Uiso   1.00
C330   C     0.93913   0.97635   0.45607   0.00000  Uiso   1.00
C331   C     0.98174   0.90974   0.54304   0.00000  Uiso   1.00
C332   C     0.86197   0.06401   0.11615   0.00000  Uiso   1.00
C333   C     0.82526   0.05042   0.08982   0.00000  Uiso   1.00
C334   C     0.81655   0.02896   0.95277   0.00000  Uiso   1.00
C335   C     0.78822   0.99281   0.74845   0.00000  Uiso   1.00
C336   C     0.92736   0.07406   0.06164   0.00000  Uiso   1.00
C337   C     0.92425   0.13850   0.11325   0.00000  Uiso   1.00
C338   C     0.94521   0.18607   0.06355   0.00000  Uiso   1.00
C339   C     0.93817   0.24157   0.12447   0.00000  Uiso   1.00
C340   C     0.93470   0.03681   0.19700   0.00000  Uiso   1.00
C341   C     0.96446   0.99887   0.21771   0.00000  Uiso   1.00
C342   C     0.96622   0.96875   0.34912   0.00000  Uiso   1.00
C343   C     0.88901   0.05643   0.00938   0.00000  Uiso   1.00
C344   C     0.88036   0.03498   0.87236   0.00000  Uiso   1.00
C345   C     0.84365   0.02136   0.84582   0.00000  Uiso   1.00
H346   H     0.85651   0.09392   0.34132   0.00000  Uiso   1.00
H347   H     0.86919   0.20737   0.36364   0.00000  Uiso   1.00
H348   H     0.88844   0.02019   0.51776   0.00000  Uiso   1.00
H349   H     0.80434   0.05630   0.17246   0.00000  Uiso   1.00
H350   H     0.89519   0.32980   0.34134   0.00000  Uiso   1.00
H351   H     0.93576   0.93511   0.66630   0.00000  Uiso   1.00
H352   H     0.75843   0.01123   0.93817   0.00000  Uiso   1.00
H353   H     0.94842   0.06815   0.97853   0.00000  Uiso   1.00
H354   H     0.96614   0.18019   0.98093   0.00000  Uiso   1.00
H355   H     0.98539   0.99301   0.13506   0.00000  Uiso   1.00
H356   H     0.90129   0.02911   0.78977   0.00000  Uiso   1.00
H357   H     0.97388   0.30774   0.03073   0.00000  Uiso   1.00
H358   H     0.01445   0.91304   0.35569   0.00000  Uiso   1.00
H359   H     0.83712   0.98917   0.62756   0.00000  Uiso   1.00
O360   O     0.94455   0.39293   0.19420   0.00000  Uiso   1.00
O361   O     0.99777   0.87510   0.62052   0.00000  Uiso   1.00
O362   O     0.76511   0.97498   0.66524   0.00000  Uiso   1.00
N363   N     0.91127   0.30923   0.26789   0.00000  Uiso   1.00
N364   N     0.94921   0.94023   0.57172   0.00000  Uiso   1.00
N365   N     0.78342   0.01138   0.89099   0.00000  Uiso   1.00
N366   N     0.95361   0.29736   0.10075   0.00000  Uiso   1.00
N367   N     0.99155   0.92836   0.40457   0.00000  Uiso   1.00
N368   N     0.82576   0.99951   0.72385   0.00000  Uiso   1.00
