data_job_06710
_audit_creation_date              2018-12-19
_audit_creation_method            'Materials Studio'
_symmetry_space_group_name_H-M    'P1'
_symmetry_Int_Tables_number       1
_symmetry_cell_setting            triclinic
loop_
_symmetry_equiv_pos_as_xyz
  x,y,z
_cell_length_a                    19.8235
_cell_length_b                    20.6508
_cell_length_c                    27.4627
_cell_angle_alpha                 87.4173
_cell_angle_beta                  109.8430
_cell_angle_gamma                 62.2671
loop_
_atom_site_label
_atom_site_type_symbol
_atom_site_fract_x
_atom_site_fract_y
_atom_site_fract_z
_atom_site_U_iso_or_equiv
_atom_site_adp_type
_atom_site_occupancy
C1     C     0.66477   0.15634   0.93430   0.00000  Uiso   1.00
C2     C     0.57558   0.17272   0.90670   0.00000  Uiso   1.00
C3     C     0.50579   0.24274   0.87768   0.00000  Uiso   1.00
C4     C     0.42973   0.24598   0.85553   0.00000  Uiso   1.00
C5     C     0.29215   0.28122   0.81168   0.00000  Uiso   1.00
C6     C     0.69472   0.11989   0.99277   0.00000  Uiso   1.00
C7     C     0.72511   0.14549   0.03612   0.00000  Uiso   1.00
C8     C     0.74935   0.10426   0.08644   0.00000  Uiso   1.00
C9     C     0.79679   0.05746   0.17622   0.00000  Uiso   1.00
C10    C     0.71649   0.09504   0.91186   0.00000  Uiso   1.00
C11    C     0.76519   0.09973   0.88719   0.00000  Uiso   1.00
C12    C     0.80778   0.03756   0.86939   0.00000  Uiso   1.00
C13    C     0.88901   0.95217   0.83353   0.00000  Uiso   1.00
C14    C     0.65380   0.03758   0.94658   0.00000  Uiso   1.00
C15    C     0.56963   0.10821   0.91337   0.00000  Uiso   1.00
C16    C     0.49365   0.11134   0.89126   0.00000  Uiso   1.00
C17    C     0.42376   0.18136   0.86221   0.00000  Uiso   1.00
C18    C     0.68877   0.05538   0.99944   0.00000  Uiso   1.00
C19    C     0.71297   0.01410   0.04971   0.00000  Uiso   1.00
C20    C     0.74339   0.03963   0.09312   0.00000  Uiso   1.00
C21    C     0.71053   0.03053   0.91852   0.00000  Uiso   1.00
C22    C     0.75305   0.96833   0.90077   0.00000  Uiso   1.00
C23    C     0.80181   0.97293   0.87607   0.00000  Uiso   1.00
H24    H     0.66941   0.20656   0.92912   0.00000  Uiso   1.00
H25    H     0.51043   0.29265   0.87253   0.00000  Uiso   1.00
H26    H     0.72972   0.19541   0.03095   0.00000  Uiso   1.00
H27    H     0.76979   0.14966   0.88203   0.00000  Uiso   1.00
H28    H     0.33153   0.35965   0.81275   0.00000  Uiso   1.00
H29    H     0.79395   0.15461   0.14679   0.00000  Uiso   1.00
H30    H     0.87845   0.05812   0.83277   0.00000  Uiso   1.00
H31    H     0.64916   0.98735   0.95177   0.00000  Uiso   1.00
H32    H     0.48906   0.06141   0.89642   0.00000  Uiso   1.00
H33    H     0.70836   0.96418   0.05485   0.00000  Uiso   1.00
H34    H     0.74843   0.91842   0.90593   0.00000  Uiso   1.00
H35    H     0.31419   0.17197   0.83215   0.00000  Uiso   1.00
H36    H     0.77662   0.96693   0.16619   0.00000  Uiso   1.00
H37    H     0.86111   0.87044   0.85217   0.00000  Uiso   1.00
O38    O     0.21790   0.31849   0.78565   0.00000  Uiso   1.00
O39    O     0.82460   0.04947   0.22390   0.00000  Uiso   1.00
O40    O     0.93545   0.92289   0.81191   0.00000  Uiso   1.00
N41    N     0.34942   0.30531   0.82490   0.00000  Uiso   1.00
N42    N     0.78175   0.11362   0.13721   0.00000  Uiso   1.00
N43    N     0.86076   0.02340   0.84364   0.00000  Uiso   1.00
N44    N     0.34009   0.20432   0.83534   0.00000  Uiso   1.00
N45    N     0.77242   0.01263   0.14765   0.00000  Uiso   1.00
N46    N     0.85143   0.92241   0.85408   0.00000  Uiso   1.00
C47    C     0.94038   0.15787   0.01049   0.00000  Uiso   1.00
C48    C     0.00894   0.14954   0.99328   0.00000  Uiso   1.00
C49    C     0.04578   0.09617   0.96743   0.00000  Uiso   1.00
C50    C     0.10741   0.09784   0.95509   0.00000  Uiso   1.00
C51    C     0.21026   0.07680   0.92641   0.00000  Uiso   1.00
C52    C     0.97389   0.15224   0.07033   0.00000  Uiso   1.00
C53    C     0.98126   0.10114   0.10925   0.00000  Uiso   1.00
C54    C     0.01338   0.10509   0.16177   0.00000  Uiso   1.00
C55    C     0.06176   0.08827   0.25270   0.00000  Uiso   1.00
C56    C     0.86842   0.23889   0.98435   0.00000  Uiso   1.00
C57    C     0.78709   0.26067   0.95098   0.00000  Uiso   1.00
C58    C     0.73040   0.33758   0.93112   0.00000  Uiso   1.00
C59    C     0.61502   0.45531   0.88855   0.00000  Uiso   1.00
C60    C     0.98430   0.25575   0.03455   0.00000  Uiso   1.00
C61    C     0.03279   0.20270   0.00636   0.00000  Uiso   1.00
C62    C     0.09437   0.20446   0.99405   0.00000  Uiso   1.00
C63    C     0.13130   0.15110   0.96818   0.00000  Uiso   1.00
C64    C     0.99775   0.20540   0.08340   0.00000  Uiso   1.00
C65    C     0.02985   0.20943   0.13588   0.00000  Uiso   1.00
C66    C     0.03727   0.15835   0.17487   0.00000  Uiso   1.00
C67    C     0.89227   0.29206   0.99742   0.00000  Uiso   1.00
C68    C     0.83569   0.36896   0.97760   0.00000  Uiso   1.00
C69    C     0.75430   0.39084   0.94421   0.00000  Uiso   1.00
H70    H     0.92181   0.11648   0.00032   0.00000  Uiso   1.00
H71    H     0.02731   0.05503   0.95732   0.00000  Uiso   1.00
H72    H     0.96279   0.06001   0.09912   0.00000  Uiso   1.00
H73    H     0.76866   0.21951   0.94088   0.00000  Uiso   1.00
H74    H     0.15482   0.01034   0.91544   0.00000  Uiso   1.00
H75    H     0.01875   0.02085   0.21443   0.00000  Uiso   1.00
H76    H     0.60938   0.35719   0.88074   0.00000  Uiso   1.00
H77    H     0.00287   0.29714   0.04473   0.00000  Uiso   1.00
H78    H     0.11282   0.24561   0.00417   0.00000  Uiso   1.00
H79    H     0.04830   0.25058   0.14597   0.00000  Uiso   1.00
H80    H     0.85417   0.41008   0.98773   0.00000  Uiso   1.00
H81    H     0.22422   0.16501   0.95346   0.00000  Uiso   1.00
H82    H     0.08815   0.17552   0.25246   0.00000  Uiso   1.00
H83    H     0.67878   0.51186   0.91876   0.00000  Uiso   1.00
O84    O     0.26040   0.05050   0.90698   0.00000  Uiso   1.00
O85    O     0.08187   0.06430   0.29925   0.00000  Uiso   1.00
O86    O     0.54479   0.50557   0.86145   0.00000  Uiso   1.00
N87    N     0.15605   0.05382   0.92994   0.00000  Uiso   1.00
N88    N     0.02884   0.06364   0.20949   0.00000  Uiso   1.00
N89    N     0.64612   0.37809   0.89752   0.00000  Uiso   1.00
N90    N     0.19340   0.13705   0.95040   0.00000  Uiso   1.00
N91    N     0.06619   0.14687   0.22995   0.00000  Uiso   1.00
N92    N     0.68346   0.46132   0.91798   0.00000  Uiso   1.00
C93    C     0.43627   0.74677   0.03484   0.00000  Uiso   1.00
C94    C     0.43898   0.67705   0.01700   0.00000  Uiso   1.00
C95    C     0.37556   0.66074   0.00515   0.00000  Uiso   1.00
C96    C     0.39017   0.59410   0.98956   0.00000  Uiso   1.00
C97    C     0.38294   0.49320   0.96243   0.00000  Uiso   1.00
C98    C     0.51169   0.71761   0.08791   0.00000  Uiso   1.00
C99    C     0.50939   0.73541   0.13567   0.00000  Uiso   1.00
C100   C     0.58521   0.70292   0.17976   0.00000  Uiso   1.00
C101   C     0.69086   0.66503   0.26270   0.00000  Uiso   1.00
C102   C     0.45320   0.78443   0.99508   0.00000  Uiso   1.00
C103   C     0.40174   0.85843   0.96479   0.00000  Uiso   1.00
C104   C     0.42833   0.88220   0.93073   0.00000  Uiso   1.00
C105   C     0.44316   0.94806   0.86954   0.00000  Uiso   1.00
C106   C     0.57499   0.65742   0.02821   0.00000  Uiso   1.00
C107   C     0.51433   0.62852   0.01340   0.00000  Uiso   1.00
C108   C     0.52904   0.56189   0.99782   0.00000  Uiso   1.00
C109   C     0.46565   0.54549   0.98594   0.00000  Uiso   1.00
C110   C     0.58703   0.66908   0.08431   0.00000  Uiso   1.00
C111   C     0.66287   0.63655   0.12833   0.00000  Uiso   1.00
C112   C     0.66069   0.65430   0.17615   0.00000  Uiso   1.00
C113   C     0.52854   0.73590   0.99147   0.00000  Uiso   1.00
C114   C     0.55522   0.75957   0.95745   0.00000  Uiso   1.00
C115   C     0.50381   0.83358   0.92712   0.00000  Uiso   1.00
H116   H     0.37761   0.78456   0.03765   0.00000  Uiso   1.00
H117   H     0.31727   0.69831   0.00795   0.00000  Uiso   1.00
H118   H     0.45108   0.77297   0.13844   0.00000  Uiso   1.00
H119   H     0.34344   0.89597   0.96759   0.00000  Uiso   1.00
H120   H     0.28360   0.58128   0.97346   0.00000  Uiso   1.00
H121   H     0.56575   0.73873   0.24860   0.00000  Uiso   1.00
H122   H     0.33878   0.99808   0.88833   0.00000  Uiso   1.00
H123   H     0.63365   0.61964   0.02541   0.00000  Uiso   1.00
H124   H     0.58735   0.52434   0.99503   0.00000  Uiso   1.00
H125   H     0.72116   0.59900   0.12553   0.00000  Uiso   1.00
H126   H     0.61353   0.72199   0.95468   0.00000  Uiso   1.00
H127   H     0.50282   0.44007   0.96297   0.00000  Uiso   1.00
H128   H     0.78497   0.59753   0.23812   0.00000  Uiso   1.00
H129   H     0.55800   0.85688   0.87785   0.00000  Uiso   1.00
O130   O     0.35815   0.45095   0.94847   0.00000  Uiso   1.00
O131   O     0.72831   0.65753   0.30945   0.00000  Uiso   1.00
O132   O     0.43053   0.99780   0.83678   0.00000  Uiso   1.00
N133   N     0.34154   0.56113   0.97515   0.00000  Uiso   1.00
N134   N     0.60533   0.70833   0.23239   0.00000  Uiso   1.00
N135   N     0.39314   0.95081   0.89558   0.00000  Uiso   1.00
N136   N     0.45950   0.48515   0.96950   0.00000  Uiso   1.00
N137   N     0.72329   0.63235   0.22675   0.00000  Uiso   1.00
N138   N     0.51110   0.87483   0.88994   0.00000  Uiso   1.00
C139   C     0.66087   0.10438   0.41051   0.00000  Uiso   1.00
C140   C     0.60269   0.07350   0.40417   0.00000  Uiso   1.00
C141   C     0.62741   0.99838   0.42029   0.00000  Uiso   1.00
C142   C     0.56462   0.98160   0.41093   0.00000  Uiso   1.00
C143   C     0.48713   0.92508   0.40484   0.00000  Uiso   1.00
C144   C     0.63677   0.16452   0.44170   0.00000  Uiso   1.00
C145   C     0.69014   0.16593   0.48937   0.00000  Uiso   1.00
C146   C     0.65604   0.22578   0.51160   0.00000  Uiso   1.00
C147   C     0.63146   0.31060   0.56376   0.00000  Uiso   1.00
C148   C     0.63663   0.14624   0.35465   0.00000  Uiso   1.00
C149   C     0.68988   0.13230   0.32913   0.00000  Uiso   1.00
C150   C     0.65567   0.17677   0.27808   0.00000  Uiso   1.00
C151   C     0.63087   0.23321   0.19508   0.00000  Uiso   1.00
C152   C     0.50542   0.20816   0.36523   0.00000  Uiso   1.00
C153   C     0.51825   0.12987   0.37957   0.00000  Uiso   1.00
C154   C     0.45541   0.11319   0.37018   0.00000  Uiso   1.00
C155   C     0.48003   0.03806   0.38629   0.00000  Uiso   1.00
C156   C     0.55233   0.22088   0.41710   0.00000  Uiso   1.00
C157   C     0.51815   0.28075   0.43926   0.00000  Uiso   1.00
C158   C     0.57145   0.28225   0.48696   0.00000  Uiso   1.00
C159   C     0.55219   0.20261   0.33005   0.00000  Uiso   1.00
C160   C     0.51788   0.24711   0.27903   0.00000  Uiso   1.00
C161   C     0.57108   0.23324   0.25344   0.00000  Uiso   1.00
H162   H     0.72661   0.06050   0.42967   0.00000  Uiso   1.00
H163   H     0.69276   0.95478   0.43933   0.00000  Uiso   1.00
H164   H     0.75548   0.12231   0.50839   0.00000  Uiso   1.00
H165   H     0.75522   0.08868   0.34818   0.00000  Uiso   1.00
H166   H     0.61799   0.86242   0.43921   0.00000  Uiso   1.00
H167   H     0.75025   0.21569   0.58483   0.00000  Uiso   1.00
H168   H     0.74971   0.14478   0.24699   0.00000  Uiso   1.00
H169   H     0.43967   0.25204   0.34608   0.00000  Uiso   1.00
H170   H     0.39007   0.15683   0.35115   0.00000  Uiso   1.00
H171   H     0.45280   0.32436   0.42022   0.00000  Uiso   1.00
H172   H     0.45254   0.29073   0.26000   0.00000  Uiso   1.00
H173   H     0.37232   0.02642   0.36764   0.00000  Uiso   1.00
H174   H     0.50459   0.37968   0.51326   0.00000  Uiso   1.00
H175   H     0.50403   0.30877   0.17542   0.00000  Uiso   1.00
O176   O     0.46771   0.87833   0.40828   0.00000  Uiso   1.00
O177   O     0.64123   0.34181   0.59933   0.00000  Uiso   1.00
O178   O     0.64051   0.24877   0.15609   0.00000  Uiso   1.00
N179   N     0.56698   0.91408   0.42166   0.00000  Uiso   1.00
N180   N     0.69064   0.24436   0.55781   0.00000  Uiso   1.00
N181   N     0.69013   0.17807   0.24197   0.00000  Uiso   1.00
N182   N     0.43479   0.00233   0.38315   0.00000  Uiso   1.00
N183   N     0.55844   0.33260   0.51930   0.00000  Uiso   1.00
N184   N     0.55793   0.26632   0.20345   0.00000  Uiso   1.00
C185   C     0.04623   0.35040   0.50027   0.00000  Uiso   1.00
C186   C     0.08270   0.29295   0.46991   0.00000  Uiso   1.00
C187   C     0.13829   0.28908   0.44854   0.00000  Uiso   1.00
C188   C     0.16434   0.23238   0.42221   0.00000  Uiso   1.00
C189   C     0.22535   0.15091   0.37582   0.00000  Uiso   1.00
C190   C     0.06829   0.30473   0.55421   0.00000  Uiso   1.00
C191   C     0.11174   0.31076   0.60372   0.00000  Uiso   1.00
C192   C     0.12564   0.26397   0.64835   0.00000  Uiso   1.00
C193   C     0.16422   0.20082   0.73283   0.00000  Uiso   1.00
C194   C     0.95167   0.38923   0.47069   0.00000  Uiso   1.00
C195   C     0.89706   0.46632   0.44999   0.00000  Uiso   1.00
C196   C     0.81278   0.49069   0.42432   0.00000  Uiso   1.00
C197   C     0.67029   0.55874   0.37913   0.00000  Uiso   1.00
C198   C     0.99365   0.25660   0.49150   0.00000  Uiso   1.00
C199   C     0.05414   0.24201   0.46515   0.00000  Uiso   1.00
C200   C     0.08011   0.18530   0.43884   0.00000  Uiso   1.00
C201   C     0.13572   0.18134   0.41744   0.00000  Uiso   1.00
C202   C     0.03973   0.25378   0.54945   0.00000  Uiso   1.00
C203   C     0.05356   0.20698   0.59401   0.00000  Uiso   1.00
C204   C     0.09703   0.21294   0.64358   0.00000  Uiso   1.00
C205   C     0.92311   0.33829   0.46593   0.00000  Uiso   1.00
C206   C     0.83889   0.36254   0.44029   0.00000  Uiso   1.00
C207   C     0.78416   0.43965   0.41955   0.00000  Uiso   1.00
H208   H     0.06847   0.39006   0.50398   0.00000  Uiso   1.00
H209   H     0.16038   0.32851   0.45224   0.00000  Uiso   1.00
H210   H     0.13383   0.35019   0.60739   0.00000  Uiso   1.00
H211   H     0.91919   0.50573   0.45369   0.00000  Uiso   1.00
H212   H     0.24971   0.23779   0.39279   0.00000  Uiso   1.00
H213   H     0.19370   0.28352   0.71993   0.00000  Uiso   1.00
H214   H     0.74109   0.61150   0.39582   0.00000  Uiso   1.00
H215   H     0.97141   0.21693   0.48780   0.00000  Uiso   1.00
H216   H     0.05799   0.14588   0.43516   0.00000  Uiso   1.00
H217   H     0.03145   0.16756   0.59031   0.00000  Uiso   1.00
H218   H     0.81681   0.32310   0.43661   0.00000  Uiso   1.00
H219   H     0.16662   0.08955   0.37893   0.00000  Uiso   1.00
H220   H     0.11060   0.13529   0.70607   0.00000  Uiso   1.00
H221   H     0.65799   0.46327   0.38196   0.00000  Uiso   1.00
O222   O     0.26690   0.12004   0.35155   0.00000  Uiso   1.00
O223   O     0.19340   0.18006   0.78074   0.00000  Uiso   1.00
O224   O     0.59959   0.61035   0.35551   0.00000  Uiso   1.00
N225   N     0.21826   0.21266   0.39675   0.00000  Uiso   1.00
N226   N     0.16591   0.25541   0.70260   0.00000  Uiso   1.00
N227   N     0.74275   0.56205   0.39959   0.00000  Uiso   1.00
N228   N     0.17354   0.13290   0.38929   0.00000  Uiso   1.00
N229   N     0.12119   0.17565   0.69514   0.00000  Uiso   1.00
N230   N     0.69803   0.48229   0.39213   0.00000  Uiso   1.00
C231   C     0.26669   0.65005   0.49285   0.00000  Uiso   1.00
C232   C     0.28641   0.70396   0.46924   0.00000  Uiso   1.00
C233   C     0.23857   0.78213   0.45613   0.00000  Uiso   1.00
C234   C     0.26727   0.82136   0.43500   0.00000  Uiso   1.00
C235   C     0.28668   0.91080   0.39953   0.00000  Uiso   1.00
C236   C     0.34284   0.60001   0.54460   0.00000  Uiso   1.00
C237   C     0.34242   0.59078   0.59485   0.00000  Uiso   1.00
C238   C     0.41862   0.54250   0.63715   0.00000  Uiso   1.00
C239   C     0.52562   0.47052   0.71867   0.00000  Uiso   1.00
C240   C     0.26404   0.59865   0.45498   0.00000  Uiso   1.00
C241   C     0.19738   0.58826   0.42989   0.00000  Uiso   1.00
C242   C     0.20724   0.53882   0.39674   0.00000  Uiso   1.00
C243   C     0.19190   0.46473   0.33912   0.00000  Uiso   1.00
C244   C     0.40273   0.58071   0.47863   0.00000  Uiso   1.00
C245   C     0.36031   0.66630   0.46152   0.00000  Uiso   1.00
C246   C     0.38909   0.70542   0.44039   0.00000  Uiso   1.00
C247   C     0.34129   0.78364   0.42725   0.00000  Uiso   1.00
C248   C     0.41673   0.56235   0.53687   0.00000  Uiso   1.00
C249   C     0.49294   0.51407   0.57911   0.00000  Uiso   1.00
C250   C     0.49265   0.50477   0.62941   0.00000  Uiso   1.00
C251   C     0.33793   0.56099   0.44725   0.00000  Uiso   1.00
C252   C     0.34790   0.51155   0.41415   0.00000  Uiso   1.00
C253   C     0.28127   0.50109   0.38900   0.00000  Uiso   1.00
H254   H     0.20916   0.67936   0.49887   0.00000  Uiso   1.00
H255   H     0.18139   0.81125   0.46212   0.00000  Uiso   1.00
H256   H     0.28523   0.61992   0.60081   0.00000  Uiso   1.00
H257   H     0.14021   0.61741   0.43588   0.00000  Uiso   1.00
H258   H     0.18321   0.94087   0.41799   0.00000  Uiso   1.00
H259   H     0.40215   0.53743   0.71042   0.00000  Uiso   1.00
H260   H     0.09635   0.53212   0.36262   0.00000  Uiso   1.00
H261   H     0.46026   0.55139   0.47261   0.00000  Uiso   1.00
H262   H     0.44627   0.67626   0.43442   0.00000  Uiso   1.00
H263   H     0.55011   0.48494   0.57311   0.00000  Uiso   1.00
H264   H     0.40509   0.48242   0.40817   0.00000  Uiso   1.00
H265   H     0.39820   0.83131   0.39550   0.00000  Uiso   1.00
H266   H     0.61714   0.42786   0.68794   0.00000  Uiso   1.00
H267   H     0.31134   0.42256   0.34014   0.00000  Uiso   1.00
O268   O     0.27699   0.97054   0.38211   0.00000  Uiso   1.00
O269   O     0.56423   0.44123   0.76577   0.00000  Uiso   1.00
O270   O     0.16302   0.43427   0.30947   0.00000  Uiso   1.00
N271   N     0.23572   0.89795   0.41793   0.00000  Uiso   1.00
N272   N     0.44042   0.52076   0.69134   0.00000  Uiso   1.00
N273   N     0.15453   0.51579   0.36619   0.00000  Uiso   1.00
N274   N     0.35140   0.83899   0.40583   0.00000  Uiso   1.00
N275   N     0.55610   0.46181   0.67924   0.00000  Uiso   1.00
N276   N     0.27021   0.45683   0.35409   0.00000  Uiso   1.00
C277   C     0.52234   0.92955   0.22989   0.00000  Uiso   1.00
C278   C     0.60268   0.91224   0.27593   0.00000  Uiso   1.00
C279   C     0.65645   0.84597   0.31588   0.00000  Uiso   1.00
C280   C     0.72667   0.84109   0.35440   0.00000  Uiso   1.00
C281   C     0.84904   0.80519   0.42609   0.00000  Uiso   1.00
C282   C     0.53111   0.94874   0.17893   0.00000  Uiso   1.00
C283   C     0.52470   0.91316   0.13731   0.00000  Uiso   1.00
C284   C     0.53467   0.93902   0.09418   0.00000  Uiso   1.00
C285   C     0.54587   0.95982   0.01526   0.00000  Uiso   1.00
C286   C     0.45317   0.00248   0.23301   0.00000  Uiso   1.00
C287   C     0.38121   0.01209   0.23685   0.00000  Uiso   1.00
C288   C     0.32556   0.08320   0.23924   0.00000  Uiso   1.00
C289   C     0.21574   0.18744   0.24429   0.00000  Uiso   1.00
C290   C     0.55144   0.03874   0.22727   0.00000  Uiso   1.00
C291   C     0.61849   0.97156   0.27451   0.00000  Uiso   1.00
C292   C     0.68865   0.96678   0.31298   0.00000  Uiso   1.00
C293   C     0.74251   0.90051   0.35298   0.00000  Uiso   1.00
C294   C     0.54692   0.00805   0.17751   0.00000  Uiso   1.00
C295   C     0.55690   0.03397   0.13442   0.00000  Uiso   1.00
C296   C     0.55051   0.99844   0.09275   0.00000  Uiso   1.00
C297   C     0.46898   0.06179   0.23159   0.00000  Uiso   1.00
C298   C     0.41342   0.13291   0.23396   0.00000  Uiso   1.00
C299   C     0.34139   0.14262   0.23781   0.00000  Uiso   1.00
H300   H     0.51003   0.88337   0.23099   0.00000  Uiso   1.00
H301   H     0.64419   0.80008   0.31696   0.00000  Uiso   1.00
H302   H     0.51245   0.86727   0.13842   0.00000  Uiso   1.00
H303   H     0.36900   0.96618   0.23795   0.00000  Uiso   1.00
H304   H     0.79993   0.73388   0.41163   0.00000  Uiso   1.00
H305   H     0.52212   0.87557   0.03517   0.00000  Uiso   1.00
H306   H     0.21961   0.08415   0.24504   0.00000  Uiso   1.00
H307   H     0.56375   0.08492   0.22616   0.00000  Uiso   1.00
H308   H     0.70087   0.01269   0.31187   0.00000  Uiso   1.00
H309   H     0.56913   0.07988   0.13333   0.00000  Uiso   1.00
H310   H     0.42567   0.17879   0.23286   0.00000  Uiso   1.00
H311   H     0.84593   0.90644   0.40750   0.00000  Uiso   1.00
H312   H     0.56812   0.04813   0.03104   0.00000  Uiso   1.00
H313   H     0.26561   0.25671   0.24091   0.00000  Uiso   1.00
O314   O     0.91217   0.76899   0.46602   0.00000  Uiso   1.00
O315   O     0.54768   0.95489   0.97212   0.00000  Uiso   1.00
O316   O     0.15081   0.22855   0.24747   0.00000  Uiso   1.00
N317   N     0.79193   0.78441   0.39890   0.00000  Uiso   1.00
N318   N     0.53221   0.91687   0.04694   0.00000  Uiso   1.00
N319   N     0.24938   0.11189   0.24314   0.00000  Uiso   1.00
N320   N     0.81668   0.87726   0.39668   0.00000  Uiso   1.00
N321   N     0.55696   0.00973   0.04472   0.00000  Uiso   1.00
N322   N     0.27413   0.20474   0.24092   0.00000  Uiso   1.00
C323   C     0.19252   0.81839   0.24701   0.00000  Uiso   1.00
C324   C     0.13298   0.82924   0.27352   0.00000  Uiso   1.00
C325   C     0.11246   0.87903   0.30545   0.00000  Uiso   1.00
C326   C     0.05678   0.88055   0.32595   0.00000  Uiso   1.00
C327   C     0.96945   0.90451   0.36877   0.00000  Uiso   1.00
C328   C     0.14283   0.83236   0.18749   0.00000  Uiso   1.00
C329   C     0.13062   0.88476   0.14709   0.00000  Uiso   1.00
C330   C     0.08324   0.88889   0.09517   0.00000  Uiso   1.00
C331   C     0.01126   0.91766   0.00443   0.00000  Uiso   1.00
C332   C     0.25898   0.73476   0.26605   0.00000  Uiso   1.00
C333   C     0.34443   0.70510   0.29170   0.00000  Uiso   1.00
C334   C     0.39484   0.62706   0.30591   0.00000  Uiso   1.00
C335   C     0.50320   0.50429   0.33715   0.00000  Uiso   1.00
C336   C     0.13011   0.73254   0.22663   0.00000  Uiso   1.00
C337   C     0.09908   0.78261   0.26244   0.00000  Uiso   1.00
C338   C     0.04341   0.78405   0.28290   0.00000  Uiso   1.00
C339   C     0.02282   0.83383   0.31486   0.00000  Uiso   1.00
C340   C     0.10893   0.78573   0.17642   0.00000  Uiso   1.00
C341   C     0.06157   0.78978   0.12454   0.00000  Uiso   1.00
C342   C     0.04928   0.84218   0.08408   0.00000  Uiso   1.00
C343   C     0.22508   0.68813   0.25498   0.00000  Uiso   1.00
C344   C     0.27537   0.61012   0.26915   0.00000  Uiso   1.00
C345   C     0.36088   0.58034   0.29482   0.00000  Uiso   1.00
H346   H     0.21891   0.85470   0.25562   0.00000  Uiso   1.00
H347   H     0.13871   0.91511   0.31400   0.00000  Uiso   1.00
H348   H     0.15686   0.92083   0.15567   0.00000  Uiso   1.00
H349   H     0.37064   0.74120   0.30026   0.00000  Uiso   1.00
H350   H     0.03481   0.96155   0.37383   0.00000  Uiso   1.00
H351   H     0.07312   0.97360   0.03997   0.00000  Uiso   1.00
H352   H     0.52391   0.59480   0.34487   0.00000  Uiso   1.00
H353   H     0.10372   0.69624   0.21801   0.00000  Uiso   1.00
H354   H     0.01719   0.74796   0.27433   0.00000  Uiso   1.00
H355   H     0.03535   0.75368   0.11599   0.00000  Uiso   1.00
H356   H     0.24912   0.57405   0.26058   0.00000  Uiso   1.00
H357   H     0.93618   0.82588   0.34163   0.00000  Uiso   1.00
H358   H     0.97450   0.83793   0.00777   0.00000  Uiso   1.00
H359   H     0.42528   0.45914   0.31266   0.00000  Uiso   1.00
O360   O     0.93063   0.93061   0.39544   0.00000  Uiso   1.00
O361   O     0.98091   0.94641   0.95744   0.00000  Uiso   1.00
O362   O     0.57232   0.44945   0.35745   0.00000  Uiso   1.00
N363   N     0.02348   0.92251   0.35853   0.00000  Uiso   1.00
N364   N     0.05929   0.93378   0.04640   0.00000  Uiso   1.00
N365   N     0.48074   0.57965   0.33143   0.00000  Uiso   1.00
N366   N     0.97041   0.84951   0.34120   0.00000  Uiso   1.00
N367   N     0.00622   0.86078   0.02907   0.00000  Uiso   1.00
N368   N     0.42767   0.50664   0.31410   0.00000  Uiso   1.00
C369   C     0.89848   0.27417   0.27303   0.00000  Uiso   1.00
C370   C     0.90068   0.34325   0.28881   0.00000  Uiso   1.00
C371   C     0.96822   0.35384   0.30125   0.00000  Uiso   1.00
C372   C     0.95776   0.42090   0.31467   0.00000  Uiso   1.00
C373   C     0.97262   0.51990   0.33900   0.00000  Uiso   1.00
C374   C     0.82485   0.30363   0.21898   0.00000  Uiso   1.00
C375   C     0.82863   0.28091   0.17271   0.00000  Uiso   1.00
C376   C     0.75432   0.31462   0.12736   0.00000  Uiso   1.00
C377   C     0.65144   0.35207   0.04328   0.00000  Uiso   1.00
C378   C     0.87486   0.24434   0.31249   0.00000  Uiso   1.00
C379   C     0.92069   0.17175   0.34483   0.00000  Uiso   1.00
C380   C     0.88848   0.15554   0.37820   0.00000  Uiso   1.00
C381   C     0.86326   0.10093   0.43931   0.00000  Uiso   1.00
C382   C     0.75979   0.37444   0.27476   0.00000  Uiso   1.00
C383   C     0.82535   0.39771   0.28974   0.00000  Uiso   1.00
C384   C     0.81478   0.46477   0.30316   0.00000  Uiso   1.00
C385   C     0.88229   0.47546   0.31562   0.00000  Uiso   1.00
C386   C     0.74952   0.35809   0.21992   0.00000  Uiso   1.00
C387   C     0.67518   0.39184   0.17462   0.00000  Uiso   1.00
C388   C     0.67885   0.36918   0.12829   0.00000  Uiso   1.00
C389   C     0.79953   0.29880   0.31343   0.00000  Uiso   1.00
C390   C     0.76724   0.28269   0.34674   0.00000  Uiso   1.00
C391   C     0.81301   0.21010   0.37914   0.00000  Uiso   1.00
H392   H     0.95713   0.23176   0.27230   0.00000  Uiso   1.00
H393   H     0.02651   0.31168   0.30051   0.00000  Uiso   1.00
H394   H     0.88693   0.23875   0.17200   0.00000  Uiso   1.00
H395   H     0.97898   0.12962   0.34410   0.00000  Uiso   1.00
H396   H     0.07020   0.42431   0.33219   0.00000  Uiso   1.00
H397   H     0.77590   0.27052   0.06121   0.00000  Uiso   1.00
H398   H     0.96999   0.04039   0.42411   0.00000  Uiso   1.00
H399   H     0.70114   0.41684   0.27549   0.00000  Uiso   1.00
H400   H     0.75647   0.50691   0.30388   0.00000  Uiso   1.00
H401   H     0.61690   0.43399   0.17536   0.00000  Uiso   1.00
H402   H     0.70894   0.32485   0.34746   0.00000  Uiso   1.00
H403   H     0.85103   0.58277   0.33491   0.00000  Uiso   1.00
H404   H     0.55672   0.42898   0.06394   0.00000  Uiso   1.00
H405   H     0.75082   0.19885   0.42684   0.00000  Uiso   1.00
O406   O     0.00162   0.55946   0.35215   0.00000  Uiso   1.00
O407   O     0.61551   0.35769   0.99665   0.00000  Uiso   1.00
O408   O     0.87016   0.05577   0.47277   0.00000  Uiso   1.00
N409   N     0.01103   0.44923   0.32894   0.00000  Uiso   1.00
N410   N     0.73588   0.30546   0.07560   0.00000  Uiso   1.00
N411   N     0.91733   0.09030   0.41487   0.00000  Uiso   1.00
N412   N     0.89309   0.53450   0.33041   0.00000  Uiso   1.00
N413   N     0.61794   0.39073   0.07706   0.00000  Uiso   1.00
N414   N     0.79939   0.17557   0.41634   0.00000  Uiso   1.00
C415   C     0.53036   0.18386   0.69960   0.00000  Uiso   1.00
C416   C     0.60326   0.19764   0.71831   0.00000  Uiso   1.00
C417   C     0.60594   0.25380   0.74338   0.00000  Uiso   1.00
C418   C     0.67830   0.25705   0.75737   0.00000  Uiso   1.00
C419   C     0.78126   0.28624   0.78802   0.00000  Uiso   1.00
C420   C     0.50687   0.18732   0.64020   0.00000  Uiso   1.00
C421   C     0.42848   0.23480   0.59961   0.00000  Uiso   1.00
C422   C     0.41970   0.22935   0.54785   0.00000  Uiso   1.00
C423   C     0.37298   0.24249   0.45725   0.00000  Uiso   1.00
C424   C     0.56575   0.10216   0.72676   0.00000  Uiso   1.00
C425   C     0.53687   0.07801   0.75893   0.00000  Uiso   1.00
C426   C     0.57765   0.00086   0.78004   0.00000  Uiso   1.00
C427   C     0.62236   0.88176   0.82383   0.00000  Uiso   1.00
C428   C     0.65411   0.08978   0.67987   0.00000  Uiso   1.00
C429   C     0.67048   0.14654   0.70759   0.00000  Uiso   1.00
C430   C     0.74286   0.14971   0.72155   0.00000  Uiso   1.00
C431   C     0.74564   0.20586   0.74664   0.00000  Uiso   1.00
C432   C     0.57408   0.13622   0.62949   0.00000  Uiso   1.00
C433   C     0.56541   0.13070   0.57778   0.00000  Uiso   1.00
C434   C     0.48704   0.17816   0.53711   0.00000  Uiso   1.00
C435   C     0.63297   0.05105   0.71605   0.00000  Uiso   1.00
C436   C     0.67379   0.97392   0.73711   0.00000  Uiso   1.00
C437   C     0.64499   0.94967   0.76930   0.00000  Uiso   1.00
H438   H     0.47802   0.22365   0.70794   0.00000  Uiso   1.00
H439   H     0.55390   0.29334   0.75166   0.00000  Uiso   1.00
H440   H     0.37648   0.27433   0.60791   0.00000  Uiso   1.00
H441   H     0.48485   0.11758   0.76721   0.00000  Uiso   1.00
H442   H     0.66766   0.34808   0.79538   0.00000  Uiso   1.00
H443   H     0.29354   0.30799   0.49229   0.00000  Uiso   1.00
H444   H     0.52206   0.97744   0.82821   0.00000  Uiso   1.00
H445   H     0.70645   0.04999   0.67153   0.00000  Uiso   1.00
H446   H     0.79487   0.11015   0.71326   0.00000  Uiso   1.00
H447   H     0.61744   0.09115   0.56951   0.00000  Uiso   1.00
H448   H     0.72581   0.93439   0.72881   0.00000  Uiso   1.00
H449   H     0.86323   0.19940   0.76421   0.00000  Uiso   1.00
H450   H     0.48911   0.15931   0.46112   0.00000  Uiso   1.00
H451   H     0.71764   0.82876   0.79704   0.00000  Uiso   1.00
O452   O     0.81948   0.31647   0.80789   0.00000  Uiso   1.00
O453   O     0.32865   0.26386   0.41024   0.00000  Uiso   1.00
O454   O     0.62846   0.83019   0.85096   0.00000  Uiso   1.00
N455   N     0.70156   0.30483   0.78233   0.00000  Uiso   1.00
N456   N     0.35179   0.26735   0.49895   0.00000  Uiso   1.00
N457   N     0.56542   0.95831   0.81300   0.00000  Uiso   1.00
N458   N     0.80680   0.22482   0.76556   0.00000  Uiso   1.00
N459   N     0.45702   0.18735   0.48218   0.00000  Uiso   1.00
N460   N     0.67066   0.87831   0.79623   0.00000  Uiso   1.00
C461   C     0.21421   0.84186   0.71588   0.00000  Uiso   1.00
C462   C     0.16969   0.90239   0.74175   0.00000  Uiso   1.00
C463   C     0.11085   0.90635   0.75992   0.00000  Uiso   1.00
C464   C     0.07736   0.96611   0.78237   0.00000  Uiso   1.00
C465   C     0.00446   0.05193   0.82190   0.00000  Uiso   1.00
C466   C     0.19654   0.88368   0.66178   0.00000  Uiso   1.00
C467   C     0.16030   0.87191   0.61271   0.00000  Uiso   1.00
C468   C     0.14943   0.91592   0.56783   0.00000  Uiso   1.00
C469   C     0.11828   0.97266   0.48320   0.00000  Uiso   1.00
C470   C     0.30735   0.80742   0.74927   0.00000  Uiso   1.00
C471   C     0.36428   0.73152   0.77376   0.00000  Uiso   1.00
C472   C     0.44671   0.71132   0.80254   0.00000  Uiso   1.00
C473   C     0.58760   0.64964   0.85376   0.00000  Uiso   1.00
C474   C     0.25937   0.94094   0.72344   0.00000  Uiso   1.00
C475   C     0.19421   0.95620   0.74586   0.00000  Uiso   1.00
C476   C     0.16081   0.01597   0.76829   0.00000  Uiso   1.00
C477   C     0.10194   0.02002   0.78649   0.00000  Uiso   1.00
C478   C     0.22107   0.93750   0.66588   0.00000  Uiso   1.00
C479   C     0.21026   0.98153   0.62107   0.00000  Uiso   1.00
C480   C     0.17400   0.96983   0.57194   0.00000  Uiso   1.00
C481   C     0.33188   0.86123   0.75338   0.00000  Uiso   1.00
C482   C     0.41424   0.84114   0.78212   0.00000  Uiso   1.00
C483   C     0.47128   0.76523   0.80665   0.00000  Uiso   1.00
H484   H     0.19512   0.79996   0.71268   0.00000  Uiso   1.00
H485   H     0.09188   0.86469   0.75674   0.00000  Uiso   1.00
H486   H     0.14133   0.83025   0.60955   0.00000  Uiso   1.00
H487   H     0.34528   0.68989   0.77058   0.00000  Uiso   1.00
H488   H     0.98822   0.96021   0.80737   0.00000  Uiso   1.00
H489   H     0.09251   0.88757   0.49701   0.00000  Uiso   1.00
H490   H     0.52257   0.59158   0.83658   0.00000  Uiso   1.00
H491   H     0.27846   0.98284   0.72663   0.00000  Uiso   1.00
H492   H     0.17980   0.05761   0.77146   0.00000  Uiso   1.00
H493   H     0.22925   0.02317   0.62426   0.00000  Uiso   1.00
H494   H     0.43319   0.88280   0.78529   0.00000  Uiso   1.00
H495   H     0.05958   0.11679   0.81932   0.00000  Uiso   1.00
H496   H     0.16387   0.04415   0.50896   0.00000  Uiso   1.00
H497   H     0.59393   0.74816   0.84852   0.00000  Uiso   1.00
O498   O     0.95747   0.08440   0.84257   0.00000  Uiso   1.00
O499   O     0.09431   0.98909   0.43539   0.00000  Uiso   1.00
O500   O     0.65854   0.60076   0.88089   0.00000  Uiso   1.00
N501   N     0.01857   0.98679   0.80404   0.00000  Uiso   1.00
N502   N     0.11606   0.91889   0.51387   0.00000  Uiso   1.00
N503   N     0.51814   0.64216   0.83133   0.00000  Uiso   1.00
N504   N     0.05696   0.07105   0.81047   0.00000  Uiso   1.00
N505   N     0.15445   0.00314   0.52030   0.00000  Uiso   1.00
N506   N     0.55653   0.72641   0.83775   0.00000  Uiso   1.00
C507   C     0.96911   0.58152   0.76617   0.00000  Uiso   1.00
C508   C     0.96713   0.50950   0.77711   0.00000  Uiso   1.00
C509   C     0.03374   0.43647   0.78985   0.00000  Uiso   1.00
C510   C     0.01927   0.37819   0.79839   0.00000  Uiso   1.00
C511   C     0.02808   0.26420   0.81596   0.00000  Uiso   1.00
C512   C     0.90014   0.62719   0.71089   0.00000  Uiso   1.00
C513   C     0.91044   0.65311   0.66796   0.00000  Uiso   1.00
C514   C     0.83957   0.69390   0.62076   0.00000  Uiso   1.00
C515   C     0.74438   0.76267   0.53554   0.00000  Uiso   1.00
C516   C     0.94128   0.62592   0.80537   0.00000  Uiso   1.00
C517   C     0.98614   0.65079   0.84187   0.00000  Uiso   1.00
C518   C     0.94989   0.69053   0.87420   0.00000  Uiso   1.00
C519   C     0.91857   0.75732   0.93567   0.00000  Uiso   1.00
C520   C     0.82495   0.60788   0.75867   0.00000  Uiso   1.00
C521   C     0.88883   0.52382   0.77303   0.00000  Uiso   1.00
C522   C     0.87425   0.46563   0.78155   0.00000  Uiso   1.00
C523   C     0.94083   0.39253   0.79430   0.00000  Uiso   1.00
C524   C     0.82184   0.64151   0.70681   0.00000  Uiso   1.00
C525   C     0.75094   0.68227   0.65966   0.00000  Uiso   1.00
C526   C     0.76112   0.70825   0.61667   0.00000  Uiso   1.00
C527   C     0.86297   0.64024   0.80129   0.00000  Uiso   1.00
C528   C     0.82665   0.67995   0.83357   0.00000  Uiso   1.00
C529   C     0.87145   0.70488   0.87011   0.00000  Uiso   1.00
H530   H     0.03007   0.57037   0.76935   0.00000  Uiso   1.00
H531   H     0.09433   0.42542   0.79300   0.00000  Uiso   1.00
H532   H     0.97104   0.64203   0.67113   0.00000  Uiso   1.00
H533   H     0.04673   0.63970   0.84501   0.00000  Uiso   1.00
H534   H     0.13103   0.27102   0.81741   0.00000  Uiso   1.00
H535   H     0.87106   0.72778   0.56045   0.00000  Uiso   1.00
H536   H     0.03067   0.72288   0.92711   0.00000  Uiso   1.00
H537   H     0.76399   0.61902   0.75549   0.00000  Uiso   1.00
H538   H     0.81364   0.47673   0.77839   0.00000  Uiso   1.00
H539   H     0.69036   0.69335   0.65652   0.00000  Uiso   1.00
H540   H     0.76605   0.69102   0.83040   0.00000  Uiso   1.00
H541   H     0.90321   0.31267   0.80555   0.00000  Uiso   1.00
H542   H     0.64324   0.76944   0.54859   0.00000  Uiso   1.00
H543   H     0.80286   0.76453   0.91525   0.00000  Uiso   1.00
O544   O     0.05458   0.19736   0.82678   0.00000  Uiso   1.00
O545   O     0.71351   0.79663   0.48966   0.00000  Uiso   1.00
O546   O     0.92292   0.79020   0.97071   0.00000  Uiso   1.00
N547   N     0.07060   0.30035   0.81149   0.00000  Uiso   1.00
N548   N     0.82755   0.72738   0.57124   0.00000  Uiso   1.00
N549   N     0.97677   0.72282   0.91403   0.00000  Uiso   1.00
N550   N     0.94802   0.32276   0.80511   0.00000  Uiso   1.00
N551   N     0.70496   0.74980   0.56486   0.00000  Uiso   1.00
N552   N     0.85418   0.74523   0.90765   0.00000  Uiso   1.00
