data_job_05261
_audit_creation_date              2018-12-19
_audit_creation_method            'Materials Studio'
_symmetry_space_group_name_H-M    'P1'
_symmetry_Int_Tables_number       1
_symmetry_cell_setting            triclinic
loop_
_symmetry_equiv_pos_as_xyz
  x,y,z
_cell_length_a                    11.2108
_cell_length_b                    34.4605
_cell_length_c                    13.8315
_cell_angle_alpha                 89.9360
_cell_angle_beta                  86.3090
_cell_angle_gamma                 90.0085
loop_
_atom_site_label
_atom_site_type_symbol
_atom_site_fract_x
_atom_site_fract_y
_atom_site_fract_z
_atom_site_U_iso_or_equiv
_atom_site_adp_type
_atom_site_occupancy
C1     C     0.23594   0.39931   0.70410   0.00000  Uiso   1.00
C2     C     0.27531   0.38497   0.80140   0.00000  Uiso   1.00
C3     C     0.22753   0.39664   0.89177   0.00000  Uiso   1.00
C4     C     0.27586   0.38012   0.97208   0.00000  Uiso   1.00
C5     C     0.32293   0.36201   0.12466   0.00000  Uiso   1.00
C6     C     0.34788   0.41546   0.64985   0.00000  Uiso   1.00
C7     C     0.36109   0.45277   0.61278   0.00000  Uiso   1.00
C8     C     0.47051   0.46192   0.56550   0.00000  Uiso   1.00
C9     C     0.63020   0.49113   0.48273   0.00000  Uiso   1.00
C10    C     0.20168   0.36318   0.64867   0.00000  Uiso   1.00
C11    C     0.09198   0.35653   0.61059   0.00000  Uiso   1.00
C12    C     0.07831   0.32167   0.56230   0.00000  Uiso   1.00
C13    C     0.01101   0.26971   0.47769   0.00000  Uiso   1.00
C14    C     0.40674   0.34923   0.68604   0.00000  Uiso   1.00
C15    C     0.36809   0.35777   0.79159   0.00000  Uiso   1.00
C16    C     0.41650   0.34123   0.87178   0.00000  Uiso   1.00
C17    C     0.36880   0.35287   0.96225   0.00000  Uiso   1.00
C18    C     0.44065   0.38826   0.64004   0.00000  Uiso   1.00
C19    C     0.55007   0.39736   0.59279   0.00000  Uiso   1.00
C20    C     0.56345   0.43467   0.55567   0.00000  Uiso   1.00
C21    C     0.29445   0.33598   0.63886   0.00000  Uiso   1.00
C22    C     0.28095   0.30112   0.59061   0.00000  Uiso   1.00
C23    C     0.17125   0.29442   0.55246   0.00000  Uiso   1.00
H24    H     0.16371   0.42049   0.71173   0.00000  Uiso   1.00
H25    H     0.15574   0.41769   0.89933   0.00000  Uiso   1.00
H26    H     0.28928   0.47381   0.62038   0.00000  Uiso   1.00
H27    H     0.02021   0.37758   0.61819   0.00000  Uiso   1.00
H28    H     0.18784   0.40260   0.10299   0.00000  Uiso   1.00
H29    H     0.46940   0.52093   0.51477   0.00000  Uiso   1.00
H30    H     0.90201   0.31802   0.51016   0.00000  Uiso   1.00
H31    H     0.47897   0.32805   0.67839   0.00000  Uiso   1.00
H32    H     0.48830   0.32018   0.86417   0.00000  Uiso   1.00
H33    H     0.62184   0.37630   0.58521   0.00000  Uiso   1.00
H34    H     0.35277   0.28008   0.58303   0.00000  Uiso   1.00
H35    H     0.45776   0.32346   0.07445   0.00000  Uiso   1.00
H36    H     0.73932   0.44179   0.48622   0.00000  Uiso   1.00
H37    H     0.17193   0.23888   0.48162   0.00000  Uiso   1.00
O38    O     0.32328   0.35953   0.21153   0.00000  Uiso   1.00
O39    O     0.69266   0.51477   0.43979   0.00000  Uiso   1.00
O40    O     0.94826   0.24856   0.43375   0.00000  Uiso   1.00
N41    N     0.25007   0.38505   0.07078   0.00000  Uiso   1.00
N42    N     0.51332   0.49568   0.52084   0.00000  Uiso   1.00
N43    N     0.98287   0.30599   0.51651   0.00000  Uiso   1.00
N44    N     0.39531   0.34247   0.05542   0.00000  Uiso   1.00
N45    N     0.65856   0.45310   0.50548   0.00000  Uiso   1.00
N46    N     0.12811   0.26340   0.50115   0.00000  Uiso   1.00
C47    C     0.22835   0.11759   0.81396   0.00000  Uiso   1.00
C48    C     0.27490   0.13400   0.71626   0.00000  Uiso   1.00
C49    C     0.21690   0.13197   0.63074   0.00000  Uiso   1.00
C50    C     0.27430   0.14874   0.54912   0.00000  Uiso   1.00
C51    C     0.32966   0.17144   0.39682   0.00000  Uiso   1.00
C52    C     0.32503   0.09012   0.84579   0.00000  Uiso   1.00
C53    C     0.30918   0.05121   0.86919   0.00000  Uiso   1.00
C54    C     0.40879   0.03105   0.89661   0.00000  Uiso   1.00
C55    C     0.54197   0.98563   0.94547   0.00000  Uiso   1.00
C56    C     0.22567   0.15153   0.88471   0.00000  Uiso   1.00
C57    C     0.12628   0.16425   0.94086   0.00000  Uiso   1.00
C58    C     0.14223   0.19578   0.00107   0.00000  Uiso   1.00
C59    C     0.12112   0.24572   0.11036   0.00000  Uiso   1.00
C60    C     0.43342   0.15098   0.82108   0.00000  Uiso   1.00
C61    C     0.38629   0.15213   0.72013   0.00000  Uiso   1.00
C62    C     0.44379   0.16891   0.63862   0.00000  Uiso   1.00
C63    C     0.38589   0.16691   0.55299   0.00000  Uiso   1.00
C64    C     0.43642   0.10825   0.84965   0.00000  Uiso   1.00
C65    C     0.53607   0.08815   0.87706   0.00000  Uiso   1.00
C66    C     0.52038   0.04921   0.90048   0.00000  Uiso   1.00
C67    C     0.33705   0.16967   0.88858   0.00000  Uiso   1.00
C68    C     0.35317   0.20119   0.94872   0.00000  Uiso   1.00
C69    C     0.25382   0.21395   0.00495   0.00000  Uiso   1.00
H70    H     0.14164   0.10347   0.81096   0.00000  Uiso   1.00
H71    H     0.13071   0.11793   0.62778   0.00000  Uiso   1.00
H72    H     0.22297   0.03718   0.86620   0.00000  Uiso   1.00
H73    H     0.04010   0.15020   0.93785   0.00000  Uiso   1.00
H74    H     0.16773   0.14195   0.42639   0.00000  Uiso   1.00
H75    H     0.36227   0.97169   0.92913   0.00000  Uiso   1.00
H76    H     0.97664   0.21002   0.08023   0.00000  Uiso   1.00
H77    H     0.52015   0.16510   0.82409   0.00000  Uiso   1.00
H78    H     0.52999   0.18294   0.64163   0.00000  Uiso   1.00
H79    H     0.62225   0.10219   0.88005   0.00000  Uiso   1.00
H80    H     0.43938   0.21521   0.95170   0.00000  Uiso   1.00
H81    H     0.49181   0.19471   0.43763   0.00000  Uiso   1.00
H82    H     0.68634   0.02445   0.94038   0.00000  Uiso   1.00
H83    H     0.30071   0.26278   0.09147   0.00000  Uiso   1.00
O84    O     0.32943   0.17895   0.31174   0.00000  Uiso   1.00
O85    O     0.58465   0.95557   0.97134   0.00000  Uiso   1.00
O86    O     0.07871   0.26826   0.16957   0.00000  Uiso   1.00
N87    N     0.24264   0.15192   0.45408   0.00000  Uiso   1.00
N88    N     0.42453   0.99274   0.92410   0.00000  Uiso   1.00
N89    N     0.06400   0.21555   0.06538   0.00000  Uiso   1.00
N90    N     0.41702   0.18032   0.46013   0.00000  Uiso   1.00
N91    N     0.59891   0.02113   0.93015   0.00000  Uiso   1.00
N92    N     0.23838   0.24394   0.07143   0.00000  Uiso   1.00
C93    C     0.26848   0.89921   0.74138   0.00000  Uiso   1.00
C94    C     0.22899   0.88486   0.64419   0.00000  Uiso   1.00
C95    C     0.27666   0.89655   0.55373   0.00000  Uiso   1.00
C96    C     0.22824   0.88002   0.47354   0.00000  Uiso   1.00
C97    C     0.18100   0.86191   0.32111   0.00000  Uiso   1.00
C98    C     0.15658   0.91533   0.79563   0.00000  Uiso   1.00
C99    C     0.14339   0.95263   0.83251   0.00000  Uiso   1.00
C100   C     0.03402   0.96176   0.87983   0.00000  Uiso   1.00
C101   C     0.87439   0.99094   0.96257   0.00000  Uiso   1.00
C102   C     0.30283   0.86308   0.79696   0.00000  Uiso   1.00
C103   C     0.41259   0.85646   0.83499   0.00000  Uiso   1.00
C104   C     0.42635   0.82159   0.88345   0.00000  Uiso   1.00
C105   C     0.49380   0.76965   0.96827   0.00000  Uiso   1.00
C106   C     0.09773   0.84909   0.75984   0.00000  Uiso   1.00
C107   C     0.13624   0.85764   0.65422   0.00000  Uiso   1.00
C108   C     0.08774   0.84110   0.57415   0.00000  Uiso   1.00
C109   C     0.13533   0.85275   0.48359   0.00000  Uiso   1.00
C110   C     0.06384   0.88811   0.80566   0.00000  Uiso   1.00
C111   C     0.95447   0.89718   0.85294   0.00000  Uiso   1.00
C112   C     0.94110   0.93449   0.88987   0.00000  Uiso   1.00
C113   C     0.21009   0.83586   0.80699   0.00000  Uiso   1.00
C114   C     0.22367   0.80101   0.85541   0.00000  Uiso   1.00
C115   C     0.33343   0.79432   0.89350   0.00000  Uiso   1.00
H116   H     0.34068   0.92040   0.73357   0.00000  Uiso   1.00
H117   H     0.34843   0.91762   0.54600   0.00000  Uiso   1.00
H118   H     0.21518   0.97369   0.82475   0.00000  Uiso   1.00
H119   H     0.48434   0.87753   0.82722   0.00000  Uiso   1.00
H120   H     0.31609   0.90253   0.34246   0.00000  Uiso   1.00
H121   H     0.03514   0.02077   0.93024   0.00000  Uiso   1.00
H122   H     0.60272   0.81799   0.93546   0.00000  Uiso   1.00
H123   H     0.02551   0.82790   0.76765   0.00000  Uiso   1.00
H124   H     0.01597   0.82003   0.58194   0.00000  Uiso   1.00
H125   H     0.88272   0.87611   0.86069   0.00000  Uiso   1.00
H126   H     0.15188   0.77995   0.86316   0.00000  Uiso   1.00
H127   H     0.04625   0.82333   0.37162   0.00000  Uiso   1.00
H128   H     0.76530   0.94157   0.95942   0.00000  Uiso   1.00
H129   H     0.33288   0.73879   0.96463   0.00000  Uiso   1.00
O130   O     0.18055   0.85944   0.23426   0.00000  Uiso   1.00
O131   O     0.81196   0.01456   0.00543   0.00000  Uiso   1.00
O132   O     0.55662   0.74851   0.01227   0.00000  Uiso   1.00
N133   N     0.25391   0.88497   0.37481   0.00000  Uiso   1.00
N134   N     0.99123   0.99551   0.92434   0.00000  Uiso   1.00
N135   N     0.52186   0.80593   0.92924   0.00000  Uiso   1.00
N136   N     0.10871   0.84235   0.39050   0.00000  Uiso   1.00
N137   N     0.84603   0.95289   0.94004   0.00000  Uiso   1.00
N138   N     0.37667   0.76332   0.94494   0.00000  Uiso   1.00
C139   C     0.27617   0.61781   0.63147   0.00000  Uiso   1.00
C140   C     0.22958   0.63418   0.72909   0.00000  Uiso   1.00
C141   C     0.28751   0.63212   0.81464   0.00000  Uiso   1.00
C142   C     0.23008   0.64887   0.89619   0.00000  Uiso   1.00
C143   C     0.17465   0.67152   0.04839   0.00000  Uiso   1.00
C144   C     0.17947   0.59035   0.59969   0.00000  Uiso   1.00
C145   C     0.19528   0.55144   0.57644   0.00000  Uiso   1.00
C146   C     0.09567   0.53129   0.54904   0.00000  Uiso   1.00
C147   C     0.96247   0.48590   0.50028   0.00000  Uiso   1.00
C148   C     0.27895   0.65177   0.56060   0.00000  Uiso   1.00
C149   C     0.37839   0.66450   0.50445   0.00000  Uiso   1.00
C150   C     0.36252   0.69606   0.44411   0.00000  Uiso   1.00
C151   C     0.38377   0.74603   0.33465   0.00000  Uiso   1.00
C152   C     0.07115   0.65120   0.62414   0.00000  Uiso   1.00
C153   C     0.11822   0.65232   0.72511   0.00000  Uiso   1.00
C154   C     0.06069   0.66907   0.80654   0.00000  Uiso   1.00
C155   C     0.11852   0.66704   0.89220   0.00000  Uiso   1.00
C156   C     0.06812   0.60849   0.59571   0.00000  Uiso   1.00
C157   C     0.96846   0.58839   0.56833   0.00000  Uiso   1.00
C158   C     0.98411   0.54947   0.54505   0.00000  Uiso   1.00
C159   C     0.16759   0.66991   0.55662   0.00000  Uiso   1.00
C160   C     0.15156   0.70145   0.49635   0.00000  Uiso   1.00
C161   C     0.25096   0.71423   0.44013   0.00000  Uiso   1.00
H162   H     0.36286   0.60368   0.63456   0.00000  Uiso   1.00
H163   H     0.37368   0.61808   0.81770   0.00000  Uiso   1.00
H164   H     0.28147   0.53742   0.57952   0.00000  Uiso   1.00
H165   H     0.46455   0.65046   0.50755   0.00000  Uiso   1.00
H166   H     0.33656   0.64203   0.01899   0.00000  Uiso   1.00
H167   H     0.14213   0.47195   0.51674   0.00000  Uiso   1.00
H168   H     0.52818   0.71032   0.36497   0.00000  Uiso   1.00
H169   H     0.98445   0.66532   0.62104   0.00000  Uiso   1.00
H170   H     0.97451   0.68311   0.80344   0.00000  Uiso   1.00
H171   H     0.88230   0.60244   0.56526   0.00000  Uiso   1.00
H172   H     0.06538   0.71548   0.49329   0.00000  Uiso   1.00
H173   H     0.01257   0.69481   0.00742   0.00000  Uiso   1.00
H174   H     0.81815   0.52472   0.50516   0.00000  Uiso   1.00
H175   H     0.20420   0.76310   0.35340   0.00000  Uiso   1.00
O176   O     0.17483   0.67899   0.13344   0.00000  Uiso   1.00
O177   O     0.91977   0.45585   0.47449   0.00000  Uiso   1.00
O178   O     0.42626   0.76859   0.27539   0.00000  Uiso   1.00
N179   N     0.26168   0.65202   0.99123   0.00000  Uiso   1.00
N180   N     0.07990   0.49300   0.52167   0.00000  Uiso   1.00
N181   N     0.44082   0.71585   0.37976   0.00000  Uiso   1.00
N182   N     0.08735   0.68042   0.98500   0.00000  Uiso   1.00
N183   N     0.90557   0.52140   0.51545   0.00000  Uiso   1.00
N184   N     0.26649   0.74425   0.37354   0.00000  Uiso   1.00
C185   C     0.74647   0.61451   0.09633   0.00000  Uiso   1.00
C186   C     0.70728   0.62654   0.99710   0.00000  Uiso   1.00
C187   C     0.75736   0.61366   0.90852   0.00000  Uiso   1.00
C188   C     0.70878   0.62810   0.82594   0.00000  Uiso   1.00
C189   C     0.66236   0.64275   0.67096   0.00000  Uiso   1.00
C190   C     0.63533   0.59823   0.15148   0.00000  Uiso   1.00
C191   C     0.62493   0.56156   0.19273   0.00000  Uiso   1.00
C192   C     0.51578   0.55217   0.24012   0.00000  Uiso   1.00
C193   C     0.35770   0.52289   0.32489   0.00000  Uiso   1.00
C194   C     0.77665   0.65201   0.14785   0.00000  Uiso   1.00
C195   C     0.88506   0.66054   0.18607   0.00000  Uiso   1.00
C196   C     0.89489   0.69642   0.23043   0.00000  Uiso   1.00
C197   C     0.95623   0.75064   0.30956   0.00000  Uiso   1.00
C198   C     0.57114   0.66305   0.10719   0.00000  Uiso   1.00
C199   C     0.61204   0.65290   0.00300   0.00000  Uiso   1.00
C200   C     0.56337   0.66736   0.92053   0.00000  Uiso   1.00
C201   C     0.61338   0.65451   0.83184   0.00000  Uiso   1.00
C202   C     0.54009   0.62460   0.15738   0.00000  Uiso   1.00
C203   C     0.43094   0.61526   0.20473   0.00000  Uiso   1.00
C204   C     0.42037   0.57858   0.24603   0.00000  Uiso   1.00
C205   C     0.68142   0.67837   0.15375   0.00000  Uiso   1.00
C206   C     0.69108   0.71425   0.19807   0.00000  Uiso   1.00
C207   C     0.79948   0.72283   0.23634   0.00000  Uiso   1.00
H208   H     0.82061   0.59398   0.09175   0.00000  Uiso   1.00
H209   H     0.83105   0.59325   0.90399   0.00000  Uiso   1.00
H210   H     0.69865   0.54116   0.18816   0.00000  Uiso   1.00
H211   H     0.95874   0.64013   0.18149   0.00000  Uiso   1.00
H212   H     0.80060   0.60407   0.69843   0.00000  Uiso   1.00
H213   H     0.52143   0.49423   0.29764   0.00000  Uiso   1.00
H214   H     0.06989   0.70293   0.28359   0.00000  Uiso   1.00
H215   H     0.49699   0.68357   0.11178   0.00000  Uiso   1.00
H216   H     0.48967   0.68777   0.92511   0.00000  Uiso   1.00
H217   H     0.35726   0.63567   0.20928   0.00000  Uiso   1.00
H218   H     0.61736   0.73464   0.20262   0.00000  Uiso   1.00
H219   H     0.52352   0.68077   0.71557   0.00000  Uiso   1.00
H220   H     0.24435   0.57094   0.31479   0.00000  Uiso   1.00
H221   H     0.79281   0.77964   0.30073   0.00000  Uiso   1.00
O222   O     0.66306   0.64355   0.58385   0.00000  Uiso   1.00
O223   O     0.29681   0.49946   0.37001   0.00000  Uiso   1.00
O224   O     0.01638   0.77326   0.35156   0.00000  Uiso   1.00
N225   N     0.73641   0.62155   0.72808   0.00000  Uiso   1.00
N226   N     0.47539   0.51886   0.28829   0.00000  Uiso   1.00
N227   N     0.98815   0.71397   0.27518   0.00000  Uiso   1.00
N228   N     0.58732   0.66283   0.73730   0.00000  Uiso   1.00
N229   N     0.32630   0.56013   0.29752   0.00000  Uiso   1.00
N230   N     0.83906   0.75524   0.28441   0.00000  Uiso   1.00
C231   C     0.79630   0.90226   0.28231   0.00000  Uiso   1.00
C232   C     0.75144   0.88575   0.38034   0.00000  Uiso   1.00
C233   C     0.81015   0.88819   0.46545   0.00000  Uiso   1.00
C234   C     0.75430   0.87124   0.54748   0.00000  Uiso   1.00
C235   C     0.70144   0.84847   0.70017   0.00000  Uiso   1.00
C236   C     0.69795   0.92918   0.25093   0.00000  Uiso   1.00
C237   C     0.71170   0.96813   0.22722   0.00000  Uiso   1.00
C238   C     0.61083   0.98774   0.20031   0.00000  Uiso   1.00
C239   C     0.47495   0.03238   0.15202   0.00000  Uiso   1.00
C240   C     0.79997   0.86823   0.21178   0.00000  Uiso   1.00
C241   C     0.89949   0.85596   0.15513   0.00000  Uiso   1.00
C242   C     0.88450   0.82426   0.09523   0.00000  Uiso   1.00
C243   C     0.90703   0.77429   0.98616   0.00000  Uiso   1.00
C244   C     0.59271   0.86780   0.27665   0.00000  Uiso   1.00
C245   C     0.64086   0.86703   0.37726   0.00000  Uiso   1.00
C246   C     0.58490   0.85007   0.45919   0.00000  Uiso   1.00
C247   C     0.64352   0.85249   0.54440   0.00000  Uiso   1.00
C248   C     0.58738   0.91046   0.24786   0.00000  Uiso   1.00
C249   C     0.48646   0.93001   0.22096   0.00000  Uiso   1.00
C250   C     0.50005   0.96899   0.19723   0.00000  Uiso   1.00
C251   C     0.68940   0.84952   0.20871   0.00000  Uiso   1.00
C252   C     0.67425   0.81783   0.14888   0.00000  Uiso   1.00
C253   C     0.77372   0.80551   0.09215   0.00000  Uiso   1.00
H254   H     0.88238   0.91683   0.28470   0.00000  Uiso   1.00
H255   H     0.89572   0.90268   0.46780   0.00000  Uiso   1.00
H256   H     0.79729   0.98261   0.22960   0.00000  Uiso   1.00
H257   H     0.98505   0.87045   0.15752   0.00000  Uiso   1.00
H258   H     0.86171   0.87876   0.66945   0.00000  Uiso   1.00
H259   H     0.65418   0.04728   0.16716   0.00000  Uiso   1.00
H260   H     0.05011   0.81077   0.01517   0.00000  Uiso   1.00
H261   H     0.50661   0.85323   0.27426   0.00000  Uiso   1.00
H262   H     0.49933   0.83559   0.45679   0.00000  Uiso   1.00
H263   H     0.40090   0.91552   0.21859   0.00000  Uiso   1.00
H264   H     0.58866   0.80336   0.14652   0.00000  Uiso   1.00
H265   H     0.53999   0.82431   0.66051   0.00000  Uiso   1.00
H266   H     0.33246   0.99283   0.15822   0.00000  Uiso   1.00
H267   H     0.72839   0.75632   0.00624   0.00000  Uiso   1.00
O268   O     0.70282   0.84109   0.78525   0.00000  Uiso   1.00
O269   O     0.43055   0.06218   0.12625   0.00000  Uiso   1.00
O270   O     0.95001   0.75189   0.92686   0.00000  Uiso   1.00
N271   N     0.78701   0.86836   0.64229   0.00000  Uiso   1.00
N272   N     0.59297   0.02592   0.17270   0.00000  Uiso   1.00
N273   N     0.96313   0.80481   0.03058   0.00000  Uiso   1.00
N274   N     0.61389   0.83906   0.63748   0.00000  Uiso   1.00
N275   N     0.41985   0.99662   0.16789   0.00000  Uiso   1.00
N276   N     0.79001   0.77551   0.02578   0.00000  Uiso   1.00
C277   C     0.75801   0.11447   0.34912   0.00000  Uiso   1.00
C278   C     0.79728   0.12644   0.44832   0.00000  Uiso   1.00
C279   C     0.74727   0.11349   0.53693   0.00000  Uiso   1.00
C280   C     0.79590   0.12788   0.61947   0.00000  Uiso   1.00
C281   C     0.84242   0.14244   0.77440   0.00000  Uiso   1.00
C282   C     0.86913   0.09826   0.29394   0.00000  Uiso   1.00
C283   C     0.87953   0.06161   0.25274   0.00000  Uiso   1.00
C284   C     0.98865   0.05227   0.20530   0.00000  Uiso   1.00
C285   C     0.14671   0.02309   0.12050   0.00000  Uiso   1.00
C286   C     0.72776   0.15200   0.29757   0.00000  Uiso   1.00
C287   C     0.61931   0.16054   0.25940   0.00000  Uiso   1.00
C288   C     0.60942   0.19645   0.21500   0.00000  Uiso   1.00
C289   C     0.54797   0.25071   0.13584   0.00000  Uiso   1.00
C290   C     0.93331   0.16305   0.33812   0.00000  Uiso   1.00
C291   C     0.89249   0.15283   0.44234   0.00000  Uiso   1.00
C292   C     0.94121   0.16724   0.52476   0.00000  Uiso   1.00
C293   C     0.89128   0.15432   0.61348   0.00000  Uiso   1.00
C294   C     0.96435   0.12464   0.28796   0.00000  Uiso   1.00
C295   C     0.07347   0.11536   0.24057   0.00000  Uiso   1.00
C296   C     0.08404   0.07871   0.19932   0.00000  Uiso   1.00
C297   C     0.82298   0.17839   0.29160   0.00000  Uiso   1.00
C298   C     0.81325   0.21429   0.24724   0.00000  Uiso   1.00
C299   C     0.70480   0.22288   0.20902   0.00000  Uiso   1.00
H300   H     0.68389   0.09392   0.35377   0.00000  Uiso   1.00
H301   H     0.67359   0.09307   0.54153   0.00000  Uiso   1.00
H302   H     0.80583   0.04120   0.25737   0.00000  Uiso   1.00
H303   H     0.54565   0.14011   0.26404   0.00000  Uiso   1.00
H304   H     0.70419   0.10375   0.74705   0.00000  Uiso   1.00
H305   H     0.98301   0.99438   0.14786   0.00000  Uiso   1.00
H306   H     0.43437   0.20296   0.16192   0.00000  Uiso   1.00
H307   H     0.00744   0.18359   0.33347   0.00000  Uiso   1.00
H308   H     0.01489   0.18766   0.52012   0.00000  Uiso   1.00
H309   H     0.14713   0.13579   0.23596   0.00000  Uiso   1.00
H310   H     0.88695   0.23470   0.24263   0.00000  Uiso   1.00
H311   H     0.98121   0.18052   0.72968   0.00000  Uiso   1.00
H312   H     0.26003   0.07115   0.13048   0.00000  Uiso   1.00
H313   H     0.71138   0.27973   0.14455   0.00000  Uiso   1.00
O314   O     0.84179   0.14318   0.86151   0.00000  Uiso   1.00
O315   O     0.20758   0.99969   0.07538   0.00000  Uiso   1.00
O316   O     0.48777   0.27335   0.09384   0.00000  Uiso   1.00
N317   N     0.76835   0.12126   0.71735   0.00000  Uiso   1.00
N318   N     0.02904   0.01901   0.15715   0.00000  Uiso   1.00
N319   N     0.51611   0.21401   0.17028   0.00000  Uiso   1.00
N320   N     0.91741   0.16257   0.70800   0.00000  Uiso   1.00
N321   N     0.17810   0.06032   0.14780   0.00000  Uiso   1.00
N322   N     0.66517   0.25532   0.16093   0.00000  Uiso   1.00
C323   C     0.70817   0.40216   0.16328   0.00000  Uiso   1.00
C324   C     0.75305   0.38571   0.06530   0.00000  Uiso   1.00
C325   C     0.69438   0.38819   0.98017   0.00000  Uiso   1.00
C326   C     0.75026   0.37129   0.89819   0.00000  Uiso   1.00
C327   C     0.80317   0.34860   0.74556   0.00000  Uiso   1.00
C328   C     0.80651   0.42907   0.19462   0.00000  Uiso   1.00
C329   C     0.79277   0.46802   0.21823   0.00000  Uiso   1.00
C330   C     0.89365   0.48761   0.24513   0.00000  Uiso   1.00
C331   C     0.02952   0.53224   0.29334   0.00000  Uiso   1.00
C332   C     0.70444   0.36810   0.23389   0.00000  Uiso   1.00
C333   C     0.60489   0.35579   0.29055   0.00000  Uiso   1.00
C334   C     0.61984   0.32406   0.35053   0.00000  Uiso   1.00
C335   C     0.59724   0.27403   0.45971   0.00000  Uiso   1.00
C336   C     0.91173   0.36771   0.16907   0.00000  Uiso   1.00
C337   C     0.86362   0.36700   0.06845   0.00000  Uiso   1.00
C338   C     0.91960   0.35008   0.98658   0.00000  Uiso   1.00
C339   C     0.86102   0.35254   0.90134   0.00000  Uiso   1.00
C340   C     0.91707   0.41036   0.19777   0.00000  Uiso   1.00
C341   C     0.01799   0.42990   0.22464   0.00000  Uiso   1.00
C342   C     0.00441   0.46887   0.24829   0.00000  Uiso   1.00
C343   C     0.81501   0.34939   0.23704   0.00000  Uiso   1.00
C344   C     0.83011   0.31768   0.29695   0.00000  Uiso   1.00
C345   C     0.73061   0.30532   0.35368   0.00000  Uiso   1.00
H346   H     0.62209   0.41673   0.16083   0.00000  Uiso   1.00
H347   H     0.60882   0.40268   0.97776   0.00000  Uiso   1.00
H348   H     0.70720   0.48249   0.21580   0.00000  Uiso   1.00
H349   H     0.51935   0.37028   0.28809   0.00000  Uiso   1.00
H350   H     0.64290   0.37886   0.77617   0.00000  Uiso   1.00
H351   H     0.85031   0.54714   0.27812   0.00000  Uiso   1.00
H352   H     0.45419   0.31053   0.43057   0.00000  Uiso   1.00
H353   H     0.99781   0.35315   0.17153   0.00000  Uiso   1.00
H354   H     0.00516   0.33560   0.98904   0.00000  Uiso   1.00
H355   H     0.10353   0.41541   0.22708   0.00000  Uiso   1.00
H356   H     0.91569   0.30320   0.29937   0.00000  Uiso   1.00
H357   H     0.96458   0.32442   0.78532   0.00000  Uiso   1.00
H358   H     0.17200   0.49270   0.28728   0.00000  Uiso   1.00
H359   H     0.77588   0.25609   0.43972   0.00000  Uiso   1.00
O360   O     0.80181   0.34126   0.66050   0.00000  Uiso   1.00
O361   O     0.07393   0.56203   0.31906   0.00000  Uiso   1.00
O362   O     0.55423   0.25160   0.51906   0.00000  Uiso   1.00
N363   N     0.71758   0.36845   0.80337   0.00000  Uiso   1.00
N364   N     0.91151   0.52578   0.27265   0.00000  Uiso   1.00
N365   N     0.54118   0.30457   0.41520   0.00000  Uiso   1.00
N366   N     0.89068   0.33916   0.80830   0.00000  Uiso   1.00
N367   N     0.08461   0.49649   0.27758   0.00000  Uiso   1.00
N368   N     0.71428   0.27528   0.42012   0.00000  Uiso   1.00
