data_job_06340
_audit_creation_date              2018-12-19
_audit_creation_method            'Materials Studio'
_symmetry_space_group_name_H-M    'P1'
_symmetry_Int_Tables_number       1
_symmetry_cell_setting            triclinic
loop_
_symmetry_equiv_pos_as_xyz
  x,y,z
_cell_length_a                    16.7047
_cell_length_b                    16.6155
_cell_length_c                    16.5451
_cell_angle_alpha                 86.0736
_cell_angle_beta                  86.0674
_cell_angle_gamma                 86.1004
loop_
_atom_site_label
_atom_site_type_symbol
_atom_site_fract_x
_atom_site_fract_y
_atom_site_fract_z
_atom_site_U_iso_or_equiv
_atom_site_adp_type
_atom_site_occupancy
C1     C     0.40625   0.67565   0.74603   0.00000  Uiso   1.00
C2     C     0.42626   0.74428   0.79635   0.00000  Uiso   1.00
C3     C     0.47683   0.80519   0.77078   0.00000  Uiso   1.00
C4     C     0.48736   0.86236   0.82588   0.00000  Uiso   1.00
C5     C     0.52435   0.96947   0.89219   0.00000  Uiso   1.00
C6     C     0.42879   0.59756   0.79549   0.00000  Uiso   1.00
C7     C     0.48150   0.53512   0.76919   0.00000  Uiso   1.00
C8     C     0.49415   0.46877   0.82356   0.00000  Uiso   1.00
C9     C     0.53503   0.34807   0.88852   0.00000  Uiso   1.00
C10    C     0.31488   0.68044   0.74447   0.00000  Uiso   1.00
C11    C     0.27179   0.68766   0.67526   0.00000  Uiso   1.00
C12    C     0.18853   0.69108   0.68667   0.00000  Uiso   1.00
C13    C     0.05254   0.69906   0.67241   0.00000  Uiso   1.00
C14    C     0.33500   0.66886   0.88936   0.00000  Uiso   1.00
C15    C     0.38756   0.74059   0.87421   0.00000  Uiso   1.00
C16    C     0.39801   0.79768   0.92936   0.00000  Uiso   1.00
C17    C     0.44859   0.85867   0.90387   0.00000  Uiso   1.00
C18    C     0.39010   0.59387   0.87335   0.00000  Uiso   1.00
C19    C     0.40268   0.52760   0.92777   0.00000  Uiso   1.00
C20    C     0.45539   0.46507   0.90156   0.00000  Uiso   1.00
C21    C     0.27618   0.67676   0.82232   0.00000  Uiso   1.00
C22    C     0.19297   0.68015   0.83385   0.00000  Uiso   1.00
C23    C     0.14977   0.68738   0.76467   0.00000  Uiso   1.00
H24    H     0.43637   0.67851   0.68542   0.00000  Uiso   1.00
H25    H     0.50677   0.80802   0.71052   0.00000  Uiso   1.00
H26    H     0.51143   0.53798   0.70893   0.00000  Uiso   1.00
H27    H     0.30176   0.69052   0.61502   0.00000  Uiso   1.00
H28    H     0.56778   0.94996   0.77270   0.00000  Uiso   1.00
H29    H     0.57758   0.38056   0.76934   0.00000  Uiso   1.00
H30    H     0.13544   0.70220   0.57131   0.00000  Uiso   1.00
H31    H     0.30488   0.66598   0.94998   0.00000  Uiso   1.00
H32    H     0.36806   0.79481   0.98961   0.00000  Uiso   1.00
H33    H     0.37272   0.52477   0.98801   0.00000  Uiso   1.00
H34    H     0.16305   0.67730   0.89410   0.00000  Uiso   1.00
H35    H     0.45520   0.93924   0.99922   0.00000  Uiso   1.00
H36    H     0.46499   0.36983   0.99585   0.00000  Uiso   1.00
H37    H     0.02286   0.69147   0.79782   0.00000  Uiso   1.00
O38    O     0.55545   0.02956   0.90727   0.00000  Uiso   1.00
O39    O     0.56828   0.28251   0.90284   0.00000  Uiso   1.00
O40    O     0.98822   0.70450   0.64303   0.00000  Uiso   1.00
N41    N     0.53260   0.92977   0.82057   0.00000  Uiso   1.00
N42    N     0.54177   0.39741   0.81743   0.00000  Uiso   1.00
N43    N     0.12841   0.69810   0.63228   0.00000  Uiso   1.00
N44    N     0.47202   0.92400   0.94246   0.00000  Uiso   1.00
N45    N     0.48119   0.39164   0.93931   0.00000  Uiso   1.00
N46    N     0.06783   0.69233   0.75417   0.00000  Uiso   1.00
C47    C     0.74631   0.40637   0.67570   0.00000  Uiso   1.00
C48    C     0.79616   0.42648   0.74462   0.00000  Uiso   1.00
C49    C     0.77084   0.47731   0.80578   0.00000  Uiso   1.00
C50    C     0.82542   0.48790   0.86319   0.00000  Uiso   1.00
C51    C     0.89111   0.52507   0.97073   0.00000  Uiso   1.00
C52    C     0.79531   0.42907   0.59727   0.00000  Uiso   1.00
C53    C     0.76927   0.48207   0.53455   0.00000  Uiso   1.00
C54    C     0.82313   0.49482   0.46791   0.00000  Uiso   1.00
C55    C     0.88748   0.53597   0.34668   0.00000  Uiso   1.00
C56    C     0.74473   0.31451   0.68054   0.00000  Uiso   1.00
C57    C     0.67617   0.27118   0.68781   0.00000  Uiso   1.00
C58    C     0.68744   0.18747   0.69126   0.00000  Uiso   1.00
C59    C     0.67327   0.05075   0.69931   0.00000  Uiso   1.00
C60    C     0.88825   0.33479   0.66889   0.00000  Uiso   1.00
C61    C     0.87325   0.38760   0.74091   0.00000  Uiso   1.00
C62    C     0.92788   0.39811   0.79824   0.00000  Uiso   1.00
C63    C     0.90265   0.44894   0.85948   0.00000  Uiso   1.00
C64    C     0.87240   0.39019   0.59357   0.00000  Uiso   1.00
C65    C     0.92631   0.40287   0.52701   0.00000  Uiso   1.00
C66    C     0.90037   0.45587   0.46420   0.00000  Uiso   1.00
C67    C     0.82183   0.27563   0.67684   0.00000  Uiso   1.00
C68    C     0.83321   0.19198   0.68027   0.00000  Uiso   1.00
C69    C     0.76468   0.14852   0.68755   0.00000  Uiso   1.00
H70    H     0.68628   0.43665   0.67858   0.00000  Uiso   1.00
H71    H     0.71117   0.50740   0.80862   0.00000  Uiso   1.00
H72    H     0.70960   0.51214   0.53743   0.00000  Uiso   1.00
H73    H     0.61652   0.30129   0.69067   0.00000  Uiso   1.00
H74    H     0.77278   0.56871   0.95115   0.00000  Uiso   1.00
H75    H     0.76945   0.57870   0.37931   0.00000  Uiso   1.00
H76    H     0.57316   0.13407   0.70245   0.00000  Uiso   1.00
H77    H     0.94827   0.30451   0.66600   0.00000  Uiso   1.00
H78    H     0.98754   0.36801   0.79536   0.00000  Uiso   1.00
H79    H     0.98597   0.37276   0.52416   0.00000  Uiso   1.00
H80    H     0.89288   0.16191   0.67740   0.00000  Uiso   1.00
H81    H     0.99709   0.45559   0.94038   0.00000  Uiso   1.00
H82    H     0.99376   0.46557   0.36854   0.00000  Uiso   1.00
H83    H     0.79747   0.02094   0.69168   0.00000  Uiso   1.00
O84    O     0.90605   0.55633   0.03107   0.00000  Uiso   1.00
O85    O     0.90168   0.56942   0.28083   0.00000  Uiso   1.00
O86    O     0.64415   0.98607   0.70479   0.00000  Uiso   1.00
N87    N     0.82018   0.53336   0.93087   0.00000  Uiso   1.00
N88    N     0.81707   0.54271   0.39624   0.00000  Uiso   1.00
N89    N     0.63355   0.12701   0.69833   0.00000  Uiso   1.00
N90    N     0.94087   0.47249   0.92508   0.00000  Uiso   1.00
N91    N     0.93777   0.48184   0.39045   0.00000  Uiso   1.00
N92    N     0.75425   0.06614   0.69253   0.00000  Uiso   1.00
C93    C     0.67555   0.74614   0.40648   0.00000  Uiso   1.00
C94    C     0.74382   0.79627   0.42666   0.00000  Uiso   1.00
C95    C     0.80439   0.77083   0.47771   0.00000  Uiso   1.00
C96    C     0.86126   0.82571   0.48832   0.00000  Uiso   1.00
C97    C     0.96780   0.89177   0.52563   0.00000  Uiso   1.00
C98    C     0.59788   0.79538   0.42927   0.00000  Uiso   1.00
C99    C     0.53575   0.76918   0.48251   0.00000  Uiso   1.00
C100   C     0.46977   0.82330   0.49531   0.00000  Uiso   1.00
C101   C     0.34972   0.88796   0.53663   0.00000  Uiso   1.00
C102   C     0.68034   0.74458   0.31423   0.00000  Uiso   1.00
C103   C     0.68751   0.67566   0.27072   0.00000  Uiso   1.00
C104   C     0.69094   0.68703   0.18666   0.00000  Uiso   1.00
C105   C     0.69891   0.67281   0.04935   0.00000  Uiso   1.00
C106   C     0.66884   0.88886   0.33456   0.00000  Uiso   1.00
C107   C     0.74017   0.87379   0.38759   0.00000  Uiso   1.00
C108   C     0.79697   0.92873   0.39813   0.00000  Uiso   1.00
C109   C     0.85762   0.90336   0.44918   0.00000  Uiso   1.00
C110   C     0.59424   0.87290   0.39021   0.00000  Uiso   1.00
C111   C     0.52833   0.92708   0.40293   0.00000  Uiso   1.00
C112   C     0.46612   0.90096   0.45617   0.00000  Uiso   1.00
C113   C     0.67670   0.82210   0.27516   0.00000  Uiso   1.00
C114   C     0.68010   0.83357   0.19115   0.00000  Uiso   1.00
C115   C     0.68729   0.76468   0.14752   0.00000  Uiso   1.00
H116   H     0.67838   0.68579   0.43690   0.00000  Uiso   1.00
H117   H     0.80718   0.71083   0.50793   0.00000  Uiso   1.00
H118   H     0.53858   0.70918   0.51273   0.00000  Uiso   1.00
H119   H     0.69033   0.61569   0.30098   0.00000  Uiso   1.00
H120   H     0.94836   0.77279   0.56948   0.00000  Uiso   1.00
H121   H     0.38199   0.76930   0.57957   0.00000  Uiso   1.00
H122   H     0.70198   0.57214   0.13305   0.00000  Uiso   1.00
H123   H     0.66601   0.94922   0.30414   0.00000  Uiso   1.00
H124   H     0.79414   0.98871   0.36789   0.00000  Uiso   1.00
H125   H     0.52554   0.98706   0.37268   0.00000  Uiso   1.00
H126   H     0.67728   0.89357   0.16094   0.00000  Uiso   1.00
H127   H     0.93778   0.99833   0.45582   0.00000  Uiso   1.00
H128   H     0.37140   0.99483   0.46590   0.00000  Uiso   1.00
H129   H     0.69139   0.79768   0.01939   0.00000  Uiso   1.00
O130   O     0.02757   0.90679   0.55700   0.00000  Uiso   1.00
O131   O     0.28451   0.90221   0.57022   0.00000  Uiso   1.00
O132   O     0.70432   0.64355   0.98441   0.00000  Uiso   1.00
N133   N     0.92830   0.82044   0.53397   0.00000  Uiso   1.00
N134   N     0.39878   0.81718   0.54341   0.00000  Uiso   1.00
N135   N     0.69792   0.63286   0.12596   0.00000  Uiso   1.00
N136   N     0.92260   0.94180   0.47281   0.00000  Uiso   1.00
N137   N     0.39308   0.93854   0.48225   0.00000  Uiso   1.00
N138   N     0.69222   0.75422   0.06479   0.00000  Uiso   1.00
C139   C     0.59375   0.32435   0.25397   0.00000  Uiso   1.00
C140   C     0.57374   0.25572   0.20365   0.00000  Uiso   1.00
C141   C     0.52317   0.19481   0.22922   0.00000  Uiso   1.00
C142   C     0.51264   0.13764   0.17412   0.00000  Uiso   1.00
C143   C     0.47565   0.03053   0.10781   0.00000  Uiso   1.00
C144   C     0.57121   0.40244   0.20451   0.00000  Uiso   1.00
C145   C     0.51850   0.46488   0.23081   0.00000  Uiso   1.00
C146   C     0.50585   0.53123   0.17644   0.00000  Uiso   1.00
C147   C     0.46497   0.65193   0.11148   0.00000  Uiso   1.00
C148   C     0.68512   0.31956   0.25553   0.00000  Uiso   1.00
C149   C     0.72821   0.31234   0.32474   0.00000  Uiso   1.00
C150   C     0.81147   0.30892   0.31333   0.00000  Uiso   1.00
C151   C     0.94746   0.30094   0.32759   0.00000  Uiso   1.00
C152   C     0.66500   0.33114   0.11064   0.00000  Uiso   1.00
C153   C     0.61244   0.25941   0.12579   0.00000  Uiso   1.00
C154   C     0.60199   0.20232   0.07064   0.00000  Uiso   1.00
C155   C     0.55141   0.14133   0.09613   0.00000  Uiso   1.00
C156   C     0.60990   0.40613   0.12665   0.00000  Uiso   1.00
C157   C     0.59732   0.47240   0.07223   0.00000  Uiso   1.00
C158   C     0.54461   0.53493   0.09844   0.00000  Uiso   1.00
C159   C     0.72382   0.32324   0.17768   0.00000  Uiso   1.00
C160   C     0.80703   0.31985   0.16615   0.00000  Uiso   1.00
C161   C     0.85023   0.31262   0.23533   0.00000  Uiso   1.00
H162   H     0.56363   0.32148   0.31458   0.00000  Uiso   1.00
H163   H     0.49323   0.19198   0.28948   0.00000  Uiso   1.00
H164   H     0.48857   0.46202   0.29107   0.00000  Uiso   1.00
H165   H     0.69824   0.30948   0.38498   0.00000  Uiso   1.00
H166   H     0.43222   0.05004   0.22730   0.00000  Uiso   1.00
H167   H     0.42242   0.61944   0.23066   0.00000  Uiso   1.00
H168   H     0.86456   0.29780   0.42869   0.00000  Uiso   1.00
H169   H     0.69512   0.33402   0.05002   0.00000  Uiso   1.00
H170   H     0.63194   0.20519   0.01039   0.00000  Uiso   1.00
H171   H     0.62728   0.47523   0.01199   0.00000  Uiso   1.00
H172   H     0.83695   0.32270   0.10590   0.00000  Uiso   1.00
H173   H     0.54480   0.06076   0.00078   0.00000  Uiso   1.00
H174   H     0.53501   0.63017   0.00415   0.00000  Uiso   1.00
H175   H     0.97714   0.30853   0.20218   0.00000  Uiso   1.00
O176   O     0.44455   0.97044   0.09273   0.00000  Uiso   1.00
O177   O     0.43172   0.71749   0.09716   0.00000  Uiso   1.00
O178   O     0.01178   0.29550   0.35697   0.00000  Uiso   1.00
N179   N     0.46740   0.07023   0.17943   0.00000  Uiso   1.00
N180   N     0.45823   0.60259   0.18257   0.00000  Uiso   1.00
N181   N     0.87159   0.30190   0.36772   0.00000  Uiso   1.00
N182   N     0.52798   0.07600   0.05754   0.00000  Uiso   1.00
N183   N     0.51881   0.60836   0.06069   0.00000  Uiso   1.00
N184   N     0.93217   0.30767   0.24583   0.00000  Uiso   1.00
C185   C     0.25369   0.59363   0.32430   0.00000  Uiso   1.00
C186   C     0.20384   0.57352   0.25538   0.00000  Uiso   1.00
C187   C     0.22916   0.52269   0.19422   0.00000  Uiso   1.00
C188   C     0.17458   0.51210   0.13681   0.00000  Uiso   1.00
C189   C     0.10889   0.47493   0.02927   0.00000  Uiso   1.00
C190   C     0.20469   0.57093   0.40273   0.00000  Uiso   1.00
C191   C     0.23073   0.51793   0.46545   0.00000  Uiso   1.00
C192   C     0.17687   0.50518   0.53209   0.00000  Uiso   1.00
C193   C     0.11252   0.46403   0.65332   0.00000  Uiso   1.00
C194   C     0.25527   0.68549   0.31946   0.00000  Uiso   1.00
C195   C     0.32383   0.72882   0.31219   0.00000  Uiso   1.00
C196   C     0.31256   0.81253   0.30874   0.00000  Uiso   1.00
C197   C     0.32674   0.94925   0.30069   0.00000  Uiso   1.00
C198   C     0.11175   0.66521   0.33111   0.00000  Uiso   1.00
C199   C     0.12675   0.61240   0.25909   0.00000  Uiso   1.00
C200   C     0.07212   0.60189   0.20176   0.00000  Uiso   1.00
C201   C     0.09735   0.55106   0.14052   0.00000  Uiso   1.00
C202   C     0.12760   0.60981   0.40643   0.00000  Uiso   1.00
C203   C     0.07369   0.59714   0.47299   0.00000  Uiso   1.00
C204   C     0.09963   0.54413   0.53580   0.00000  Uiso   1.00
C205   C     0.17817   0.72437   0.32316   0.00000  Uiso   1.00
C206   C     0.16679   0.80802   0.31973   0.00000  Uiso   1.00
C207   C     0.23532   0.85148   0.31245   0.00000  Uiso   1.00
H208   H     0.31372   0.56335   0.32142   0.00000  Uiso   1.00
H209   H     0.28883   0.49260   0.19138   0.00000  Uiso   1.00
H210   H     0.29040   0.48786   0.46257   0.00000  Uiso   1.00
H211   H     0.38348   0.69871   0.30933   0.00000  Uiso   1.00
H212   H     0.22722   0.43129   0.04885   0.00000  Uiso   1.00
H213   H     0.23055   0.42130   0.62069   0.00000  Uiso   1.00
H214   H     0.42684   0.86593   0.29755   0.00000  Uiso   1.00
H215   H     0.05173   0.69549   0.33400   0.00000  Uiso   1.00
H216   H     0.01246   0.63199   0.20464   0.00000  Uiso   1.00
H217   H     0.01403   0.62724   0.47584   0.00000  Uiso   1.00
H218   H     0.10712   0.83809   0.32260   0.00000  Uiso   1.00
H219   H     0.00291   0.54441   0.05962   0.00000  Uiso   1.00
H220   H     0.00624   0.53443   0.63146   0.00000  Uiso   1.00
H221   H     0.20253   0.97906   0.30832   0.00000  Uiso   1.00
O222   O     0.09395   0.44367   0.96893   0.00000  Uiso   1.00
O223   O     0.09832   0.43058   0.71917   0.00000  Uiso   1.00
O224   O     0.35585   0.01393   0.29521   0.00000  Uiso   1.00
N225   N     0.17982   0.46664   0.06913   0.00000  Uiso   1.00
N226   N     0.18293   0.45729   0.60376   0.00000  Uiso   1.00
N227   N     0.36645   0.87298   0.30167   0.00000  Uiso   1.00
N228   N     0.05913   0.52751   0.07492   0.00000  Uiso   1.00
N229   N     0.06223   0.51816   0.60955   0.00000  Uiso   1.00
N230   N     0.24575   0.93386   0.30747   0.00000  Uiso   1.00
C231   C     0.32445   0.25386   0.59352   0.00000  Uiso   1.00
C232   C     0.25618   0.20373   0.57334   0.00000  Uiso   1.00
C233   C     0.19561   0.22917   0.52229   0.00000  Uiso   1.00
C234   C     0.13874   0.17430   0.51168   0.00000  Uiso   1.00
C235   C     0.03220   0.10823   0.47437   0.00000  Uiso   1.00
C236   C     0.40212   0.20462   0.57073   0.00000  Uiso   1.00
C237   C     0.46425   0.23082   0.51749   0.00000  Uiso   1.00
C238   C     0.53023   0.17670   0.50469   0.00000  Uiso   1.00
C239   C     0.65029   0.11204   0.46337   0.00000  Uiso   1.00
C240   C     0.31966   0.25542   0.68577   0.00000  Uiso   1.00
C241   C     0.31249   0.32434   0.72928   0.00000  Uiso   1.00
C242   C     0.30906   0.31297   0.81334   0.00000  Uiso   1.00
C243   C     0.30109   0.32719   0.95065   0.00000  Uiso   1.00
C244   C     0.33116   0.11114   0.66544   0.00000  Uiso   1.00
C245   C     0.25983   0.12621   0.61241   0.00000  Uiso   1.00
C246   C     0.20303   0.07127   0.60187   0.00000  Uiso   1.00
C247   C     0.14238   0.09664   0.55082   0.00000  Uiso   1.00
C248   C     0.40576   0.12710   0.60979   0.00000  Uiso   1.00
C249   C     0.47167   0.07292   0.59707   0.00000  Uiso   1.00
C250   C     0.53388   0.09904   0.54383   0.00000  Uiso   1.00
C251   C     0.32330   0.17790   0.72484   0.00000  Uiso   1.00
C252   C     0.31990   0.16643   0.80885   0.00000  Uiso   1.00
C253   C     0.31271   0.23532   0.85248   0.00000  Uiso   1.00
H254   H     0.32162   0.31421   0.56310   0.00000  Uiso   1.00
H255   H     0.19282   0.28917   0.49207   0.00000  Uiso   1.00
H256   H     0.46142   0.29082   0.48727   0.00000  Uiso   1.00
H257   H     0.30967   0.38431   0.69902   0.00000  Uiso   1.00
H258   H     0.05164   0.22721   0.43052   0.00000  Uiso   1.00
H259   H     0.61801   0.23070   0.42043   0.00000  Uiso   1.00
H260   H     0.29802   0.42786   0.86695   0.00000  Uiso   1.00
H261   H     0.33399   0.05078   0.69586   0.00000  Uiso   1.00
H262   H     0.20586   0.01129   0.63211   0.00000  Uiso   1.00
H263   H     0.47446   0.01294   0.62732   0.00000  Uiso   1.00
H264   H     0.32272   0.10643   0.83906   0.00000  Uiso   1.00
H265   H     0.06222   0.00167   0.54418   0.00000  Uiso   1.00
H266   H     0.62860   0.00517   0.53410   0.00000  Uiso   1.00
H267   H     0.30861   0.20232   0.98061   0.00000  Uiso   1.00
O268   O     0.97243   0.09321   0.44300   0.00000  Uiso   1.00
O269   O     0.71550   0.09779   0.42978   0.00000  Uiso   1.00
O270   O     0.29568   0.35645   0.01559   0.00000  Uiso   1.00
N271   N     0.07170   0.17956   0.46603   0.00000  Uiso   1.00
N272   N     0.60122   0.18282   0.45659   0.00000  Uiso   1.00
N273   N     0.30208   0.36714   0.87404   0.00000  Uiso   1.00
N274   N     0.07740   0.05820   0.52719   0.00000  Uiso   1.00
N275   N     0.60692   0.06146   0.51775   0.00000  Uiso   1.00
N276   N     0.30778   0.24578   0.93520   0.00000  Uiso   1.00
