data_job_01170
_audit_creation_date              2018-12-19
_audit_creation_method            'Materials Studio'
_symmetry_space_group_name_H-M    'P1'
_symmetry_Int_Tables_number       1
_symmetry_cell_setting            triclinic
loop_
_symmetry_equiv_pos_as_xyz
  x,y,z
_cell_length_a                    13.2763
_cell_length_b                    21.1386
_cell_length_c                    20.7812
_cell_angle_alpha                 90.0000
_cell_angle_beta                  90.0000
_cell_angle_gamma                 90.0000
loop_
_atom_site_label
_atom_site_type_symbol
_atom_site_fract_x
_atom_site_fract_y
_atom_site_fract_z
_atom_site_U_iso_or_equiv
_atom_site_adp_type
_atom_site_occupancy
C1     C     0.92510   0.39555   0.17400   0.00000  Uiso   1.00
C2     C     0.02111   0.35834   0.16021   0.00000  Uiso   1.00
C3     C     0.04104   0.32420   0.10462   0.00000  Uiso   1.00
C4     C     0.13325   0.29340   0.10127   0.00000  Uiso   1.00
C5     C     0.27171   0.23510   0.07220   0.00000  Uiso   1.00
C6     C     0.88357   0.36935   0.23701   0.00000  Uiso   1.00
C7     C     0.78786   0.34447   0.24598   0.00000  Uiso   1.00
C8     C     0.76429   0.32295   0.30729   0.00000  Uiso   1.00
C9     C     0.68919   0.28179   0.39746   0.00000  Uiso   1.00
C10    C     0.95855   0.46308   0.18845   0.00000  Uiso   1.00
C11    C     0.92587   0.51701   0.15660   0.00000  Uiso   1.00
C12    C     0.96542   0.57441   0.17703   0.00000  Uiso   1.00
C13    C     0.00674   0.67877   0.19180   0.00000  Uiso   1.00
C14    C     0.05343   0.40158   0.26692   0.00000  Uiso   1.00
C15    C     0.09081   0.36162   0.21069   0.00000  Uiso   1.00
C16    C     0.18302   0.33087   0.20742   0.00000  Uiso   1.00
C17    C     0.20309   0.29668   0.15182   0.00000  Uiso   1.00
C18    C     0.95327   0.37262   0.28748   0.00000  Uiso   1.00
C19    C     0.92984   0.35114   0.34879   0.00000  Uiso   1.00
C20    C     0.83412   0.32623   0.35785   0.00000  Uiso   1.00
C21    C     0.02826   0.46636   0.23892   0.00000  Uiso   1.00
C22    C     0.06786   0.52368   0.25940   0.00000  Uiso   1.00
C23    C     0.03525   0.57769   0.22759   0.00000  Uiso   1.00
H24    H     0.87082   0.39300   0.13471   0.00000  Uiso   1.00
H25    H     0.98707   0.32167   0.06557   0.00000  Uiso   1.00
H26    H     0.73393   0.34195   0.20692   0.00000  Uiso   1.00
H27    H     0.87192   0.51446   0.11755   0.00000  Uiso   1.00
H28    H     0.14667   0.24401   0.01119   0.00000  Uiso   1.00
H29    H     0.61290   0.28679   0.30923   0.00000  Uiso   1.00
H30    H     0.90389   0.65057   0.12078   0.00000  Uiso   1.00
H31    H     0.10770   0.40413   0.30621   0.00000  Uiso   1.00
H32    H     0.23695   0.33341   0.24648   0.00000  Uiso   1.00
H33    H     0.98380   0.35368   0.38783   0.00000  Uiso   1.00
H34    H     0.12180   0.52620   0.29846   0.00000  Uiso   1.00
H35    H     0.34949   0.25354   0.15802   0.00000  Uiso   1.00
H36    H     0.81570   0.29631   0.45607   0.00000  Uiso   1.00
H37    H     0.10670   0.66009   0.26761   0.00000  Uiso   1.00
O38    O     0.32882   0.20204   0.04223   0.00000  Uiso   1.00
O39    O     0.62852   0.25817   0.43325   0.00000  Uiso   1.00
O40    O     0.01029   0.73543   0.18600   0.00000  Uiso   1.00
N41    N     0.17668   0.25597   0.05394   0.00000  Uiso   1.00
N42    N     0.67763   0.29595   0.33259   0.00000  Uiso   1.00
N43    N     0.94966   0.63606   0.15641   0.00000  Uiso   1.00
N44    N     0.28581   0.26110   0.13295   0.00000  Uiso   1.00
N45    N     0.78676   0.30108   0.41160   0.00000  Uiso   1.00
N46    N     0.05879   0.64118   0.23542   0.00000  Uiso   1.00
C47    C     0.57490   0.60445   0.17400   0.00000  Uiso   1.00
C48    C     0.47889   0.64166   0.16021   0.00000  Uiso   1.00
C49    C     0.45896   0.67580   0.10462   0.00000  Uiso   1.00
C50    C     0.36675   0.70660   0.10127   0.00000  Uiso   1.00
C51    C     0.22829   0.76490   0.07220   0.00000  Uiso   1.00
C52    C     0.61643   0.63065   0.23701   0.00000  Uiso   1.00
C53    C     0.71214   0.65553   0.24598   0.00000  Uiso   1.00
C54    C     0.73571   0.67705   0.30729   0.00000  Uiso   1.00
C55    C     0.81081   0.71821   0.39746   0.00000  Uiso   1.00
C56    C     0.54145   0.53692   0.18845   0.00000  Uiso   1.00
C57    C     0.57413   0.48299   0.15660   0.00000  Uiso   1.00
C58    C     0.53458   0.42559   0.17703   0.00000  Uiso   1.00
C59    C     0.49326   0.32123   0.19180   0.00000  Uiso   1.00
C60    C     0.44657   0.59842   0.26692   0.00000  Uiso   1.00
C61    C     0.40919   0.63838   0.21069   0.00000  Uiso   1.00
C62    C     0.31698   0.66913   0.20742   0.00000  Uiso   1.00
C63    C     0.29691   0.70332   0.15182   0.00000  Uiso   1.00
C64    C     0.54673   0.62738   0.28748   0.00000  Uiso   1.00
C65    C     0.57016   0.64886   0.34879   0.00000  Uiso   1.00
C66    C     0.66588   0.67377   0.35785   0.00000  Uiso   1.00
C67    C     0.47174   0.53364   0.23892   0.00000  Uiso   1.00
C68    C     0.43214   0.47632   0.25940   0.00000  Uiso   1.00
C69    C     0.46475   0.42231   0.22759   0.00000  Uiso   1.00
H70    H     0.62918   0.60700   0.13471   0.00000  Uiso   1.00
H71    H     0.51293   0.67833   0.06557   0.00000  Uiso   1.00
H72    H     0.76607   0.65805   0.20692   0.00000  Uiso   1.00
H73    H     0.62808   0.48554   0.11755   0.00000  Uiso   1.00
H74    H     0.35333   0.75599   0.01119   0.00000  Uiso   1.00
H75    H     0.88710   0.71321   0.30923   0.00000  Uiso   1.00
H76    H     0.59611   0.34943   0.12078   0.00000  Uiso   1.00
H77    H     0.39230   0.59587   0.30621   0.00000  Uiso   1.00
H78    H     0.26305   0.66659   0.24648   0.00000  Uiso   1.00
H79    H     0.51620   0.64632   0.38783   0.00000  Uiso   1.00
H80    H     0.37820   0.47380   0.29846   0.00000  Uiso   1.00
H81    H     0.15051   0.74646   0.15802   0.00000  Uiso   1.00
H82    H     0.68430   0.70369   0.45607   0.00000  Uiso   1.00
H83    H     0.39330   0.33991   0.26761   0.00000  Uiso   1.00
O84    O     0.17118   0.79796   0.04223   0.00000  Uiso   1.00
O85    O     0.87148   0.74183   0.43325   0.00000  Uiso   1.00
O86    O     0.48971   0.26457   0.18600   0.00000  Uiso   1.00
N87    N     0.32332   0.74403   0.05394   0.00000  Uiso   1.00
N88    N     0.82237   0.70405   0.33259   0.00000  Uiso   1.00
N89    N     0.55034   0.36394   0.15641   0.00000  Uiso   1.00
N90    N     0.21419   0.73890   0.13295   0.00000  Uiso   1.00
N91    N     0.71324   0.69892   0.41160   0.00000  Uiso   1.00
N92    N     0.44121   0.35882   0.23542   0.00000  Uiso   1.00
C93    C     0.57490   0.89555   0.32600   0.00000  Uiso   1.00
C94    C     0.47889   0.85834   0.33979   0.00000  Uiso   1.00
C95    C     0.45896   0.82420   0.39538   0.00000  Uiso   1.00
C96    C     0.36675   0.79340   0.39873   0.00000  Uiso   1.00
C97    C     0.22829   0.73510   0.42780   0.00000  Uiso   1.00
C98    C     0.61643   0.86935   0.26299   0.00000  Uiso   1.00
C99    C     0.71214   0.84447   0.25402   0.00000  Uiso   1.00
C100   C     0.73571   0.82295   0.19271   0.00000  Uiso   1.00
C101   C     0.81081   0.78179   0.10254   0.00000  Uiso   1.00
C102   C     0.54145   0.96308   0.31155   0.00000  Uiso   1.00
C103   C     0.57413   0.01701   0.34340   0.00000  Uiso   1.00
C104   C     0.53458   0.07441   0.32297   0.00000  Uiso   1.00
C105   C     0.49326   0.17877   0.30820   0.00000  Uiso   1.00
C106   C     0.44657   0.90158   0.23308   0.00000  Uiso   1.00
C107   C     0.40919   0.86162   0.28931   0.00000  Uiso   1.00
C108   C     0.31698   0.83087   0.29258   0.00000  Uiso   1.00
C109   C     0.29691   0.79668   0.34818   0.00000  Uiso   1.00
C110   C     0.54673   0.87262   0.21252   0.00000  Uiso   1.00
C111   C     0.57016   0.85114   0.15121   0.00000  Uiso   1.00
C112   C     0.66588   0.82623   0.14215   0.00000  Uiso   1.00
C113   C     0.47174   0.96636   0.26108   0.00000  Uiso   1.00
C114   C     0.43214   0.02368   0.24060   0.00000  Uiso   1.00
C115   C     0.46475   0.07769   0.27241   0.00000  Uiso   1.00
H116   H     0.62918   0.89300   0.36529   0.00000  Uiso   1.00
H117   H     0.51293   0.82167   0.43443   0.00000  Uiso   1.00
H118   H     0.76607   0.84195   0.29308   0.00000  Uiso   1.00
H119   H     0.62808   0.01446   0.38245   0.00000  Uiso   1.00
H120   H     0.35333   0.74401   0.48881   0.00000  Uiso   1.00
H121   H     0.88710   0.78679   0.19077   0.00000  Uiso   1.00
H122   H     0.59611   0.15057   0.37922   0.00000  Uiso   1.00
H123   H     0.39230   0.90413   0.19379   0.00000  Uiso   1.00
H124   H     0.26305   0.83341   0.25352   0.00000  Uiso   1.00
H125   H     0.51620   0.85368   0.11217   0.00000  Uiso   1.00
H126   H     0.37820   0.02620   0.20154   0.00000  Uiso   1.00
H127   H     0.15051   0.75354   0.34198   0.00000  Uiso   1.00
H128   H     0.68430   0.79631   0.04393   0.00000  Uiso   1.00
H129   H     0.39330   0.16009   0.23239   0.00000  Uiso   1.00
O130   O     0.17118   0.70204   0.45777   0.00000  Uiso   1.00
O131   O     0.87148   0.75817   0.06675   0.00000  Uiso   1.00
O132   O     0.48971   0.23543   0.31400   0.00000  Uiso   1.00
N133   N     0.32332   0.75597   0.44606   0.00000  Uiso   1.00
N134   N     0.82237   0.79595   0.16741   0.00000  Uiso   1.00
N135   N     0.55034   0.13606   0.34359   0.00000  Uiso   1.00
N136   N     0.21419   0.76110   0.36705   0.00000  Uiso   1.00
N137   N     0.71324   0.80108   0.08840   0.00000  Uiso   1.00
N138   N     0.44121   0.14118   0.26458   0.00000  Uiso   1.00
C139   C     0.92510   0.10445   0.32600   0.00000  Uiso   1.00
C140   C     0.02111   0.14166   0.33979   0.00000  Uiso   1.00
C141   C     0.04104   0.17580   0.39538   0.00000  Uiso   1.00
C142   C     0.13325   0.20660   0.39873   0.00000  Uiso   1.00
C143   C     0.27171   0.26490   0.42780   0.00000  Uiso   1.00
C144   C     0.88357   0.13065   0.26299   0.00000  Uiso   1.00
C145   C     0.78786   0.15553   0.25402   0.00000  Uiso   1.00
C146   C     0.76429   0.17705   0.19271   0.00000  Uiso   1.00
C147   C     0.68919   0.21821   0.10254   0.00000  Uiso   1.00
C148   C     0.95855   0.03692   0.31155   0.00000  Uiso   1.00
C149   C     0.92587   0.98299   0.34340   0.00000  Uiso   1.00
C150   C     0.96542   0.92559   0.32297   0.00000  Uiso   1.00
C151   C     0.00674   0.82123   0.30820   0.00000  Uiso   1.00
C152   C     0.05343   0.09842   0.23308   0.00000  Uiso   1.00
C153   C     0.09081   0.13838   0.28931   0.00000  Uiso   1.00
C154   C     0.18302   0.16913   0.29258   0.00000  Uiso   1.00
C155   C     0.20309   0.20332   0.34818   0.00000  Uiso   1.00
C156   C     0.95327   0.12738   0.21252   0.00000  Uiso   1.00
C157   C     0.92984   0.14886   0.15121   0.00000  Uiso   1.00
C158   C     0.83412   0.17377   0.14215   0.00000  Uiso   1.00
C159   C     0.02826   0.03364   0.26108   0.00000  Uiso   1.00
C160   C     0.06786   0.97632   0.24060   0.00000  Uiso   1.00
C161   C     0.03525   0.92231   0.27241   0.00000  Uiso   1.00
H162   H     0.87082   0.10700   0.36529   0.00000  Uiso   1.00
H163   H     0.98707   0.17833   0.43443   0.00000  Uiso   1.00
H164   H     0.73393   0.15805   0.29308   0.00000  Uiso   1.00
H165   H     0.87192   0.98554   0.38245   0.00000  Uiso   1.00
H166   H     0.14667   0.25599   0.48881   0.00000  Uiso   1.00
H167   H     0.61290   0.21321   0.19077   0.00000  Uiso   1.00
H168   H     0.90389   0.84943   0.37922   0.00000  Uiso   1.00
H169   H     0.10770   0.09587   0.19379   0.00000  Uiso   1.00
H170   H     0.23695   0.16659   0.25352   0.00000  Uiso   1.00
H171   H     0.98380   0.14632   0.11217   0.00000  Uiso   1.00
H172   H     0.12180   0.97380   0.20154   0.00000  Uiso   1.00
H173   H     0.34949   0.24646   0.34198   0.00000  Uiso   1.00
H174   H     0.81570   0.20369   0.04393   0.00000  Uiso   1.00
H175   H     0.10670   0.83991   0.23239   0.00000  Uiso   1.00
O176   O     0.32882   0.29796   0.45777   0.00000  Uiso   1.00
O177   O     0.62852   0.24183   0.06675   0.00000  Uiso   1.00
O178   O     0.01029   0.76457   0.31400   0.00000  Uiso   1.00
N179   N     0.17668   0.24403   0.44606   0.00000  Uiso   1.00
N180   N     0.67763   0.20405   0.16741   0.00000  Uiso   1.00
N181   N     0.94966   0.86394   0.34359   0.00000  Uiso   1.00
N182   N     0.28581   0.23890   0.36705   0.00000  Uiso   1.00
N183   N     0.78676   0.19892   0.08840   0.00000  Uiso   1.00
N184   N     0.05879   0.85882   0.26458   0.00000  Uiso   1.00
C185   C     0.07490   0.60445   0.82600   0.00000  Uiso   1.00
C186   C     0.97889   0.64166   0.83979   0.00000  Uiso   1.00
C187   C     0.95896   0.67580   0.89538   0.00000  Uiso   1.00
C188   C     0.86675   0.70660   0.89873   0.00000  Uiso   1.00
C189   C     0.72829   0.76490   0.92780   0.00000  Uiso   1.00
C190   C     0.11643   0.63065   0.76299   0.00000  Uiso   1.00
C191   C     0.21214   0.65553   0.75402   0.00000  Uiso   1.00
C192   C     0.23571   0.67705   0.69271   0.00000  Uiso   1.00
C193   C     0.31081   0.71821   0.60254   0.00000  Uiso   1.00
C194   C     0.04145   0.53692   0.81155   0.00000  Uiso   1.00
C195   C     0.07413   0.48299   0.84340   0.00000  Uiso   1.00
C196   C     0.03458   0.42559   0.82297   0.00000  Uiso   1.00
C197   C     0.99326   0.32123   0.80820   0.00000  Uiso   1.00
C198   C     0.94657   0.59842   0.73308   0.00000  Uiso   1.00
C199   C     0.90919   0.63838   0.78931   0.00000  Uiso   1.00
C200   C     0.81698   0.66913   0.79258   0.00000  Uiso   1.00
C201   C     0.79691   0.70332   0.84818   0.00000  Uiso   1.00
C202   C     0.04673   0.62738   0.71252   0.00000  Uiso   1.00
C203   C     0.07016   0.64886   0.65121   0.00000  Uiso   1.00
C204   C     0.16588   0.67377   0.64215   0.00000  Uiso   1.00
C205   C     0.97174   0.53364   0.76108   0.00000  Uiso   1.00
C206   C     0.93214   0.47632   0.74060   0.00000  Uiso   1.00
C207   C     0.96475   0.42231   0.77241   0.00000  Uiso   1.00
H208   H     0.12918   0.60700   0.86529   0.00000  Uiso   1.00
H209   H     0.01293   0.67833   0.93443   0.00000  Uiso   1.00
H210   H     0.26607   0.65805   0.79308   0.00000  Uiso   1.00
H211   H     0.12808   0.48554   0.88245   0.00000  Uiso   1.00
H212   H     0.85333   0.75599   0.98881   0.00000  Uiso   1.00
H213   H     0.38710   0.71321   0.69077   0.00000  Uiso   1.00
H214   H     0.09611   0.34943   0.87922   0.00000  Uiso   1.00
H215   H     0.89230   0.59587   0.69379   0.00000  Uiso   1.00
H216   H     0.76305   0.66659   0.75352   0.00000  Uiso   1.00
H217   H     0.01620   0.64632   0.61217   0.00000  Uiso   1.00
H218   H     0.87820   0.47380   0.70154   0.00000  Uiso   1.00
H219   H     0.65051   0.74646   0.84198   0.00000  Uiso   1.00
H220   H     0.18430   0.70369   0.54393   0.00000  Uiso   1.00
H221   H     0.89330   0.33991   0.73239   0.00000  Uiso   1.00
O222   O     0.67118   0.79796   0.95777   0.00000  Uiso   1.00
O223   O     0.37148   0.74183   0.56675   0.00000  Uiso   1.00
O224   O     0.98971   0.26457   0.81400   0.00000  Uiso   1.00
N225   N     0.82332   0.74403   0.94606   0.00000  Uiso   1.00
N226   N     0.32237   0.70405   0.66741   0.00000  Uiso   1.00
N227   N     0.05034   0.36394   0.84359   0.00000  Uiso   1.00
N228   N     0.71419   0.73890   0.86705   0.00000  Uiso   1.00
N229   N     0.21324   0.69892   0.58840   0.00000  Uiso   1.00
N230   N     0.94121   0.35882   0.76458   0.00000  Uiso   1.00
C231   C     0.42510   0.39555   0.82600   0.00000  Uiso   1.00
C232   C     0.52111   0.35834   0.83979   0.00000  Uiso   1.00
C233   C     0.54104   0.32420   0.89538   0.00000  Uiso   1.00
C234   C     0.63325   0.29340   0.89873   0.00000  Uiso   1.00
C235   C     0.77171   0.23510   0.92780   0.00000  Uiso   1.00
C236   C     0.38357   0.36935   0.76299   0.00000  Uiso   1.00
C237   C     0.28786   0.34447   0.75402   0.00000  Uiso   1.00
C238   C     0.26429   0.32295   0.69271   0.00000  Uiso   1.00
C239   C     0.18919   0.28179   0.60254   0.00000  Uiso   1.00
C240   C     0.45855   0.46308   0.81155   0.00000  Uiso   1.00
C241   C     0.42587   0.51701   0.84340   0.00000  Uiso   1.00
C242   C     0.46542   0.57441   0.82297   0.00000  Uiso   1.00
C243   C     0.50674   0.67877   0.80820   0.00000  Uiso   1.00
C244   C     0.55343   0.40158   0.73308   0.00000  Uiso   1.00
C245   C     0.59081   0.36162   0.78931   0.00000  Uiso   1.00
C246   C     0.68302   0.33087   0.79258   0.00000  Uiso   1.00
C247   C     0.70309   0.29668   0.84818   0.00000  Uiso   1.00
C248   C     0.45327   0.37262   0.71252   0.00000  Uiso   1.00
C249   C     0.42984   0.35114   0.65121   0.00000  Uiso   1.00
C250   C     0.33412   0.32623   0.64215   0.00000  Uiso   1.00
C251   C     0.52826   0.46636   0.76108   0.00000  Uiso   1.00
C252   C     0.56786   0.52368   0.74060   0.00000  Uiso   1.00
C253   C     0.53525   0.57769   0.77241   0.00000  Uiso   1.00
H254   H     0.37082   0.39300   0.86529   0.00000  Uiso   1.00
H255   H     0.48707   0.32167   0.93443   0.00000  Uiso   1.00
H256   H     0.23393   0.34195   0.79308   0.00000  Uiso   1.00
H257   H     0.37192   0.51446   0.88245   0.00000  Uiso   1.00
H258   H     0.64667   0.24401   0.98881   0.00000  Uiso   1.00
H259   H     0.11290   0.28679   0.69077   0.00000  Uiso   1.00
H260   H     0.40389   0.65057   0.87922   0.00000  Uiso   1.00
H261   H     0.60770   0.40413   0.69379   0.00000  Uiso   1.00
H262   H     0.73695   0.33341   0.75352   0.00000  Uiso   1.00
H263   H     0.48380   0.35368   0.61217   0.00000  Uiso   1.00
H264   H     0.62180   0.52620   0.70154   0.00000  Uiso   1.00
H265   H     0.84949   0.25354   0.84198   0.00000  Uiso   1.00
H266   H     0.31570   0.29631   0.54393   0.00000  Uiso   1.00
H267   H     0.60670   0.66009   0.73239   0.00000  Uiso   1.00
O268   O     0.82882   0.20204   0.95777   0.00000  Uiso   1.00
O269   O     0.12852   0.25817   0.56675   0.00000  Uiso   1.00
O270   O     0.51029   0.73543   0.81400   0.00000  Uiso   1.00
N271   N     0.67668   0.25597   0.94606   0.00000  Uiso   1.00
N272   N     0.17763   0.29595   0.66741   0.00000  Uiso   1.00
N273   N     0.44966   0.63606   0.84359   0.00000  Uiso   1.00
N274   N     0.78581   0.26110   0.86705   0.00000  Uiso   1.00
N275   N     0.28676   0.30108   0.58840   0.00000  Uiso   1.00
N276   N     0.55879   0.64118   0.76458   0.00000  Uiso   1.00
C277   C     0.42510   0.10445   0.67400   0.00000  Uiso   1.00
C278   C     0.52111   0.14166   0.66021   0.00000  Uiso   1.00
C279   C     0.54104   0.17580   0.60462   0.00000  Uiso   1.00
C280   C     0.63325   0.20660   0.60127   0.00000  Uiso   1.00
C281   C     0.77171   0.26490   0.57220   0.00000  Uiso   1.00
C282   C     0.38357   0.13065   0.73701   0.00000  Uiso   1.00
C283   C     0.28786   0.15553   0.74598   0.00000  Uiso   1.00
C284   C     0.26429   0.17705   0.80729   0.00000  Uiso   1.00
C285   C     0.18919   0.21821   0.89746   0.00000  Uiso   1.00
C286   C     0.45855   0.03692   0.68845   0.00000  Uiso   1.00
C287   C     0.42587   0.98299   0.65660   0.00000  Uiso   1.00
C288   C     0.46542   0.92559   0.67703   0.00000  Uiso   1.00
C289   C     0.50674   0.82123   0.69180   0.00000  Uiso   1.00
C290   C     0.55343   0.09842   0.76692   0.00000  Uiso   1.00
C291   C     0.59081   0.13838   0.71069   0.00000  Uiso   1.00
C292   C     0.68302   0.16913   0.70742   0.00000  Uiso   1.00
C293   C     0.70309   0.20332   0.65182   0.00000  Uiso   1.00
C294   C     0.45327   0.12738   0.78748   0.00000  Uiso   1.00
C295   C     0.42984   0.14886   0.84879   0.00000  Uiso   1.00
C296   C     0.33412   0.17377   0.85785   0.00000  Uiso   1.00
C297   C     0.52826   0.03364   0.73892   0.00000  Uiso   1.00
C298   C     0.56786   0.97632   0.75940   0.00000  Uiso   1.00
C299   C     0.53525   0.92231   0.72759   0.00000  Uiso   1.00
H300   H     0.37082   0.10700   0.63471   0.00000  Uiso   1.00
H301   H     0.48707   0.17833   0.56557   0.00000  Uiso   1.00
H302   H     0.23393   0.15805   0.70692   0.00000  Uiso   1.00
H303   H     0.37192   0.98554   0.61755   0.00000  Uiso   1.00
H304   H     0.64667   0.25599   0.51119   0.00000  Uiso   1.00
H305   H     0.11290   0.21321   0.80923   0.00000  Uiso   1.00
H306   H     0.40389   0.84943   0.62078   0.00000  Uiso   1.00
H307   H     0.60770   0.09587   0.80621   0.00000  Uiso   1.00
H308   H     0.73695   0.16659   0.74648   0.00000  Uiso   1.00
H309   H     0.48380   0.14632   0.88783   0.00000  Uiso   1.00
H310   H     0.62180   0.97380   0.79846   0.00000  Uiso   1.00
H311   H     0.84949   0.24646   0.65802   0.00000  Uiso   1.00
H312   H     0.31570   0.20369   0.95607   0.00000  Uiso   1.00
H313   H     0.60670   0.83991   0.76761   0.00000  Uiso   1.00
O314   O     0.82882   0.29796   0.54223   0.00000  Uiso   1.00
O315   O     0.12852   0.24183   0.93325   0.00000  Uiso   1.00
O316   O     0.51029   0.76457   0.68600   0.00000  Uiso   1.00
N317   N     0.67668   0.24403   0.55394   0.00000  Uiso   1.00
N318   N     0.17763   0.20405   0.83259   0.00000  Uiso   1.00
N319   N     0.44966   0.86394   0.65641   0.00000  Uiso   1.00
N320   N     0.78581   0.23890   0.63295   0.00000  Uiso   1.00
N321   N     0.28676   0.19892   0.91160   0.00000  Uiso   1.00
N322   N     0.55879   0.85882   0.73542   0.00000  Uiso   1.00
C323   C     0.07490   0.89555   0.67400   0.00000  Uiso   1.00
C324   C     0.97889   0.85834   0.66021   0.00000  Uiso   1.00
C325   C     0.95896   0.82420   0.60462   0.00000  Uiso   1.00
C326   C     0.86675   0.79340   0.60127   0.00000  Uiso   1.00
C327   C     0.72829   0.73510   0.57220   0.00000  Uiso   1.00
C328   C     0.11643   0.86935   0.73701   0.00000  Uiso   1.00
C329   C     0.21214   0.84447   0.74598   0.00000  Uiso   1.00
C330   C     0.23571   0.82295   0.80729   0.00000  Uiso   1.00
C331   C     0.31081   0.78179   0.89746   0.00000  Uiso   1.00
C332   C     0.04145   0.96308   0.68845   0.00000  Uiso   1.00
C333   C     0.07413   0.01701   0.65660   0.00000  Uiso   1.00
C334   C     0.03458   0.07441   0.67703   0.00000  Uiso   1.00
C335   C     0.99326   0.17877   0.69180   0.00000  Uiso   1.00
C336   C     0.94657   0.90158   0.76692   0.00000  Uiso   1.00
C337   C     0.90919   0.86162   0.71069   0.00000  Uiso   1.00
C338   C     0.81698   0.83087   0.70742   0.00000  Uiso   1.00
C339   C     0.79691   0.79668   0.65182   0.00000  Uiso   1.00
C340   C     0.04673   0.87262   0.78748   0.00000  Uiso   1.00
C341   C     0.07016   0.85114   0.84879   0.00000  Uiso   1.00
C342   C     0.16588   0.82623   0.85785   0.00000  Uiso   1.00
C343   C     0.97174   0.96636   0.73892   0.00000  Uiso   1.00
C344   C     0.93214   0.02368   0.75940   0.00000  Uiso   1.00
C345   C     0.96475   0.07769   0.72759   0.00000  Uiso   1.00
H346   H     0.12918   0.89300   0.63471   0.00000  Uiso   1.00
H347   H     0.01293   0.82167   0.56557   0.00000  Uiso   1.00
H348   H     0.26607   0.84195   0.70692   0.00000  Uiso   1.00
H349   H     0.12808   0.01446   0.61755   0.00000  Uiso   1.00
H350   H     0.85333   0.74401   0.51119   0.00000  Uiso   1.00
H351   H     0.38710   0.78679   0.80923   0.00000  Uiso   1.00
H352   H     0.09611   0.15057   0.62078   0.00000  Uiso   1.00
H353   H     0.89230   0.90413   0.80621   0.00000  Uiso   1.00
H354   H     0.76305   0.83341   0.74648   0.00000  Uiso   1.00
H355   H     0.01620   0.85368   0.88783   0.00000  Uiso   1.00
H356   H     0.87820   0.02620   0.79846   0.00000  Uiso   1.00
H357   H     0.65051   0.75354   0.65802   0.00000  Uiso   1.00
H358   H     0.18430   0.79631   0.95607   0.00000  Uiso   1.00
H359   H     0.89330   0.16009   0.76761   0.00000  Uiso   1.00
O360   O     0.67118   0.70204   0.54223   0.00000  Uiso   1.00
O361   O     0.37148   0.75817   0.93325   0.00000  Uiso   1.00
O362   O     0.98971   0.23543   0.68600   0.00000  Uiso   1.00
N363   N     0.82332   0.75597   0.55394   0.00000  Uiso   1.00
N364   N     0.32237   0.79595   0.83259   0.00000  Uiso   1.00
N365   N     0.05034   0.13606   0.65641   0.00000  Uiso   1.00
N366   N     0.71419   0.76110   0.63295   0.00000  Uiso   1.00
N367   N     0.21324   0.80108   0.91160   0.00000  Uiso   1.00
N368   N     0.94121   0.14118   0.73542   0.00000  Uiso   1.00
