data_job_04941
_audit_creation_date              2018-12-19
_audit_creation_method            'Materials Studio'
_symmetry_space_group_name_H-M    'P1'
_symmetry_Int_Tables_number       1
_symmetry_cell_setting            triclinic
loop_
_symmetry_equiv_pos_as_xyz
  x,y,z
_cell_length_a                    21.2473
_cell_length_b                    26.0195
_cell_length_c                    12.3482
_cell_angle_alpha                 90.0000
_cell_angle_beta                  83.5671
_cell_angle_gamma                 90.0000
loop_
_atom_site_label
_atom_site_type_symbol
_atom_site_fract_x
_atom_site_fract_y
_atom_site_fract_z
_atom_site_U_iso_or_equiv
_atom_site_adp_type
_atom_site_occupancy
C1     C     0.74490   0.30939   0.17651   0.00000  Uiso   1.00
C2     C     0.67528   0.32180   0.16999   0.00000  Uiso   1.00
C3     C     0.62510   0.28781   0.19144   0.00000  Uiso   1.00
C4     C     0.56493   0.30658   0.18088   0.00000  Uiso   1.00
C5     C     0.45829   0.31810   0.17540   0.00000  Uiso   1.00
C6     C     0.77940   0.32237   0.06487   0.00000  Uiso   1.00
C7     C     0.81677   0.28887   0.99795   0.00000  Uiso   1.00
C8     C     0.84424   0.30813   0.89891   0.00000  Uiso   1.00
C9     C     0.89929   0.32054   0.73027   0.00000  Uiso   1.00
C10    C     0.76794   0.34827   0.25566   0.00000  Uiso   1.00
C11    C     0.79568   0.33653   0.34915   0.00000  Uiso   1.00
C12    C     0.81353   0.37759   0.41073   0.00000  Uiso   1.00
C13    C     0.85077   0.43020   0.53833   0.00000  Uiso   1.00
C14    C     0.72727   0.40317   0.11960   0.00000  Uiso   1.00
C15    C     0.66571   0.37274   0.13907   0.00000  Uiso   1.00
C16    C     0.60560   0.39157   0.12848   0.00000  Uiso   1.00
C17    C     0.55533   0.35761   0.14992   0.00000  Uiso   1.00
C18    C     0.76983   0.37331   0.03396   0.00000  Uiso   1.00
C19    C     0.79726   0.39263   0.93499   0.00000  Uiso   1.00
C20    C     0.83465   0.35916   0.86794   0.00000  Uiso   1.00
C21    C     0.75836   0.39921   0.22475   0.00000  Uiso   1.00
C22    C     0.77617   0.44029   0.28619   0.00000  Uiso   1.00
C23    C     0.80393   0.42862   0.37976   0.00000  Uiso   1.00
H24    H     0.75236   0.26973   0.20057   0.00000  Uiso   1.00
H25    H     0.63253   0.24839   0.21535   0.00000  Uiso   1.00
H26    H     0.82417   0.24945   0.02190   0.00000  Uiso   1.00
H27    H     0.80309   0.29711   0.37305   0.00000  Uiso   1.00
H28    H     0.49546   0.24719   0.21807   0.00000  Uiso   1.00
H29    H     0.89956   0.24943   0.81018   0.00000  Uiso   1.00
H30    H     0.85510   0.34992   0.55065   0.00000  Uiso   1.00
H31    H     0.71982   0.44283   0.09553   0.00000  Uiso   1.00
H32    H     0.59820   0.43099   0.10456   0.00000  Uiso   1.00
H33    H     0.78984   0.43205   0.91110   0.00000  Uiso   1.00
H34    H     0.76875   0.47971   0.26225   0.00000  Uiso   1.00
H35    H     0.46760   0.39539   0.12814   0.00000  Uiso   1.00
H36    H     0.87170   0.39763   0.72026   0.00000  Uiso   1.00
H37    H     0.82724   0.49812   0.46072   0.00000  Uiso   1.00
O38    O     0.40212   0.31037   0.18090   0.00000  Uiso   1.00
O39    O     0.93229   0.31331   0.64578   0.00000  Uiso   1.00
O40    O     0.87395   0.44515   0.61725   0.00000  Uiso   1.00
N41    N     0.50559   0.28370   0.19569   0.00000  Uiso   1.00
N42    N     0.88339   0.28579   0.81433   0.00000  Uiso   1.00
N43    N     0.84184   0.37974   0.50659   0.00000  Uiso   1.00
N44    N     0.49060   0.36345   0.14730   0.00000  Uiso   1.00
N45    N     0.86840   0.36554   0.76594   0.00000  Uiso   1.00
N46    N     0.82685   0.45949   0.45820   0.00000  Uiso   1.00
C47    C     0.87767   0.80806   0.75114   0.00000  Uiso   1.00
C48    C     0.80838   0.82104   0.74286   0.00000  Uiso   1.00
C49    C     0.75770   0.78745   0.76304   0.00000  Uiso   1.00
C50    C     0.69795   0.80672   0.75095   0.00000  Uiso   1.00
C51    C     0.59169   0.81910   0.74278   0.00000  Uiso   1.00
C52    C     0.91322   0.82084   0.64022   0.00000  Uiso   1.00
C53    C     0.95068   0.78708   0.57411   0.00000  Uiso   1.00
C54    C     0.97919   0.80619   0.47563   0.00000  Uiso   1.00
C55    C     0.03573   0.81828   0.30814   0.00000  Uiso   1.00
C56    C     0.90046   0.84669   0.83105   0.00000  Uiso   1.00
C57    C     0.92721   0.83466   0.92538   0.00000  Uiso   1.00
C58    C     0.94499   0.87552   0.98755   0.00000  Uiso   1.00
C59    C     0.98171   0.92774   0.11635   0.00000  Uiso   1.00
C60    C     0.86170   0.90202   0.69382   0.00000  Uiso   1.00
C61    C     0.79971   0.87208   0.71172   0.00000  Uiso   1.00
C62    C     0.74002   0.89141   0.69961   0.00000  Uiso   1.00
C63    C     0.68926   0.85785   0.71977   0.00000  Uiso   1.00
C64    C     0.90454   0.87188   0.60908   0.00000  Uiso   1.00
C65    C     0.93301   0.89104   0.51068   0.00000  Uiso   1.00
C66    C     0.97050   0.85732   0.44444   0.00000  Uiso   1.00
C67    C     0.89178   0.89773   0.79991   0.00000  Uiso   1.00
C68    C     0.90953   0.93862   0.86195   0.00000  Uiso   1.00
C69    C     0.93630   0.92665   0.95636   0.00000  Uiso   1.00
H70    H     0.88442   0.76833   0.77538   0.00000  Uiso   1.00
H71    H     0.76443   0.74795   0.78712   0.00000  Uiso   1.00
H72    H     0.95739   0.74759   0.59823   0.00000  Uiso   1.00
H73    H     0.93391   0.79516   0.94944   0.00000  Uiso   1.00
H74    H     0.62757   0.74786   0.78637   0.00000  Uiso   1.00
H75    H     0.03446   0.74711   0.38810   0.00000  Uiso   1.00
H76    H     0.98495   0.84741   0.12870   0.00000  Uiso   1.00
H77    H     0.85494   0.94176   0.66957   0.00000  Uiso   1.00
H78    H     0.73332   0.93090   0.67551   0.00000  Uiso   1.00
H79    H     0.92629   0.93054   0.48662   0.00000  Uiso   1.00
H80    H     0.90281   0.97811   0.83783   0.00000  Uiso   1.00
H81    H     0.60232   0.89635   0.69578   0.00000  Uiso   1.00
H82    H     0.00922   0.89560   0.29751   0.00000  Uiso   1.00
H83    H     0.95971   0.99590   0.03811   0.00000  Uiso   1.00
O84    O     0.53548   0.81183   0.74685   0.00000  Uiso   1.00
O85    O     0.06931   0.81084   0.22435   0.00000  Uiso   1.00
O86    O     0.00436   0.94244   0.19601   0.00000  Uiso   1.00
N87    N     0.63832   0.78430   0.76425   0.00000  Uiso   1.00
N88    N     0.01873   0.78359   0.39189   0.00000  Uiso   1.00
N89    N     0.97246   0.87737   0.08427   0.00000  Uiso   1.00
N90    N     0.62473   0.86421   0.71551   0.00000  Uiso   1.00
N91    N     0.00514   0.86350   0.34314   0.00000  Uiso   1.00
N92    N     0.95887   0.95727   0.03553   0.00000  Uiso   1.00
C93    C     0.25510   0.80939   0.32349   0.00000  Uiso   1.00
C94    C     0.32472   0.82180   0.33001   0.00000  Uiso   1.00
C95    C     0.37490   0.78781   0.30856   0.00000  Uiso   1.00
C96    C     0.43507   0.80658   0.31912   0.00000  Uiso   1.00
C97    C     0.54171   0.81810   0.32460   0.00000  Uiso   1.00
C98    C     0.22060   0.82237   0.43513   0.00000  Uiso   1.00
C99    C     0.18323   0.78887   0.50205   0.00000  Uiso   1.00
C100   C     0.15576   0.80813   0.60109   0.00000  Uiso   1.00
C101   C     0.10071   0.82054   0.76973   0.00000  Uiso   1.00
C102   C     0.23206   0.84827   0.24434   0.00000  Uiso   1.00
C103   C     0.20432   0.83653   0.15085   0.00000  Uiso   1.00
C104   C     0.18647   0.87759   0.08927   0.00000  Uiso   1.00
C105   C     0.14923   0.93020   0.96167   0.00000  Uiso   1.00
C106   C     0.27273   0.90317   0.38040   0.00000  Uiso   1.00
C107   C     0.33429   0.87274   0.36093   0.00000  Uiso   1.00
C108   C     0.39440   0.89157   0.37152   0.00000  Uiso   1.00
C109   C     0.44467   0.85761   0.35008   0.00000  Uiso   1.00
C110   C     0.23017   0.87331   0.46604   0.00000  Uiso   1.00
C111   C     0.20274   0.89263   0.56501   0.00000  Uiso   1.00
C112   C     0.16535   0.85916   0.63206   0.00000  Uiso   1.00
C113   C     0.24164   0.89921   0.27525   0.00000  Uiso   1.00
C114   C     0.22383   0.94029   0.21381   0.00000  Uiso   1.00
C115   C     0.19607   0.92862   0.12024   0.00000  Uiso   1.00
H116   H     0.24764   0.76973   0.29943   0.00000  Uiso   1.00
H117   H     0.36747   0.74839   0.28465   0.00000  Uiso   1.00
H118   H     0.17583   0.74945   0.47810   0.00000  Uiso   1.00
H119   H     0.19691   0.79711   0.12695   0.00000  Uiso   1.00
H120   H     0.50454   0.74719   0.28193   0.00000  Uiso   1.00
H121   H     0.10044   0.74943   0.68982   0.00000  Uiso   1.00
H122   H     0.14490   0.84992   0.94935   0.00000  Uiso   1.00
H123   H     0.28018   0.94283   0.40447   0.00000  Uiso   1.00
H124   H     0.40180   0.93099   0.39544   0.00000  Uiso   1.00
H125   H     0.21016   0.93205   0.58890   0.00000  Uiso   1.00
H126   H     0.23125   0.97971   0.23775   0.00000  Uiso   1.00
H127   H     0.53240   0.89539   0.37186   0.00000  Uiso   1.00
H128   H     0.12830   0.89763   0.77974   0.00000  Uiso   1.00
H129   H     0.17276   0.99812   0.03928   0.00000  Uiso   1.00
O130   O     0.59788   0.81037   0.31910   0.00000  Uiso   1.00
O131   O     0.06771   0.81331   0.85422   0.00000  Uiso   1.00
O132   O     0.12605   0.94515   0.88275   0.00000  Uiso   1.00
N133   N     0.49441   0.78370   0.30431   0.00000  Uiso   1.00
N134   N     0.11661   0.78579   0.68567   0.00000  Uiso   1.00
N135   N     0.15816   0.87974   0.99341   0.00000  Uiso   1.00
N136   N     0.50940   0.86345   0.35270   0.00000  Uiso   1.00
N137   N     0.13160   0.86554   0.73406   0.00000  Uiso   1.00
N138   N     0.17315   0.95949   0.04180   0.00000  Uiso   1.00
C139   C     0.12233   0.30806   0.74886   0.00000  Uiso   1.00
C140   C     0.19162   0.32104   0.75714   0.00000  Uiso   1.00
C141   C     0.24230   0.28745   0.73696   0.00000  Uiso   1.00
C142   C     0.30205   0.30672   0.74905   0.00000  Uiso   1.00
C143   C     0.40831   0.31910   0.75722   0.00000  Uiso   1.00
C144   C     0.08678   0.32084   0.85978   0.00000  Uiso   1.00
C145   C     0.04932   0.28708   0.92589   0.00000  Uiso   1.00
C146   C     0.02081   0.30619   0.02437   0.00000  Uiso   1.00
C147   C     0.96427   0.31828   0.19186   0.00000  Uiso   1.00
C148   C     0.09954   0.34669   0.66895   0.00000  Uiso   1.00
C149   C     0.07279   0.33466   0.57462   0.00000  Uiso   1.00
C150   C     0.05501   0.37552   0.51245   0.00000  Uiso   1.00
C151   C     0.01829   0.42774   0.38365   0.00000  Uiso   1.00
C152   C     0.13830   0.40202   0.80618   0.00000  Uiso   1.00
C153   C     0.20029   0.37208   0.78828   0.00000  Uiso   1.00
C154   C     0.25998   0.39141   0.80039   0.00000  Uiso   1.00
C155   C     0.31074   0.35785   0.78023   0.00000  Uiso   1.00
C156   C     0.09546   0.37188   0.89092   0.00000  Uiso   1.00
C157   C     0.06699   0.39104   0.98932   0.00000  Uiso   1.00
C158   C     0.02950   0.35732   0.05556   0.00000  Uiso   1.00
C159   C     0.10822   0.39773   0.70009   0.00000  Uiso   1.00
C160   C     0.09047   0.43862   0.63805   0.00000  Uiso   1.00
C161   C     0.06370   0.42665   0.54364   0.00000  Uiso   1.00
H162   H     0.11558   0.26833   0.72462   0.00000  Uiso   1.00
H163   H     0.23557   0.24795   0.71288   0.00000  Uiso   1.00
H164   H     0.04261   0.24759   0.90177   0.00000  Uiso   1.00
H165   H     0.06609   0.29516   0.55056   0.00000  Uiso   1.00
H166   H     0.37243   0.24786   0.71363   0.00000  Uiso   1.00
H167   H     0.96554   0.24711   0.11190   0.00000  Uiso   1.00
H168   H     0.01505   0.34741   0.37130   0.00000  Uiso   1.00
H169   H     0.14506   0.44176   0.83043   0.00000  Uiso   1.00
H170   H     0.26668   0.43090   0.82449   0.00000  Uiso   1.00
H171   H     0.07371   0.43054   0.01338   0.00000  Uiso   1.00
H172   H     0.09719   0.47811   0.66217   0.00000  Uiso   1.00
H173   H     0.39768   0.39635   0.80422   0.00000  Uiso   1.00
H174   H     0.99078   0.39560   0.20249   0.00000  Uiso   1.00
H175   H     0.04029   0.49590   0.46189   0.00000  Uiso   1.00
O176   O     0.46452   0.31183   0.75315   0.00000  Uiso   1.00
O177   O     0.93069   0.31084   0.27565   0.00000  Uiso   1.00
O178   O     0.99564   0.44244   0.30399   0.00000  Uiso   1.00
N179   N     0.36168   0.28430   0.73575   0.00000  Uiso   1.00
N180   N     0.98127   0.28359   0.10811   0.00000  Uiso   1.00
N181   N     0.02754   0.37737   0.41573   0.00000  Uiso   1.00
N182   N     0.37527   0.36421   0.78449   0.00000  Uiso   1.00
N183   N     0.99486   0.36350   0.15686   0.00000  Uiso   1.00
N184   N     0.04113   0.45727   0.46447   0.00000  Uiso   1.00
C185   C     0.25510   0.69061   0.82349   0.00000  Uiso   1.00
C186   C     0.32472   0.67820   0.83001   0.00000  Uiso   1.00
C187   C     0.37490   0.71219   0.80856   0.00000  Uiso   1.00
C188   C     0.43507   0.69342   0.81912   0.00000  Uiso   1.00
C189   C     0.54171   0.68190   0.82460   0.00000  Uiso   1.00
C190   C     0.22060   0.67763   0.93513   0.00000  Uiso   1.00
C191   C     0.18323   0.71113   0.00205   0.00000  Uiso   1.00
C192   C     0.15576   0.69187   0.10109   0.00000  Uiso   1.00
C193   C     0.10071   0.67946   0.26973   0.00000  Uiso   1.00
C194   C     0.23206   0.65173   0.74434   0.00000  Uiso   1.00
C195   C     0.20432   0.66347   0.65085   0.00000  Uiso   1.00
C196   C     0.18647   0.62241   0.58927   0.00000  Uiso   1.00
C197   C     0.14923   0.56980   0.46167   0.00000  Uiso   1.00
C198   C     0.27273   0.59683   0.88040   0.00000  Uiso   1.00
C199   C     0.33429   0.62726   0.86093   0.00000  Uiso   1.00
C200   C     0.39440   0.60843   0.87152   0.00000  Uiso   1.00
C201   C     0.44467   0.64239   0.85008   0.00000  Uiso   1.00
C202   C     0.23017   0.62669   0.96604   0.00000  Uiso   1.00
C203   C     0.20274   0.60737   0.06501   0.00000  Uiso   1.00
C204   C     0.16535   0.64084   0.13206   0.00000  Uiso   1.00
C205   C     0.24164   0.60079   0.77525   0.00000  Uiso   1.00
C206   C     0.22383   0.55971   0.71381   0.00000  Uiso   1.00
C207   C     0.19607   0.57138   0.62024   0.00000  Uiso   1.00
H208   H     0.24764   0.73027   0.79943   0.00000  Uiso   1.00
H209   H     0.36747   0.75161   0.78465   0.00000  Uiso   1.00
H210   H     0.17583   0.75055   0.97810   0.00000  Uiso   1.00
H211   H     0.19691   0.70289   0.62695   0.00000  Uiso   1.00
H212   H     0.50454   0.75281   0.78193   0.00000  Uiso   1.00
H213   H     0.10044   0.75057   0.18982   0.00000  Uiso   1.00
H214   H     0.14490   0.65008   0.44935   0.00000  Uiso   1.00
H215   H     0.28018   0.55717   0.90447   0.00000  Uiso   1.00
H216   H     0.40180   0.56901   0.89544   0.00000  Uiso   1.00
H217   H     0.21016   0.56795   0.08890   0.00000  Uiso   1.00
H218   H     0.23125   0.52029   0.73775   0.00000  Uiso   1.00
H219   H     0.53240   0.60461   0.87186   0.00000  Uiso   1.00
H220   H     0.12830   0.60237   0.27974   0.00000  Uiso   1.00
H221   H     0.17276   0.50188   0.53928   0.00000  Uiso   1.00
O222   O     0.59788   0.68963   0.81910   0.00000  Uiso   1.00
O223   O     0.06771   0.68669   0.35422   0.00000  Uiso   1.00
O224   O     0.12605   0.55485   0.38275   0.00000  Uiso   1.00
N225   N     0.49441   0.71630   0.80431   0.00000  Uiso   1.00
N226   N     0.11661   0.71421   0.18567   0.00000  Uiso   1.00
N227   N     0.15816   0.62026   0.49341   0.00000  Uiso   1.00
N228   N     0.50940   0.63655   0.85270   0.00000  Uiso   1.00
N229   N     0.13160   0.63446   0.23406   0.00000  Uiso   1.00
N230   N     0.17315   0.54051   0.54180   0.00000  Uiso   1.00
C231   C     0.12233   0.19194   0.24886   0.00000  Uiso   1.00
C232   C     0.19162   0.17896   0.25714   0.00000  Uiso   1.00
C233   C     0.24230   0.21255   0.23696   0.00000  Uiso   1.00
C234   C     0.30205   0.19328   0.24905   0.00000  Uiso   1.00
C235   C     0.40831   0.18090   0.25722   0.00000  Uiso   1.00
C236   C     0.08678   0.17916   0.35978   0.00000  Uiso   1.00
C237   C     0.04932   0.21292   0.42589   0.00000  Uiso   1.00
C238   C     0.02081   0.19381   0.52437   0.00000  Uiso   1.00
C239   C     0.96427   0.18172   0.69186   0.00000  Uiso   1.00
C240   C     0.09954   0.15331   0.16895   0.00000  Uiso   1.00
C241   C     0.07279   0.16534   0.07462   0.00000  Uiso   1.00
C242   C     0.05501   0.12448   0.01245   0.00000  Uiso   1.00
C243   C     0.01829   0.07226   0.88365   0.00000  Uiso   1.00
C244   C     0.13830   0.09798   0.30618   0.00000  Uiso   1.00
C245   C     0.20029   0.12792   0.28828   0.00000  Uiso   1.00
C246   C     0.25998   0.10859   0.30039   0.00000  Uiso   1.00
C247   C     0.31074   0.14215   0.28023   0.00000  Uiso   1.00
C248   C     0.09546   0.12812   0.39092   0.00000  Uiso   1.00
C249   C     0.06699   0.10896   0.48932   0.00000  Uiso   1.00
C250   C     0.02950   0.14268   0.55556   0.00000  Uiso   1.00
C251   C     0.10822   0.10227   0.20009   0.00000  Uiso   1.00
C252   C     0.09047   0.06138   0.13805   0.00000  Uiso   1.00
C253   C     0.06370   0.07335   0.04364   0.00000  Uiso   1.00
H254   H     0.11558   0.23167   0.22462   0.00000  Uiso   1.00
H255   H     0.23557   0.25205   0.21288   0.00000  Uiso   1.00
H256   H     0.04261   0.25241   0.40177   0.00000  Uiso   1.00
H257   H     0.06609   0.20484   0.05056   0.00000  Uiso   1.00
H258   H     0.37243   0.25214   0.21363   0.00000  Uiso   1.00
H259   H     0.96554   0.25289   0.61190   0.00000  Uiso   1.00
H260   H     0.01505   0.15259   0.87130   0.00000  Uiso   1.00
H261   H     0.14506   0.05824   0.33043   0.00000  Uiso   1.00
H262   H     0.26668   0.06910   0.32449   0.00000  Uiso   1.00
H263   H     0.07371   0.06946   0.51338   0.00000  Uiso   1.00
H264   H     0.09719   0.02189   0.16217   0.00000  Uiso   1.00
H265   H     0.39768   0.10365   0.30422   0.00000  Uiso   1.00
H266   H     0.99078   0.10440   0.70249   0.00000  Uiso   1.00
H267   H     0.04029   0.00410   0.96189   0.00000  Uiso   1.00
O268   O     0.46452   0.18817   0.25315   0.00000  Uiso   1.00
O269   O     0.93069   0.18916   0.77565   0.00000  Uiso   1.00
O270   O     0.99564   0.05756   0.80399   0.00000  Uiso   1.00
N271   N     0.36168   0.21570   0.23575   0.00000  Uiso   1.00
N272   N     0.98127   0.21641   0.60811   0.00000  Uiso   1.00
N273   N     0.02754   0.12263   0.91573   0.00000  Uiso   1.00
N274   N     0.37527   0.13579   0.28449   0.00000  Uiso   1.00
N275   N     0.99486   0.13650   0.65686   0.00000  Uiso   1.00
N276   N     0.04113   0.04273   0.96447   0.00000  Uiso   1.00
C277   C     0.74490   0.19061   0.67651   0.00000  Uiso   1.00
C278   C     0.67528   0.17820   0.66999   0.00000  Uiso   1.00
C279   C     0.62510   0.21219   0.69144   0.00000  Uiso   1.00
C280   C     0.56493   0.19342   0.68088   0.00000  Uiso   1.00
C281   C     0.45829   0.18190   0.67540   0.00000  Uiso   1.00
C282   C     0.77940   0.17763   0.56487   0.00000  Uiso   1.00
C283   C     0.81677   0.21113   0.49795   0.00000  Uiso   1.00
C284   C     0.84424   0.19187   0.39891   0.00000  Uiso   1.00
C285   C     0.89929   0.17946   0.23027   0.00000  Uiso   1.00
C286   C     0.76794   0.15173   0.75566   0.00000  Uiso   1.00
C287   C     0.79568   0.16347   0.84915   0.00000  Uiso   1.00
C288   C     0.81353   0.12241   0.91073   0.00000  Uiso   1.00
C289   C     0.85077   0.06980   0.03833   0.00000  Uiso   1.00
C290   C     0.72727   0.09683   0.61960   0.00000  Uiso   1.00
C291   C     0.66571   0.12726   0.63907   0.00000  Uiso   1.00
C292   C     0.60560   0.10843   0.62848   0.00000  Uiso   1.00
C293   C     0.55533   0.14239   0.64992   0.00000  Uiso   1.00
C294   C     0.76983   0.12669   0.53396   0.00000  Uiso   1.00
C295   C     0.79726   0.10737   0.43499   0.00000  Uiso   1.00
C296   C     0.83465   0.14084   0.36794   0.00000  Uiso   1.00
C297   C     0.75836   0.10079   0.72475   0.00000  Uiso   1.00
C298   C     0.77617   0.05971   0.78619   0.00000  Uiso   1.00
C299   C     0.80393   0.07138   0.87976   0.00000  Uiso   1.00
H300   H     0.75236   0.23027   0.70057   0.00000  Uiso   1.00
H301   H     0.63253   0.25161   0.71535   0.00000  Uiso   1.00
H302   H     0.82417   0.25055   0.52190   0.00000  Uiso   1.00
H303   H     0.80309   0.20289   0.87305   0.00000  Uiso   1.00
H304   H     0.49546   0.25281   0.71807   0.00000  Uiso   1.00
H305   H     0.89956   0.25057   0.31018   0.00000  Uiso   1.00
H306   H     0.85510   0.15008   0.05065   0.00000  Uiso   1.00
H307   H     0.71982   0.05717   0.59553   0.00000  Uiso   1.00
H308   H     0.59820   0.06901   0.60456   0.00000  Uiso   1.00
H309   H     0.78984   0.06795   0.41110   0.00000  Uiso   1.00
H310   H     0.76875   0.02029   0.76225   0.00000  Uiso   1.00
H311   H     0.46760   0.10461   0.62814   0.00000  Uiso   1.00
H312   H     0.87170   0.10237   0.22026   0.00000  Uiso   1.00
H313   H     0.82724   0.00188   0.96072   0.00000  Uiso   1.00
O314   O     0.40212   0.18963   0.68090   0.00000  Uiso   1.00
O315   O     0.93229   0.18669   0.14578   0.00000  Uiso   1.00
O316   O     0.87395   0.05485   0.11725   0.00000  Uiso   1.00
N317   N     0.50559   0.21630   0.69569   0.00000  Uiso   1.00
N318   N     0.88339   0.21421   0.31433   0.00000  Uiso   1.00
N319   N     0.84184   0.12026   0.00659   0.00000  Uiso   1.00
N320   N     0.49060   0.13655   0.64730   0.00000  Uiso   1.00
N321   N     0.86840   0.13446   0.26594   0.00000  Uiso   1.00
N322   N     0.82685   0.04051   0.95820   0.00000  Uiso   1.00
C323   C     0.87767   0.69194   0.25114   0.00000  Uiso   1.00
C324   C     0.80838   0.67896   0.24286   0.00000  Uiso   1.00
C325   C     0.75770   0.71255   0.26304   0.00000  Uiso   1.00
C326   C     0.69795   0.69328   0.25095   0.00000  Uiso   1.00
C327   C     0.59169   0.68090   0.24278   0.00000  Uiso   1.00
C328   C     0.91322   0.67916   0.14022   0.00000  Uiso   1.00
C329   C     0.95068   0.71292   0.07411   0.00000  Uiso   1.00
C330   C     0.97919   0.69381   0.97563   0.00000  Uiso   1.00
C331   C     0.03573   0.68172   0.80814   0.00000  Uiso   1.00
C332   C     0.90046   0.65331   0.33105   0.00000  Uiso   1.00
C333   C     0.92721   0.66534   0.42538   0.00000  Uiso   1.00
C334   C     0.94499   0.62448   0.48755   0.00000  Uiso   1.00
C335   C     0.98171   0.57226   0.61635   0.00000  Uiso   1.00
C336   C     0.86170   0.59798   0.19382   0.00000  Uiso   1.00
C337   C     0.79971   0.62792   0.21172   0.00000  Uiso   1.00
C338   C     0.74002   0.60859   0.19961   0.00000  Uiso   1.00
C339   C     0.68926   0.64215   0.21977   0.00000  Uiso   1.00
C340   C     0.90454   0.62812   0.10908   0.00000  Uiso   1.00
C341   C     0.93301   0.60896   0.01068   0.00000  Uiso   1.00
C342   C     0.97050   0.64268   0.94444   0.00000  Uiso   1.00
C343   C     0.89178   0.60227   0.29991   0.00000  Uiso   1.00
C344   C     0.90953   0.56138   0.36195   0.00000  Uiso   1.00
C345   C     0.93630   0.57335   0.45636   0.00000  Uiso   1.00
H346   H     0.88442   0.73167   0.27538   0.00000  Uiso   1.00
H347   H     0.76443   0.75205   0.28712   0.00000  Uiso   1.00
H348   H     0.95739   0.75241   0.09823   0.00000  Uiso   1.00
H349   H     0.93391   0.70484   0.44944   0.00000  Uiso   1.00
H350   H     0.62757   0.75214   0.28637   0.00000  Uiso   1.00
H351   H     0.03446   0.75289   0.88810   0.00000  Uiso   1.00
H352   H     0.98495   0.65259   0.62870   0.00000  Uiso   1.00
H353   H     0.85494   0.55824   0.16957   0.00000  Uiso   1.00
H354   H     0.73332   0.56910   0.17551   0.00000  Uiso   1.00
H355   H     0.92629   0.56946   0.98662   0.00000  Uiso   1.00
H356   H     0.90281   0.52189   0.33783   0.00000  Uiso   1.00
H357   H     0.60232   0.60365   0.19578   0.00000  Uiso   1.00
H358   H     0.00922   0.60440   0.79751   0.00000  Uiso   1.00
H359   H     0.95971   0.50410   0.53811   0.00000  Uiso   1.00
O360   O     0.53548   0.68817   0.24685   0.00000  Uiso   1.00
O361   O     0.06931   0.68916   0.72435   0.00000  Uiso   1.00
O362   O     0.00436   0.55756   0.69601   0.00000  Uiso   1.00
N363   N     0.63832   0.71570   0.26425   0.00000  Uiso   1.00
N364   N     0.01873   0.71641   0.89189   0.00000  Uiso   1.00
N365   N     0.97246   0.62263   0.58427   0.00000  Uiso   1.00
N366   N     0.62473   0.63579   0.21551   0.00000  Uiso   1.00
N367   N     0.00514   0.63650   0.84314   0.00000  Uiso   1.00
N368   N     0.95887   0.54273   0.53553   0.00000  Uiso   1.00
