data_job_01323
_audit_creation_date              2018-12-19
_audit_creation_method            'Materials Studio'
_symmetry_space_group_name_H-M    'P1'
_symmetry_Int_Tables_number       1
_symmetry_cell_setting            triclinic
loop_
_symmetry_equiv_pos_as_xyz
  x,y,z
_cell_length_a                    23.1141
_cell_length_b                    23.1141
_cell_length_c                    7.6440
_cell_angle_alpha                 90.0000
_cell_angle_beta                  90.0000
_cell_angle_gamma                 120.0000
loop_
_atom_site_label
_atom_site_type_symbol
_atom_site_fract_x
_atom_site_fract_y
_atom_site_fract_z
_atom_site_U_iso_or_equiv
_atom_site_adp_type
_atom_site_occupancy
C1     C     0.81901   0.19065   0.84081   0.00000  Uiso   1.00
C2     C     0.85276   0.22626   0.01044   0.00000  Uiso   1.00
C3     C     0.90884   0.28935   0.02322   0.00000  Uiso   1.00
C4     C     0.93206   0.31312   0.19037   0.00000  Uiso   1.00
C5     C     0.98931   0.37419   0.43112   0.00000  Uiso   1.00
C6     C     0.81783   0.12410   0.84426   0.00000  Uiso   1.00
C7     C     0.84453   0.10129   0.71729   0.00000  Uiso   1.00
C8     C     0.83835   0.03905   0.74455   0.00000  Uiso   1.00
C9     C     0.84133   0.94149   0.72722   0.00000  Uiso   1.00
C10    C     0.74638   0.17362   0.85559   0.00000  Uiso   1.00
C11    C     0.71300   0.19242   0.73812   0.00000  Uiso   1.00
C12    C     0.64665   0.17186   0.77489   0.00000  Uiso   1.00
C13    C     0.53869   0.15118   0.77515   0.00000  Uiso   1.00
C14    C     0.76054   0.12067   0.11494   0.00000  Uiso   1.00
C15    C     0.82100   0.18825   0.15934   0.00000  Uiso   1.00
C16    C     0.84415   0.21193   0.32651   0.00000  Uiso   1.00
C17    C     0.90025   0.27505   0.33954   0.00000  Uiso   1.00
C18    C     0.78608   0.08609   0.99315   0.00000  Uiso   1.00
C19    C     0.77984   0.02387   0.02059   0.00000  Uiso   1.00
C20    C     0.80653   0.00097   0.89371   0.00000  Uiso   1.00
C21    C     0.71462   0.13561   0.00448   0.00000  Uiso   1.00
C22    C     0.64831   0.11500   0.04143   0.00000  Uiso   1.00
C23    C     0.61483   0.13378   0.92405   0.00000  Uiso   1.00
H24    H     0.84374   0.22023   0.72489   0.00000  Uiso   1.00
H25    H     0.93340   0.31875   0.90796   0.00000  Uiso   1.00
H26    H     0.86910   0.13071   0.60208   0.00000  Uiso   1.00
H27    H     0.73759   0.22184   0.62292   0.00000  Uiso   1.00
H28    H     0.01882   0.41120   0.17659   0.00000  Uiso   1.00
H29    H     0.88322   0.01470   0.53159   0.00000  Uiso   1.00
H30    H     0.60590   0.20685   0.57552   0.00000  Uiso   1.00
H31    H     0.73582   0.09107   0.23086   0.00000  Uiso   1.00
H32    H     0.81956   0.18251   0.44171   0.00000  Uiso   1.00
H33    H     0.75526   0.99447   0.13582   0.00000  Uiso   1.00
H34    H     0.62375   0.08559   0.15666   0.00000  Uiso   1.00
H35    H     0.92643   0.30062   0.60981   0.00000  Uiso   1.00
H36    H     0.79082   0.90412   0.96479   0.00000  Uiso   1.00
H37    H     0.51350   0.09627   0.00874   0.00000  Uiso   1.00
O38    O     0.02967   0.41838   0.52277   0.00000  Uiso   1.00
O39    O     0.85176   0.89818   0.67653   0.00000  Uiso   1.00
O40    O     0.48792   0.15028   0.73418   0.00000  Uiso   1.00
N41    N     0.98558   0.37263   0.24962   0.00000  Uiso   1.00
N42    N     0.85880   0.00193   0.64659   0.00000  Uiso   1.00
N43    N     0.59953   0.18157   0.68764   0.00000  Uiso   1.00
N44    N     0.93586   0.31313   0.48272   0.00000  Uiso   1.00
N45    N     0.80909   0.94243   0.87970   0.00000  Uiso   1.00
N46    N     0.54981   0.12206   0.92075   0.00000  Uiso   1.00
C47    C     0.80935   0.62837   0.84081   0.00000  Uiso   1.00
C48    C     0.77374   0.62650   0.01044   0.00000  Uiso   1.00
C49    C     0.71065   0.61948   0.02322   0.00000  Uiso   1.00
C50    C     0.68688   0.61894   0.19037   0.00000  Uiso   1.00
C51    C     0.62581   0.61512   0.43112   0.00000  Uiso   1.00
C52    C     0.87590   0.69373   0.84426   0.00000  Uiso   1.00
C53    C     0.89871   0.74324   0.71729   0.00000  Uiso   1.00
C54    C     0.96095   0.79930   0.74455   0.00000  Uiso   1.00
C55    C     0.05851   0.89984   0.72722   0.00000  Uiso   1.00
C56    C     0.82638   0.57277   0.85559   0.00000  Uiso   1.00
C57    C     0.80758   0.52057   0.73812   0.00000  Uiso   1.00
C58    C     0.82814   0.47479   0.77489   0.00000  Uiso   1.00
C59    C     0.84882   0.38751   0.77515   0.00000  Uiso   1.00
C60    C     0.87933   0.63988   0.11494   0.00000  Uiso   1.00
C61    C     0.81175   0.63275   0.15934   0.00000  Uiso   1.00
C62    C     0.78807   0.63222   0.32651   0.00000  Uiso   1.00
C63    C     0.72495   0.62520   0.33954   0.00000  Uiso   1.00
C64    C     0.91391   0.69999   0.99315   0.00000  Uiso   1.00
C65    C     0.97613   0.75598   0.02059   0.00000  Uiso   1.00
C66    C     0.99903   0.80556   0.89371   0.00000  Uiso   1.00
C67    C     0.86439   0.57902   0.00448   0.00000  Uiso   1.00
C68    C     0.88500   0.53331   0.04143   0.00000  Uiso   1.00
C69    C     0.86622   0.48105   0.92405   0.00000  Uiso   1.00
H70    H     0.77977   0.62350   0.72489   0.00000  Uiso   1.00
H71    H     0.68125   0.61465   0.90796   0.00000  Uiso   1.00
H72    H     0.86929   0.73839   0.60208   0.00000  Uiso   1.00
H73    H     0.77816   0.51575   0.62292   0.00000  Uiso   1.00
H74    H     0.58880   0.60762   0.17659   0.00000  Uiso   1.00
H75    H     0.98530   0.86852   0.53159   0.00000  Uiso   1.00
H76    H     0.79315   0.39905   0.57552   0.00000  Uiso   1.00
H77    H     0.90893   0.64474   0.23086   0.00000  Uiso   1.00
H78    H     0.81749   0.63706   0.44171   0.00000  Uiso   1.00
H79    H     0.00553   0.76080   0.13582   0.00000  Uiso   1.00
H80    H     0.91441   0.53816   0.15666   0.00000  Uiso   1.00
H81    H     0.69938   0.62581   0.60981   0.00000  Uiso   1.00
H82    H     0.09588   0.88670   0.96479   0.00000  Uiso   1.00
H83    H     0.90373   0.41723   0.00874   0.00000  Uiso   1.00
O84    O     0.58162   0.61130   0.52277   0.00000  Uiso   1.00
O85    O     0.10182   0.95357   0.67653   0.00000  Uiso   1.00
O86    O     0.84972   0.33764   0.73418   0.00000  Uiso   1.00
N87    N     0.62737   0.61294   0.24962   0.00000  Uiso   1.00
N88    N     0.99807   0.85687   0.64659   0.00000  Uiso   1.00
N89    N     0.81843   0.41796   0.68764   0.00000  Uiso   1.00
N90    N     0.68687   0.62273   0.48272   0.00000  Uiso   1.00
N91    N     0.05757   0.86666   0.87970   0.00000  Uiso   1.00
N92    N     0.87794   0.42775   0.92075   0.00000  Uiso   1.00
C93    C     0.37163   0.18099   0.84081   0.00000  Uiso   1.00
C94    C     0.37350   0.14724   0.01044   0.00000  Uiso   1.00
C95    C     0.38052   0.09116   0.02322   0.00000  Uiso   1.00
C96    C     0.38106   0.06794   0.19037   0.00000  Uiso   1.00
C97    C     0.38488   0.01069   0.43112   0.00000  Uiso   1.00
C98    C     0.30627   0.18217   0.84426   0.00000  Uiso   1.00
C99    C     0.25676   0.15547   0.71729   0.00000  Uiso   1.00
C100   C     0.20070   0.16165   0.74455   0.00000  Uiso   1.00
C101   C     0.10016   0.15867   0.72722   0.00000  Uiso   1.00
C102   C     0.42723   0.25362   0.85559   0.00000  Uiso   1.00
C103   C     0.47943   0.28700   0.73812   0.00000  Uiso   1.00
C104   C     0.52521   0.35335   0.77489   0.00000  Uiso   1.00
C105   C     0.61249   0.46131   0.77515   0.00000  Uiso   1.00
C106   C     0.36012   0.23946   0.11494   0.00000  Uiso   1.00
C107   C     0.36725   0.17900   0.15934   0.00000  Uiso   1.00
C108   C     0.36778   0.15585   0.32651   0.00000  Uiso   1.00
C109   C     0.37480   0.09975   0.33954   0.00000  Uiso   1.00
C110   C     0.30001   0.21392   0.99315   0.00000  Uiso   1.00
C111   C     0.24402   0.22016   0.02059   0.00000  Uiso   1.00
C112   C     0.19444   0.19347   0.89371   0.00000  Uiso   1.00
C113   C     0.42098   0.28538   0.00448   0.00000  Uiso   1.00
C114   C     0.46669   0.35169   0.04143   0.00000  Uiso   1.00
C115   C     0.51895   0.38517   0.92405   0.00000  Uiso   1.00
H116   H     0.37650   0.15626   0.72489   0.00000  Uiso   1.00
H117   H     0.38535   0.06660   0.90796   0.00000  Uiso   1.00
H118   H     0.26161   0.13090   0.60208   0.00000  Uiso   1.00
H119   H     0.48425   0.26241   0.62292   0.00000  Uiso   1.00
H120   H     0.39238   0.98118   0.17659   0.00000  Uiso   1.00
H121   H     0.13148   0.11678   0.53159   0.00000  Uiso   1.00
H122   H     0.60095   0.39410   0.57552   0.00000  Uiso   1.00
H123   H     0.35526   0.26418   0.23086   0.00000  Uiso   1.00
H124   H     0.36294   0.18044   0.44171   0.00000  Uiso   1.00
H125   H     0.23920   0.24474   0.13582   0.00000  Uiso   1.00
H126   H     0.46184   0.37625   0.15666   0.00000  Uiso   1.00
H127   H     0.37419   0.07357   0.60981   0.00000  Uiso   1.00
H128   H     0.11330   0.20918   0.96479   0.00000  Uiso   1.00
H129   H     0.58277   0.48650   0.00874   0.00000  Uiso   1.00
O130   O     0.38870   0.97033   0.52277   0.00000  Uiso   1.00
O131   O     0.04643   0.14824   0.67653   0.00000  Uiso   1.00
O132   O     0.66236   0.51208   0.73418   0.00000  Uiso   1.00
N133   N     0.38706   0.01442   0.24962   0.00000  Uiso   1.00
N134   N     0.14313   0.14120   0.64659   0.00000  Uiso   1.00
N135   N     0.58204   0.40047   0.68764   0.00000  Uiso   1.00
N136   N     0.37727   0.06414   0.48272   0.00000  Uiso   1.00
N137   N     0.13334   0.19091   0.87970   0.00000  Uiso   1.00
N138   N     0.57225   0.45019   0.92075   0.00000  Uiso   1.00
C139   C     0.18099   0.80935   0.15919   0.00000  Uiso   1.00
C140   C     0.14724   0.77374   0.98956   0.00000  Uiso   1.00
C141   C     0.09116   0.71065   0.97678   0.00000  Uiso   1.00
C142   C     0.06794   0.68688   0.80963   0.00000  Uiso   1.00
C143   C     0.01069   0.62581   0.56888   0.00000  Uiso   1.00
C144   C     0.18217   0.87590   0.15574   0.00000  Uiso   1.00
C145   C     0.15547   0.89871   0.28271   0.00000  Uiso   1.00
C146   C     0.16165   0.96095   0.25545   0.00000  Uiso   1.00
C147   C     0.15867   0.05851   0.27278   0.00000  Uiso   1.00
C148   C     0.25362   0.82638   0.14441   0.00000  Uiso   1.00
C149   C     0.28700   0.80758   0.26188   0.00000  Uiso   1.00
C150   C     0.35335   0.82814   0.22511   0.00000  Uiso   1.00
C151   C     0.46131   0.84882   0.22485   0.00000  Uiso   1.00
C152   C     0.23946   0.87933   0.88506   0.00000  Uiso   1.00
C153   C     0.17900   0.81175   0.84066   0.00000  Uiso   1.00
C154   C     0.15585   0.78807   0.67349   0.00000  Uiso   1.00
C155   C     0.09975   0.72495   0.66046   0.00000  Uiso   1.00
C156   C     0.21392   0.91391   0.00685   0.00000  Uiso   1.00
C157   C     0.22016   0.97613   0.97941   0.00000  Uiso   1.00
C158   C     0.19347   0.99903   0.10629   0.00000  Uiso   1.00
C159   C     0.28538   0.86439   0.99552   0.00000  Uiso   1.00
C160   C     0.35169   0.88500   0.95857   0.00000  Uiso   1.00
C161   C     0.38517   0.86622   0.07595   0.00000  Uiso   1.00
H162   H     0.15626   0.77977   0.27511   0.00000  Uiso   1.00
H163   H     0.06660   0.68125   0.09204   0.00000  Uiso   1.00
H164   H     0.13090   0.86929   0.39792   0.00000  Uiso   1.00
H165   H     0.26241   0.77816   0.37708   0.00000  Uiso   1.00
H166   H     0.98118   0.58880   0.82341   0.00000  Uiso   1.00
H167   H     0.11678   0.98530   0.46841   0.00000  Uiso   1.00
H168   H     0.39410   0.79315   0.42448   0.00000  Uiso   1.00
H169   H     0.26418   0.90893   0.76914   0.00000  Uiso   1.00
H170   H     0.18044   0.81749   0.55829   0.00000  Uiso   1.00
H171   H     0.24474   0.00553   0.86418   0.00000  Uiso   1.00
H172   H     0.37625   0.91441   0.84334   0.00000  Uiso   1.00
H173   H     0.07357   0.69938   0.39019   0.00000  Uiso   1.00
H174   H     0.20918   0.09588   0.03521   0.00000  Uiso   1.00
H175   H     0.48650   0.90373   0.99126   0.00000  Uiso   1.00
O176   O     0.97033   0.58162   0.47723   0.00000  Uiso   1.00
O177   O     0.14824   0.10182   0.32347   0.00000  Uiso   1.00
O178   O     0.51208   0.84972   0.26582   0.00000  Uiso   1.00
N179   N     0.01442   0.62737   0.75038   0.00000  Uiso   1.00
N180   N     0.14120   0.99807   0.35341   0.00000  Uiso   1.00
N181   N     0.40047   0.81843   0.31236   0.00000  Uiso   1.00
N182   N     0.06414   0.68687   0.51728   0.00000  Uiso   1.00
N183   N     0.19091   0.05757   0.12030   0.00000  Uiso   1.00
N184   N     0.45019   0.87794   0.07925   0.00000  Uiso   1.00
C185   C     0.19065   0.37163   0.15919   0.00000  Uiso   1.00
C186   C     0.22626   0.37350   0.98956   0.00000  Uiso   1.00
C187   C     0.28935   0.38052   0.97678   0.00000  Uiso   1.00
C188   C     0.31312   0.38106   0.80963   0.00000  Uiso   1.00
C189   C     0.37419   0.38488   0.56888   0.00000  Uiso   1.00
C190   C     0.12410   0.30627   0.15574   0.00000  Uiso   1.00
C191   C     0.10129   0.25676   0.28271   0.00000  Uiso   1.00
C192   C     0.03905   0.20070   0.25545   0.00000  Uiso   1.00
C193   C     0.94149   0.10016   0.27278   0.00000  Uiso   1.00
C194   C     0.17362   0.42723   0.14441   0.00000  Uiso   1.00
C195   C     0.19242   0.47943   0.26188   0.00000  Uiso   1.00
C196   C     0.17186   0.52521   0.22511   0.00000  Uiso   1.00
C197   C     0.15118   0.61249   0.22485   0.00000  Uiso   1.00
C198   C     0.12067   0.36012   0.88506   0.00000  Uiso   1.00
C199   C     0.18825   0.36725   0.84066   0.00000  Uiso   1.00
C200   C     0.21193   0.36778   0.67349   0.00000  Uiso   1.00
C201   C     0.27505   0.37480   0.66046   0.00000  Uiso   1.00
C202   C     0.08609   0.30001   0.00685   0.00000  Uiso   1.00
C203   C     0.02387   0.24402   0.97941   0.00000  Uiso   1.00
C204   C     0.00097   0.19444   0.10629   0.00000  Uiso   1.00
C205   C     0.13561   0.42098   0.99552   0.00000  Uiso   1.00
C206   C     0.11500   0.46669   0.95857   0.00000  Uiso   1.00
C207   C     0.13378   0.51895   0.07595   0.00000  Uiso   1.00
H208   H     0.22023   0.37650   0.27511   0.00000  Uiso   1.00
H209   H     0.31875   0.38535   0.09204   0.00000  Uiso   1.00
H210   H     0.13071   0.26161   0.39792   0.00000  Uiso   1.00
H211   H     0.22184   0.48425   0.37708   0.00000  Uiso   1.00
H212   H     0.41120   0.39238   0.82341   0.00000  Uiso   1.00
H213   H     0.01470   0.13148   0.46841   0.00000  Uiso   1.00
H214   H     0.20685   0.60095   0.42448   0.00000  Uiso   1.00
H215   H     0.09107   0.35526   0.76914   0.00000  Uiso   1.00
H216   H     0.18251   0.36294   0.55829   0.00000  Uiso   1.00
H217   H     0.99447   0.23920   0.86418   0.00000  Uiso   1.00
H218   H     0.08559   0.46184   0.84334   0.00000  Uiso   1.00
H219   H     0.30062   0.37419   0.39019   0.00000  Uiso   1.00
H220   H     0.90412   0.11330   0.03521   0.00000  Uiso   1.00
H221   H     0.09627   0.58277   0.99126   0.00000  Uiso   1.00
O222   O     0.41838   0.38870   0.47723   0.00000  Uiso   1.00
O223   O     0.89818   0.04643   0.32347   0.00000  Uiso   1.00
O224   O     0.15028   0.66236   0.26582   0.00000  Uiso   1.00
N225   N     0.37263   0.38706   0.75038   0.00000  Uiso   1.00
N226   N     0.00193   0.14313   0.35341   0.00000  Uiso   1.00
N227   N     0.18157   0.58204   0.31236   0.00000  Uiso   1.00
N228   N     0.31313   0.37727   0.51728   0.00000  Uiso   1.00
N229   N     0.94243   0.13334   0.12030   0.00000  Uiso   1.00
N230   N     0.12206   0.57225   0.07925   0.00000  Uiso   1.00
C231   C     0.62837   0.81901   0.15919   0.00000  Uiso   1.00
C232   C     0.62650   0.85276   0.98956   0.00000  Uiso   1.00
C233   C     0.61948   0.90884   0.97678   0.00000  Uiso   1.00
C234   C     0.61894   0.93206   0.80963   0.00000  Uiso   1.00
C235   C     0.61512   0.98931   0.56888   0.00000  Uiso   1.00
C236   C     0.69373   0.81783   0.15574   0.00000  Uiso   1.00
C237   C     0.74324   0.84453   0.28271   0.00000  Uiso   1.00
C238   C     0.79930   0.83835   0.25545   0.00000  Uiso   1.00
C239   C     0.89984   0.84133   0.27278   0.00000  Uiso   1.00
C240   C     0.57277   0.74638   0.14441   0.00000  Uiso   1.00
C241   C     0.52057   0.71300   0.26188   0.00000  Uiso   1.00
C242   C     0.47479   0.64665   0.22511   0.00000  Uiso   1.00
C243   C     0.38751   0.53869   0.22485   0.00000  Uiso   1.00
C244   C     0.63988   0.76054   0.88506   0.00000  Uiso   1.00
C245   C     0.63275   0.82100   0.84066   0.00000  Uiso   1.00
C246   C     0.63222   0.84415   0.67349   0.00000  Uiso   1.00
C247   C     0.62520   0.90025   0.66046   0.00000  Uiso   1.00
C248   C     0.69999   0.78608   0.00685   0.00000  Uiso   1.00
C249   C     0.75598   0.77984   0.97941   0.00000  Uiso   1.00
C250   C     0.80556   0.80653   0.10629   0.00000  Uiso   1.00
C251   C     0.57902   0.71462   0.99552   0.00000  Uiso   1.00
C252   C     0.53331   0.64831   0.95857   0.00000  Uiso   1.00
C253   C     0.48105   0.61483   0.07595   0.00000  Uiso   1.00
H254   H     0.62350   0.84374   0.27511   0.00000  Uiso   1.00
H255   H     0.61465   0.93340   0.09204   0.00000  Uiso   1.00
H256   H     0.73839   0.86910   0.39792   0.00000  Uiso   1.00
H257   H     0.51575   0.73759   0.37708   0.00000  Uiso   1.00
H258   H     0.60762   0.01882   0.82341   0.00000  Uiso   1.00
H259   H     0.86852   0.88322   0.46841   0.00000  Uiso   1.00
H260   H     0.39905   0.60590   0.42448   0.00000  Uiso   1.00
H261   H     0.64474   0.73582   0.76914   0.00000  Uiso   1.00
H262   H     0.63706   0.81956   0.55829   0.00000  Uiso   1.00
H263   H     0.76080   0.75526   0.86418   0.00000  Uiso   1.00
H264   H     0.53816   0.62375   0.84334   0.00000  Uiso   1.00
H265   H     0.62581   0.92643   0.39019   0.00000  Uiso   1.00
H266   H     0.88670   0.79082   0.03521   0.00000  Uiso   1.00
H267   H     0.41723   0.51350   0.99126   0.00000  Uiso   1.00
O268   O     0.61130   0.02967   0.47723   0.00000  Uiso   1.00
O269   O     0.95357   0.85176   0.32347   0.00000  Uiso   1.00
O270   O     0.33764   0.48792   0.26582   0.00000  Uiso   1.00
N271   N     0.61294   0.98558   0.75038   0.00000  Uiso   1.00
N272   N     0.85687   0.85880   0.35341   0.00000  Uiso   1.00
N273   N     0.41796   0.59953   0.31236   0.00000  Uiso   1.00
N274   N     0.62273   0.93586   0.51728   0.00000  Uiso   1.00
N275   N     0.86666   0.80909   0.12030   0.00000  Uiso   1.00
N276   N     0.42775   0.54981   0.07925   0.00000  Uiso   1.00
