data_job_00165
_audit_creation_date              2018-12-19
_audit_creation_method            'Materials Studio'
_symmetry_space_group_name_H-M    'P1'
_symmetry_Int_Tables_number       1
_symmetry_cell_setting            triclinic
loop_
_symmetry_equiv_pos_as_xyz
  x,y,z
_cell_length_a                    20.4589
_cell_length_b                    7.4417
_cell_length_c                    18.8141
_cell_angle_alpha                 90.0000
_cell_angle_beta                  114.7150
_cell_angle_gamma                 90.0000
loop_
_atom_site_label
_atom_site_type_symbol
_atom_site_fract_x
_atom_site_fract_y
_atom_site_fract_z
_atom_site_U_iso_or_equiv
_atom_site_adp_type
_atom_site_occupancy
C1     C     0.30765   0.82648   0.70570   0.00000  Uiso   1.00
C2     C     0.30626   0.90562   0.63032   0.00000  Uiso   1.00
C3     C     0.30509   0.80806   0.56693   0.00000  Uiso   1.00
C4     C     0.30393   0.90546   0.50348   0.00000  Uiso   1.00
C5     C     0.30180   0.99973   0.38644   0.00000  Uiso   1.00
C6     C     0.37389   0.90560   0.77199   0.00000  Uiso   1.00
C7     C     0.42958   0.80801   0.82773   0.00000  Uiso   1.00
C8     C     0.48535   0.90539   0.88354   0.00000  Uiso   1.00
C9     C     0.58820   0.99962   0.98649   0.00000  Uiso   1.00
C10    C     0.24283   0.90564   0.71481   0.00000  Uiso   1.00
C11    C     0.18833   0.80808   0.72249   0.00000  Uiso   1.00
C12    C     0.13376   0.90550   0.73018   0.00000  Uiso   1.00
C13    C     0.03311   0.99979   0.74434   0.00000  Uiso   1.00
C14    C     0.30767   0.17295   0.70572   0.00000  Uiso   1.00
C15    C     0.30627   0.09382   0.63033   0.00000  Uiso   1.00
C16    C     0.30511   0.19139   0.56695   0.00000  Uiso   1.00
C17    C     0.30393   0.09399   0.50348   0.00000  Uiso   1.00
C18    C     0.37391   0.09378   0.77200   0.00000  Uiso   1.00
C19    C     0.42960   0.19133   0.82775   0.00000  Uiso   1.00
C20    C     0.48536   0.09392   0.88355   0.00000  Uiso   1.00
C21    C     0.24284   0.09383   0.71482   0.00000  Uiso   1.00
C22    C     0.18835   0.19142   0.72250   0.00000  Uiso   1.00
C23    C     0.13377   0.09403   0.73018   0.00000  Uiso   1.00
H24    H     0.30765   0.67997   0.70570   0.00000  Uiso   1.00
H25    H     0.30509   0.66242   0.56695   0.00000  Uiso   1.00
H26    H     0.42956   0.66238   0.82772   0.00000  Uiso   1.00
H27    H     0.18834   0.66246   0.72248   0.00000  Uiso   1.00
H28    H     0.30228   0.72597   0.41314   0.00000  Uiso   1.00
H29    H     0.56471   0.72586   0.96299   0.00000  Uiso   1.00
H30    H     0.05606   0.72603   0.74109   0.00000  Uiso   1.00
H31    H     0.30768   0.31947   0.70572   0.00000  Uiso   1.00
H32    H     0.30512   0.33702   0.56697   0.00000  Uiso   1.00
H33    H     0.42959   0.33696   0.82774   0.00000  Uiso   1.00
H34    H     0.18837   0.33705   0.72250   0.00000  Uiso   1.00
H35    H     0.30231   0.27349   0.41316   0.00000  Uiso   1.00
H36    H     0.56474   0.27339   0.96301   0.00000  Uiso   1.00
H37    H     0.05609   0.27356   0.74110   0.00000  Uiso   1.00
O38    O     0.30063   0.99974   0.32189   0.00000  Uiso   1.00
O39    O     0.64493   0.99960   0.04327   0.00000  Uiso   1.00
O40    O     0.97759   0.99982   0.75214   0.00000  Uiso   1.00
N41    N     0.30262   0.85242   0.43218   0.00000  Uiso   1.00
N42    N     0.54799   0.85232   0.94625   0.00000  Uiso   1.00
N43    N     0.07245   0.85248   0.73881   0.00000  Uiso   1.00
N44    N     0.30264   0.14704   0.43219   0.00000  Uiso   1.00
N45    N     0.54801   0.14694   0.94626   0.00000  Uiso   1.00
N46    N     0.07247   0.14710   0.73882   0.00000  Uiso   1.00
C47    C     0.69235   0.32648   0.79430   0.00000  Uiso   1.00
C48    C     0.69374   0.40562   0.86968   0.00000  Uiso   1.00
C49    C     0.69491   0.30806   0.93307   0.00000  Uiso   1.00
C50    C     0.69607   0.40546   0.99652   0.00000  Uiso   1.00
C51    C     0.69820   0.49973   0.11356   0.00000  Uiso   1.00
C52    C     0.62611   0.40560   0.72801   0.00000  Uiso   1.00
C53    C     0.57042   0.30801   0.67227   0.00000  Uiso   1.00
C54    C     0.51465   0.40539   0.61646   0.00000  Uiso   1.00
C55    C     0.41180   0.49962   0.51351   0.00000  Uiso   1.00
C56    C     0.75717   0.40564   0.78519   0.00000  Uiso   1.00
C57    C     0.81167   0.30808   0.77751   0.00000  Uiso   1.00
C58    C     0.86624   0.40550   0.76982   0.00000  Uiso   1.00
C59    C     0.96689   0.49979   0.75566   0.00000  Uiso   1.00
C60    C     0.69233   0.67295   0.79428   0.00000  Uiso   1.00
C61    C     0.69373   0.59382   0.86967   0.00000  Uiso   1.00
C62    C     0.69489   0.69139   0.93305   0.00000  Uiso   1.00
C63    C     0.69607   0.59399   0.99652   0.00000  Uiso   1.00
C64    C     0.62609   0.59378   0.72800   0.00000  Uiso   1.00
C65    C     0.57040   0.69133   0.67225   0.00000  Uiso   1.00
C66    C     0.51464   0.59392   0.61645   0.00000  Uiso   1.00
C67    C     0.75716   0.59383   0.78518   0.00000  Uiso   1.00
C68    C     0.81165   0.69142   0.77750   0.00000  Uiso   1.00
C69    C     0.86623   0.59403   0.76982   0.00000  Uiso   1.00
H70    H     0.69235   0.17997   0.79430   0.00000  Uiso   1.00
H71    H     0.69491   0.16242   0.93305   0.00000  Uiso   1.00
H72    H     0.57044   0.16238   0.67228   0.00000  Uiso   1.00
H73    H     0.81166   0.16246   0.77752   0.00000  Uiso   1.00
H74    H     0.69772   0.22597   0.08686   0.00000  Uiso   1.00
H75    H     0.43529   0.22586   0.53701   0.00000  Uiso   1.00
H76    H     0.94394   0.22603   0.75891   0.00000  Uiso   1.00
H77    H     0.69232   0.81947   0.79428   0.00000  Uiso   1.00
H78    H     0.69488   0.83702   0.93303   0.00000  Uiso   1.00
H79    H     0.57041   0.83696   0.67226   0.00000  Uiso   1.00
H80    H     0.81163   0.83705   0.77750   0.00000  Uiso   1.00
H81    H     0.69769   0.77349   0.08684   0.00000  Uiso   1.00
H82    H     0.43526   0.77339   0.53699   0.00000  Uiso   1.00
H83    H     0.94391   0.77356   0.75890   0.00000  Uiso   1.00
O84    O     0.69937   0.49974   0.17811   0.00000  Uiso   1.00
O85    O     0.35507   0.49960   0.45673   0.00000  Uiso   1.00
O86    O     0.02241   0.49982   0.74786   0.00000  Uiso   1.00
N87    N     0.69738   0.35242   0.06782   0.00000  Uiso   1.00
N88    N     0.45201   0.35232   0.55375   0.00000  Uiso   1.00
N89    N     0.92755   0.35248   0.76119   0.00000  Uiso   1.00
N90    N     0.69736   0.64704   0.06781   0.00000  Uiso   1.00
N91    N     0.45199   0.64694   0.55374   0.00000  Uiso   1.00
N92    N     0.92753   0.64710   0.76118   0.00000  Uiso   1.00
C93    C     0.69235   0.17352   0.29430   0.00000  Uiso   1.00
C94    C     0.69374   0.09438   0.36968   0.00000  Uiso   1.00
C95    C     0.69491   0.19194   0.43307   0.00000  Uiso   1.00
C96    C     0.69607   0.09454   0.49652   0.00000  Uiso   1.00
C97    C     0.69820   0.00027   0.61356   0.00000  Uiso   1.00
C98    C     0.62611   0.09440   0.22801   0.00000  Uiso   1.00
C99    C     0.57042   0.19199   0.17227   0.00000  Uiso   1.00
C100   C     0.51465   0.09461   0.11646   0.00000  Uiso   1.00
C101   C     0.41180   0.00038   0.01351   0.00000  Uiso   1.00
C102   C     0.75717   0.09436   0.28519   0.00000  Uiso   1.00
C103   C     0.81167   0.19192   0.27751   0.00000  Uiso   1.00
C104   C     0.86624   0.09450   0.26982   0.00000  Uiso   1.00
C105   C     0.96689   0.00021   0.25566   0.00000  Uiso   1.00
C106   C     0.69233   0.82705   0.29428   0.00000  Uiso   1.00
C107   C     0.69373   0.90618   0.36967   0.00000  Uiso   1.00
C108   C     0.69489   0.80861   0.43305   0.00000  Uiso   1.00
C109   C     0.69607   0.90601   0.49652   0.00000  Uiso   1.00
C110   C     0.62609   0.90622   0.22800   0.00000  Uiso   1.00
C111   C     0.57040   0.80867   0.17225   0.00000  Uiso   1.00
C112   C     0.51464   0.90608   0.11645   0.00000  Uiso   1.00
C113   C     0.75716   0.90617   0.28518   0.00000  Uiso   1.00
C114   C     0.81165   0.80858   0.27750   0.00000  Uiso   1.00
C115   C     0.86623   0.90597   0.26982   0.00000  Uiso   1.00
H116   H     0.69235   0.32003   0.29430   0.00000  Uiso   1.00
H117   H     0.69491   0.33758   0.43305   0.00000  Uiso   1.00
H118   H     0.57044   0.33762   0.17228   0.00000  Uiso   1.00
H119   H     0.81166   0.33754   0.27752   0.00000  Uiso   1.00
H120   H     0.69772   0.27403   0.58686   0.00000  Uiso   1.00
H121   H     0.43529   0.27414   0.03701   0.00000  Uiso   1.00
H122   H     0.94394   0.27397   0.25891   0.00000  Uiso   1.00
H123   H     0.69232   0.68053   0.29428   0.00000  Uiso   1.00
H124   H     0.69488   0.66298   0.43303   0.00000  Uiso   1.00
H125   H     0.57041   0.66304   0.17226   0.00000  Uiso   1.00
H126   H     0.81163   0.66295   0.27750   0.00000  Uiso   1.00
H127   H     0.69769   0.72651   0.58684   0.00000  Uiso   1.00
H128   H     0.43526   0.72661   0.03699   0.00000  Uiso   1.00
H129   H     0.94391   0.72644   0.25890   0.00000  Uiso   1.00
O130   O     0.69937   0.00026   0.67811   0.00000  Uiso   1.00
O131   O     0.35507   0.00040   0.95673   0.00000  Uiso   1.00
O132   O     0.02241   0.00018   0.24786   0.00000  Uiso   1.00
N133   N     0.69738   0.14758   0.56782   0.00000  Uiso   1.00
N134   N     0.45201   0.14768   0.05375   0.00000  Uiso   1.00
N135   N     0.92755   0.14752   0.26119   0.00000  Uiso   1.00
N136   N     0.69736   0.85296   0.56781   0.00000  Uiso   1.00
N137   N     0.45199   0.85306   0.05374   0.00000  Uiso   1.00
N138   N     0.92753   0.85290   0.26118   0.00000  Uiso   1.00
C139   C     0.30765   0.67352   0.20570   0.00000  Uiso   1.00
C140   C     0.30626   0.59438   0.13032   0.00000  Uiso   1.00
C141   C     0.30509   0.69194   0.06693   0.00000  Uiso   1.00
C142   C     0.30393   0.59454   0.00348   0.00000  Uiso   1.00
C143   C     0.30180   0.50027   0.88644   0.00000  Uiso   1.00
C144   C     0.37389   0.59440   0.27199   0.00000  Uiso   1.00
C145   C     0.42958   0.69199   0.32773   0.00000  Uiso   1.00
C146   C     0.48535   0.59461   0.38354   0.00000  Uiso   1.00
C147   C     0.58820   0.50038   0.48649   0.00000  Uiso   1.00
C148   C     0.24283   0.59436   0.21481   0.00000  Uiso   1.00
C149   C     0.18833   0.69192   0.22249   0.00000  Uiso   1.00
C150   C     0.13376   0.59450   0.23018   0.00000  Uiso   1.00
C151   C     0.03311   0.50021   0.24434   0.00000  Uiso   1.00
C152   C     0.30767   0.32705   0.20572   0.00000  Uiso   1.00
C153   C     0.30627   0.40618   0.13033   0.00000  Uiso   1.00
C154   C     0.30511   0.30861   0.06695   0.00000  Uiso   1.00
C155   C     0.30393   0.40601   0.00348   0.00000  Uiso   1.00
C156   C     0.37391   0.40622   0.27200   0.00000  Uiso   1.00
C157   C     0.42960   0.30867   0.32775   0.00000  Uiso   1.00
C158   C     0.48536   0.40608   0.38355   0.00000  Uiso   1.00
C159   C     0.24284   0.40617   0.21482   0.00000  Uiso   1.00
C160   C     0.18835   0.30858   0.22250   0.00000  Uiso   1.00
C161   C     0.13377   0.40597   0.23018   0.00000  Uiso   1.00
H162   H     0.30765   0.82003   0.20570   0.00000  Uiso   1.00
H163   H     0.30509   0.83758   0.06695   0.00000  Uiso   1.00
H164   H     0.42956   0.83762   0.32772   0.00000  Uiso   1.00
H165   H     0.18834   0.83754   0.22248   0.00000  Uiso   1.00
H166   H     0.30228   0.77403   0.91314   0.00000  Uiso   1.00
H167   H     0.56471   0.77414   0.46299   0.00000  Uiso   1.00
H168   H     0.05606   0.77397   0.24109   0.00000  Uiso   1.00
H169   H     0.30768   0.18053   0.20572   0.00000  Uiso   1.00
H170   H     0.30512   0.16298   0.06697   0.00000  Uiso   1.00
H171   H     0.42959   0.16304   0.32774   0.00000  Uiso   1.00
H172   H     0.18837   0.16295   0.22250   0.00000  Uiso   1.00
H173   H     0.30231   0.22651   0.91316   0.00000  Uiso   1.00
H174   H     0.56474   0.22661   0.46301   0.00000  Uiso   1.00
H175   H     0.05609   0.22644   0.24110   0.00000  Uiso   1.00
O176   O     0.30063   0.50026   0.82189   0.00000  Uiso   1.00
O177   O     0.64493   0.50040   0.54327   0.00000  Uiso   1.00
O178   O     0.97759   0.50018   0.25214   0.00000  Uiso   1.00
N179   N     0.30262   0.64758   0.93218   0.00000  Uiso   1.00
N180   N     0.54799   0.64768   0.44625   0.00000  Uiso   1.00
N181   N     0.07245   0.64752   0.23881   0.00000  Uiso   1.00
N182   N     0.30264   0.35296   0.93219   0.00000  Uiso   1.00
N183   N     0.54801   0.35306   0.44626   0.00000  Uiso   1.00
N184   N     0.07247   0.35290   0.23882   0.00000  Uiso   1.00
