data_job_06514
_audit_creation_date              2018-12-19
_audit_creation_method            'Materials Studio'
_symmetry_space_group_name_H-M    'P1'
_symmetry_Int_Tables_number       1
_symmetry_cell_setting            triclinic
loop_
_symmetry_equiv_pos_as_xyz
  x,y,z
_cell_length_a                    20.0809
_cell_length_b                    20.1720
_cell_length_c                    23.1999
_cell_angle_alpha                 115.2794
_cell_angle_beta                  66.8829
_cell_angle_gamma                 91.2831
loop_
_atom_site_label
_atom_site_type_symbol
_atom_site_fract_x
_atom_site_fract_y
_atom_site_fract_z
_atom_site_U_iso_or_equiv
_atom_site_adp_type
_atom_site_occupancy
C1     C     0.07045   0.83429   0.65281   0.00000  Uiso   1.00
C2     C     0.03966   0.76721   0.66041   0.00000  Uiso   1.00
C3     C     0.03914   0.70152   0.60613   0.00000  Uiso   1.00
C4     C     0.00845   0.64679   0.62390   0.00000  Uiso   1.00
C5     C     0.96504   0.54101   0.62512   0.00000  Uiso   1.00
C6     C     0.00758   0.90051   0.70273   0.00000  Uiso   1.00
C7     C     0.98010   0.94690   0.68404   0.00000  Uiso   1.00
C8     C     0.92241   0.00439   0.73744   0.00000  Uiso   1.00
C9     C     0.82922   0.10559   0.80437   0.00000  Uiso   1.00
C10    C     0.12738   0.84860   0.68307   0.00000  Uiso   1.00
C11    C     0.20063   0.85138   0.64785   0.00000  Uiso   1.00
C12    C     0.24380   0.86518   0.68470   0.00000  Uiso   1.00
C13    C     0.33663   0.88580   0.72110   0.00000  Uiso   1.00
C14    C     0.01686   0.85389   0.78088   0.00000  Uiso   1.00
C15    C     0.01055   0.77785   0.72997   0.00000  Uiso   1.00
C16    C     0.97986   0.72320   0.74783   0.00000  Uiso   1.00
C17    C     0.97930   0.65744   0.69359   0.00000  Uiso   1.00
C18    C     0.97847   0.91115   0.77229   0.00000  Uiso   1.00
C19    C     0.92081   0.96858   0.82573   0.00000  Uiso   1.00
C20    C     0.89325   0.01505   0.80713   0.00000  Uiso   1.00
C21    C     0.09828   0.85924   0.75263   0.00000  Uiso   1.00
C22    C     0.14134   0.87305   0.78954   0.00000  Uiso   1.00
C23    C     0.21464   0.87585   0.75439   0.00000  Uiso   1.00
H24    H     0.09311   0.82601   0.59866   0.00000  Uiso   1.00
H25    H     0.06167   0.69331   0.55231   0.00000  Uiso   1.00
H26    H     0.00264   0.93866   0.63021   0.00000  Uiso   1.00
H27    H     0.22314   0.84314   0.59402   0.00000  Uiso   1.00
H28    H     0.01395   0.55089   0.53160   0.00000  Uiso   1.00
H29    H     0.88950   0.06823   0.69586   0.00000  Uiso   1.00
H30    H     0.35447   0.86683   0.61955   0.00000  Uiso   1.00
H31    H     0.99420   0.86218   0.83504   0.00000  Uiso   1.00
H32    H     0.95734   0.73145   0.80166   0.00000  Uiso   1.00
H33    H     0.89830   0.97680   0.87956   0.00000  Uiso   1.00
H34    H     0.11880   0.88129   0.84337   0.00000  Uiso   1.00
H35    H     0.92927   0.58185   0.73398   0.00000  Uiso   1.00
H36    H     0.80482   0.09919   0.89824   0.00000  Uiso   1.00
H37    H     0.26978   0.89778   0.82194   0.00000  Uiso   1.00
O38    O     0.94912   0.47973   0.60657   0.00000  Uiso   1.00
O39    O     0.78585   0.15847   0.82207   0.00000  Uiso   1.00
O40    O     0.39588   0.89423   0.72196   0.00000  Uiso   1.00
N41    N     0.99910   0.57611   0.58381   0.00000  Uiso   1.00
N42    N     0.88273   0.05979   0.73738   0.00000  Uiso   1.00
N43    N     0.31743   0.87151   0.66604   0.00000  Uiso   1.00
N44    N     0.95353   0.59277   0.69271   0.00000  Uiso   1.00
N45    N     0.83716   0.07644   0.84628   0.00000  Uiso   1.00
N46    N     0.27186   0.88817   0.77495   0.00000  Uiso   1.00
C47    C     0.09130   0.10286   0.34470   0.00000  Uiso   1.00
C48    C     0.06328   0.16973   0.41737   0.00000  Uiso   1.00
C49    C     0.07200   0.17271   0.47483   0.00000  Uiso   1.00
C50    C     0.04234   0.23898   0.53670   0.00000  Uiso   1.00
C51    C     0.00443   0.33351   0.64892   0.00000  Uiso   1.00
C52    C     0.02421   0.08541   0.32902   0.00000  Uiso   1.00
C53    C     0.00009   0.01749   0.31219   0.00000  Uiso   1.00
C54    C     0.93755   0.01278   0.29967   0.00000  Uiso   1.00
C55    C     0.83902   0.97638   0.27467   0.00000  Uiso   1.00
C56    C     0.13969   0.13047   0.29297   0.00000  Uiso   1.00
C57    C     0.21266   0.10043   0.24582   0.00000  Uiso   1.00
C58    C     0.24734   0.13365   0.20294   0.00000  Uiso   1.00
C59    C     0.32811   0.16721   0.12198   0.00000  Uiso   1.00
C60    C     0.02313   0.21526   0.35239   0.00000  Uiso   1.00
C61    C     0.02625   0.23078   0.42155   0.00000  Uiso   1.00
C62    C     0.99658   0.29706   0.48335   0.00000  Uiso   1.00
C63    C     0.00525   0.30014   0.54089   0.00000  Uiso   1.00
C64    C     0.98718   0.14646   0.33320   0.00000  Uiso   1.00
C65    C     0.92467   0.14185   0.32070   0.00000  Uiso   1.00
C66    C     0.90046   0.07394   0.30386   0.00000  Uiso   1.00
C67    C     0.10266   0.19152   0.29715   0.00000  Uiso   1.00
C68    C     0.13724   0.22479   0.25434   0.00000  Uiso   1.00
C69    C     0.21025   0.19480   0.20713   0.00000  Uiso   1.00
H70    H     0.12012   0.05533   0.34144   0.00000  Uiso   1.00
H71    H     0.10065   0.12545   0.47158   0.00000  Uiso   1.00
H72    H     0.02875   0.97026   0.30895   0.00000  Uiso   1.00
H73    H     0.24129   0.05319   0.24260   0.00000  Uiso   1.00
H74    H     0.06271   0.23010   0.61771   0.00000  Uiso   1.00
H75    H     0.91113   0.90286   0.27478   0.00000  Uiso   1.00
H76    H     0.35931   0.07773   0.13486   0.00000  Uiso   1.00
H77    H     0.99431   0.26279   0.35564   0.00000  Uiso   1.00
H78    H     0.96793   0.34430   0.48656   0.00000  Uiso   1.00
H79    H     0.89604   0.18910   0.32393   0.00000  Uiso   1.00
H80    H     0.10857   0.27203   0.25758   0.00000  Uiso   1.00
H81    H     0.95499   0.40772   0.62988   0.00000  Uiso   1.00
H82    H     0.80341   0.08048   0.28694   0.00000  Uiso   1.00
H83    H     0.25159   0.25535   0.14702   0.00000  Uiso   1.00
O84    O     0.99374   0.36878   0.70967   0.00000  Uiso   1.00
O85    O     0.79489   0.93944   0.25974   0.00000  Uiso   1.00
O86    O     0.38289   0.16887   0.07617   0.00000  Uiso   1.00
N87    N     0.04099   0.26072   0.60261   0.00000  Uiso   1.00
N88    N     0.89926   0.95478   0.28199   0.00000  Uiso   1.00
N89    N     0.31827   0.11825   0.15117   0.00000  Uiso   1.00
N90    N     0.98302   0.35630   0.60915   0.00000  Uiso   1.00
N91    N     0.84130   0.05035   0.28853   0.00000  Uiso   1.00
N92    N     0.26031   0.21383   0.15771   0.00000  Uiso   1.00
C93    C     0.16802   0.47862   0.99083   0.00000  Uiso   1.00
C94    C     0.12168   0.49446   0.95801   0.00000  Uiso   1.00
C95    C     0.13813   0.53578   0.92083   0.00000  Uiso   1.00
C96    C     0.08872   0.54388   0.89501   0.00000  Uiso   1.00
C97    C     0.02641   0.57339   0.84240   0.00000  Uiso   1.00
C98    C     0.11729   0.50681   0.06865   0.00000  Uiso   1.00
C99    C     0.13005   0.55850   0.12448   0.00000  Uiso   1.00
C100   C     0.07695   0.57697   0.19179   0.00000  Uiso   1.00
C101   C     0.00785   0.62560   0.31095   0.00000  Uiso   1.00
C102   C     0.18492   0.39411   0.95972   0.00000  Uiso   1.00
C103   C     0.25454   0.35104   0.92400   0.00000  Uiso   1.00
C104   C     0.25838   0.27463   0.89962   0.00000  Uiso   1.00
C105   C     0.29428   0.14829   0.84966   0.00000  Uiso   1.00
C106   C     0.05103   0.41953   0.01109   0.00000  Uiso   1.00
C107   C     0.05813   0.46237   0.96901   0.00000  Uiso   1.00
C108   C     0.00868   0.47040   0.94324   0.00000  Uiso   1.00
C109   C     0.02506   0.51172   0.90602   0.00000  Uiso   1.00
C110   C     0.05374   0.47471   0.07965   0.00000  Uiso   1.00
C111   C     0.00061   0.49311   0.14689   0.00000  Uiso   1.00
C112   C     0.01329   0.54482   0.20282   0.00000  Uiso   1.00
C113   C     0.12137   0.36201   0.97072   0.00000  Uiso   1.00
C114   C     0.12510   0.28566   0.94640   0.00000  Uiso   1.00
C115   C     0.19472   0.24248   0.91064   0.00000  Uiso   1.00
H116   H     0.21749   0.50362   0.98227   0.00000  Uiso   1.00
H117   H     0.18731   0.56062   0.91233   0.00000  Uiso   1.00
H118   H     0.17924   0.58332   0.11595   0.00000  Uiso   1.00
H119   H     0.30371   0.37590   0.91549   0.00000  Uiso   1.00
H120   H     0.12580   0.60969   0.83966   0.00000  Uiso   1.00
H121   H     0.10880   0.65753   0.26901   0.00000  Uiso   1.00
H122   H     0.37127   0.22014   0.84631   0.00000  Uiso   1.00
H123   H     0.00155   0.39454   0.01965   0.00000  Uiso   1.00
H124   H     0.95951   0.44555   0.95176   0.00000  Uiso   1.00
H125   H     0.95144   0.46826   0.15539   0.00000  Uiso   1.00
H126   H     0.07591   0.26083   0.95493   0.00000  Uiso   1.00
H127   H     0.94091   0.51630   0.87167   0.00000  Uiso   1.00
H128   H     0.92391   0.56414   0.30102   0.00000  Uiso   1.00
H129   H     0.18638   0.12675   0.87831   0.00000  Uiso   1.00
O130   O     0.00959   0.59855   0.81035   0.00000  Uiso   1.00
O131   O     0.98729   0.66130   0.37364   0.00000  Uiso   1.00
O132   O     0.33164   0.08746   0.81906   0.00000  Uiso   1.00
N133   N     0.08806   0.58070   0.85650   0.00000  Uiso   1.00
N134   N     0.07216   0.62544   0.25792   0.00000  Uiso   1.00
N135   N     0.31755   0.21652   0.86274   0.00000  Uiso   1.00
N136   N     0.98858   0.53044   0.87372   0.00000  Uiso   1.00
N137   N     0.97267   0.57518   0.27514   0.00000  Uiso   1.00
N138   N     0.21806   0.16626   0.87996   0.00000  Uiso   1.00
C139   C     0.63661   0.53593   0.19175   0.00000  Uiso   1.00
C140   C     0.57208   0.55109   0.26118   0.00000  Uiso   1.00
C141   C     0.57000   0.59191   0.32768   0.00000  Uiso   1.00
C142   C     0.50588   0.59943   0.38461   0.00000  Uiso   1.00
C143   C     0.41476   0.62791   0.49383   0.00000  Uiso   1.00
C144   C     0.60632   0.56462   0.15421   0.00000  Uiso   1.00
C145   C     0.63305   0.61679   0.13076   0.00000  Uiso   1.00
C146   C     0.59776   0.63569   0.09764   0.00000  Uiso   1.00
C147   C     0.55984   0.68512   0.04076   0.00000  Uiso   1.00
C148   C     0.65593   0.45149   0.14810   0.00000  Uiso   1.00
C149   C     0.72438   0.40854   0.11950   0.00000  Uiso   1.00
C150   C     0.73086   0.33219   0.08122   0.00000  Uiso   1.00
C151   C     0.76998   0.20597   0.01484   0.00000  Uiso   1.00
C152   C     0.52643   0.47670   0.17460   0.00000  Uiso   1.00
C153   C     0.51223   0.51892   0.25186   0.00000  Uiso   1.00
C154   C     0.44810   0.52638   0.30871   0.00000  Uiso   1.00
C155   C     0.44593   0.56720   0.37528   0.00000  Uiso   1.00
C156   C     0.54648   0.53245   0.14490   0.00000  Uiso   1.00
C157   C     0.51114   0.55126   0.11180   0.00000  Uiso   1.00
C158   C     0.53780   0.60346   0.08831   0.00000  Uiso   1.00
C159   C     0.59609   0.41931   0.13879   0.00000  Uiso   1.00
C160   C     0.60247   0.34301   0.10054   0.00000  Uiso   1.00
C161   C     0.67091   0.29996   0.07189   0.00000  Uiso   1.00
H162   H     0.68320   0.56097   0.19899   0.00000  Uiso   1.00
H163   H     0.61632   0.61681   0.33486   0.00000  Uiso   1.00
H164   H     0.67936   0.64167   0.13797   0.00000  Uiso   1.00
H165   H     0.77068   0.43346   0.12672   0.00000  Uiso   1.00
H166   H     0.51577   0.66454   0.48139   0.00000  Uiso   1.00
H167   H     0.64871   0.71696   0.06622   0.00000  Uiso   1.00
H168   H     0.84126   0.27789   0.04248   0.00000  Uiso   1.00
H169   H     0.47984   0.45165   0.16735   0.00000  Uiso   1.00
H170   H     0.40180   0.50148   0.30148   0.00000  Uiso   1.00
H171   H     0.46484   0.52635   0.10460   0.00000  Uiso   1.00
H172   H     0.55615   0.31814   0.09334   0.00000  Uiso   1.00
H173   H     0.34165   0.57094   0.45430   0.00000  Uiso   1.00
H174   H     0.47459   0.62336   0.03913   0.00000  Uiso   1.00
H175   H     0.66715   0.18429   0.01539   0.00000  Uiso   1.00
O176   O     0.38103   0.65251   0.55666   0.00000  Uiso   1.00
O177   O     0.55545   0.72128   0.01196   0.00000  Uiso   1.00
O178   O     0.80808   0.14523   0.98082   0.00000  Uiso   1.00
N179   N     0.48551   0.63566   0.45661   0.00000  Uiso   1.00
N180   N     0.60979   0.68468   0.06846   0.00000  Uiso   1.00
N181   N     0.78982   0.27419   0.04625   0.00000  Uiso   1.00
N182   N     0.39182   0.58529   0.44203   0.00000  Uiso   1.00
N183   N     0.51610   0.63432   0.05388   0.00000  Uiso   1.00
N184   N     0.69613   0.22382   0.03167   0.00000  Uiso   1.00
C185   C     0.63735   0.72705   0.75828   0.00000  Uiso   1.00
C186   C     0.59143   0.69268   0.71743   0.00000  Uiso   1.00
C187   C     0.57889   0.61986   0.69530   0.00000  Uiso   1.00
C188   C     0.53534   0.59916   0.65863   0.00000  Uiso   1.00
C189   C     0.46856   0.53814   0.59736   0.00000  Uiso   1.00
C190   C     0.58687   0.79513   0.82505   0.00000  Uiso   1.00
C191   C     0.57051   0.80844   0.89341   0.00000  Uiso   1.00
C192   C     0.52313   0.87399   0.94733   0.00000  Uiso   1.00
C193   C     0.44932   0.97205   0.05315   0.00000  Uiso   1.00
C194   C     0.69600   0.75691   0.71471   0.00000  Uiso   1.00
C195   C     0.77140   0.73810   0.69030   0.00000  Uiso   1.00
C196   C     0.81590   0.77148   0.65133   0.00000  Uiso   1.00
C197   C     0.91153   0.81019   0.58582   0.00000  Uiso   1.00
C198   C     0.58229   0.81980   0.73251   0.00000  Uiso   1.00
C199   C     0.56153   0.74307   0.70343   0.00000  Uiso   1.00
C200   C     0.51799   0.72247   0.66678   0.00000  Uiso   1.00
C201   C     0.50539   0.64963   0.64460   0.00000  Uiso   1.00
C202   C     0.55697   0.84551   0.81106   0.00000  Uiso   1.00
C203   C     0.50960   0.91106   0.86489   0.00000  Uiso   1.00
C204   C     0.49317   0.92446   0.93331   0.00000  Uiso   1.00
C205   C     0.66610   0.80729   0.70071   0.00000  Uiso   1.00
C206   C     0.71049   0.84071   0.66178   0.00000  Uiso   1.00
C207   C     0.78594   0.82195   0.63731   0.00000  Uiso   1.00
H208   H     0.66062   0.68783   0.76919   0.00000  Uiso   1.00
H209   H     0.60204   0.58089   0.70615   0.00000  Uiso   1.00
H210   H     0.59367   0.76945   0.90423   0.00000  Uiso   1.00
H211   H     0.79452   0.69911   0.70114   0.00000  Uiso   1.00
H212   H     0.52388   0.48454   0.63011   0.00000  Uiso   1.00
H213   H     0.50624   0.88214   0.04777   0.00000  Uiso   1.00
H214   H     0.92979   0.73383   0.61953   0.00000  Uiso   1.00
H215   H     0.55901   0.85903   0.72161   0.00000  Uiso   1.00
H216   H     0.49485   0.76147   0.65595   0.00000  Uiso   1.00
H217   H     0.48648   0.95003   0.85404   0.00000  Uiso   1.00
H218   H     0.68733   0.87970   0.65095   0.00000  Uiso   1.00
H219   H     0.43688   0.63111   0.58937   0.00000  Uiso   1.00
H220   H     0.41925   0.02872   0.00703   0.00000  Uiso   1.00
H221   H     0.84278   0.88040   0.57879   0.00000  Uiso   1.00
O222   O     0.43998   0.49057   0.56743   0.00000  Uiso   1.00
O223   O     0.41686   0.01221   0.11538   0.00000  Uiso   1.00
O224   O     0.97253   0.81762   0.55354   0.00000  Uiso   1.00
N225   N     0.51222   0.53242   0.62952   0.00000  Uiso   1.00
N226   N     0.49572   0.90415   0.02000   0.00000  Uiso   1.00
N227   N     0.89170   0.76550   0.61965   0.00000  Uiso   1.00
N228   N     0.46541   0.61129   0.60760   0.00000  Uiso   1.00
N229   N     0.44891   0.98302   0.99808   0.00000  Uiso   1.00
N230   N     0.84489   0.84437   0.59773   0.00000  Uiso   1.00
C231   C     0.64002   0.09252   0.44991   0.00000  Uiso   1.00
C232   C     0.60943   0.16261   0.45229   0.00000  Uiso   1.00
C233   C     0.62540   0.17613   0.39482   0.00000  Uiso   1.00
C234   C     0.59182   0.24365   0.40796   0.00000  Uiso   1.00
C235   C     0.55157   0.34455   0.40127   0.00000  Uiso   1.00
C236   C     0.57343   0.06192   0.48322   0.00000  Uiso   1.00
C237   C     0.55914   0.99077   0.45176   0.00000  Uiso   1.00
C238   C     0.49526   0.97352   0.49095   0.00000  Uiso   1.00
C239   C     0.39914   0.91808   0.53231   0.00000  Uiso   1.00
C240   C     0.67687   0.11872   0.50026   0.00000  Uiso   1.00
C241   C     0.74955   0.09531   0.48314   0.00000  Uiso   1.00
C242   C     0.77275   0.12587   0.53668   0.00000  Uiso   1.00
C243   C     0.83724   0.15861   0.60450   0.00000  Uiso   1.00
C244   C     0.55199   0.18838   0.57546   0.00000  Uiso   1.00
C245   C     0.56161   0.21468   0.52048   0.00000  Uiso   1.00
C246   C     0.52800   0.28220   0.53372   0.00000  Uiso   1.00
C247   C     0.54392   0.29582   0.47627   0.00000  Uiso   1.00
C248   C     0.52561   0.11398   0.55141   0.00000  Uiso   1.00
C249   C     0.46174   0.09684   0.59066   0.00000  Uiso   1.00
C250   C     0.44735   0.02569   0.55927   0.00000  Uiso   1.00
C251   C     0.62906   0.17079   0.56845   0.00000  Uiso   1.00
C252   C     0.65215   0.20138   0.62204   0.00000  Uiso   1.00
C253   C     0.72485   0.17804   0.60500   0.00000  Uiso   1.00
H254   H     0.67725   0.05198   0.39682   0.00000  Uiso   1.00
H255   H     0.66241   0.13582   0.34205   0.00000  Uiso   1.00
H256   H     0.59616   0.95049   0.39899   0.00000  Uiso   1.00
H257   H     0.78654   0.05502   0.43036   0.00000  Uiso   1.00
H258   H     0.62484   0.25173   0.31139   0.00000  Uiso   1.00
H259   H     0.48516   0.86093   0.43146   0.00000  Uiso   1.00
H260   H     0.88662   0.08135   0.49762   0.00000  Uiso   1.00
H261   H     0.51476   0.22892   0.62855   0.00000  Uiso   1.00
H262   H     0.49100   0.32248   0.58649   0.00000  Uiso   1.00
H263   H     0.42475   0.13714   0.64343   0.00000  Uiso   1.00
H264   H     0.61513   0.24168   0.67480   0.00000  Uiso   1.00
H265   H     0.48572   0.40323   0.50979   0.00000  Uiso   1.00
H266   H     0.34604   0.01243   0.62986   0.00000  Uiso   1.00
H267   H     0.74750   0.23285   0.69601   0.00000  Uiso   1.00
O268   O     0.54257   0.38582   0.37874   0.00000  Uiso   1.00
O269   O     0.35932   0.87311   0.53627   0.00000  Uiso   1.00
O270   O     0.88602   0.16230   0.62306   0.00000  Uiso   1.00
N271   N     0.59537   0.27455   0.36386   0.00000  Uiso   1.00
N272   N     0.46478   0.90918   0.47611   0.00000  Uiso   1.00
N273   N     0.84010   0.11524   0.53797   0.00000  Uiso   1.00
N274   N     0.52051   0.35607   0.47062   0.00000  Uiso   1.00
N275   N     0.38992   0.99070   0.58287   0.00000  Uiso   1.00
N276   N     0.76524   0.19677   0.64472   0.00000  Uiso   1.00
C277   C     0.07957   0.47544   0.37259   0.00000  Uiso   1.00
C278   C     0.11526   0.54183   0.36865   0.00000  Uiso   1.00
C279   C     0.08645   0.61603   0.41677   0.00000  Uiso   1.00
C280   C     0.12753   0.66847   0.40382   0.00000  Uiso   1.00
C281   C     0.17271   0.77476   0.40669   0.00000  Uiso   1.00
C282   C     0.13597   0.42482   0.37130   0.00000  Uiso   1.00
C283   C     0.12457   0.40064   0.42165   0.00000  Uiso   1.00
C284   C     0.18308   0.35458   0.41092   0.00000  Uiso   1.00
C285   C     0.26039   0.27917   0.41788   0.00000  Uiso   1.00
C286   C     0.07259   0.43307   0.30342   0.00000  Uiso   1.00
C287   C     0.00790   0.41581   0.29669   0.00000  Uiso   1.00
C288   C     0.01305   0.37668   0.22881   0.00000  Uiso   1.00
C289   C     0.99195   0.31408   0.13037   0.00000  Uiso   1.00
C290   C     0.20376   0.43663   0.26402   0.00000  Uiso   1.00
C291   C     0.18272   0.52074   0.30968   0.00000  Uiso   1.00
C292   C     0.22386   0.57308   0.29665   0.00000  Uiso   1.00
C293   C     0.19511   0.64735   0.34474   0.00000  Uiso   1.00
C294   C     0.20343   0.40374   0.31233   0.00000  Uiso   1.00
C295   C     0.26197   0.35770   0.30152   0.00000  Uiso   1.00
C296   C     0.25066   0.33346   0.35184   0.00000  Uiso   1.00
C297   C     0.14005   0.41199   0.24445   0.00000  Uiso   1.00
C298   C     0.14530   0.37287   0.17656   0.00000  Uiso   1.00
C299   C     0.08063   0.35555   0.16973   0.00000  Uiso   1.00
H300   H     0.02706   0.49185   0.41850   0.00000  Uiso   1.00
H301   H     0.03425   0.63232   0.46241   0.00000  Uiso   1.00
H302   H     0.07236   0.41696   0.46727   0.00000  Uiso   1.00
H303   H     0.95571   0.43213   0.34233   0.00000  Uiso   1.00
H304   H     0.07199   0.77876   0.48508   0.00000  Uiso   1.00
H305   H     0.15233   0.32464   0.49534   0.00000  Uiso   1.00
H306   H     0.90634   0.35663   0.23188   0.00000  Uiso   1.00
H307   H     0.25628   0.42021   0.21810   0.00000  Uiso   1.00
H308   H     0.27606   0.55675   0.25101   0.00000  Uiso   1.00
H309   H     0.31416   0.34139   0.25588   0.00000  Uiso   1.00
H310   H     0.19751   0.35656   0.13094   0.00000  Uiso   1.00
H311   H     0.26825   0.71742   0.31351   0.00000  Uiso   1.00
H312   H     0.34859   0.26330   0.32376   0.00000  Uiso   1.00
H313   H     0.10260   0.29529   0.06030   0.00000  Uiso   1.00
O314   O     0.17900   0.83920   0.42457   0.00000  Uiso   1.00
O315   O     0.28440   0.24340   0.43802   0.00000  Uiso   1.00
O316   O     0.96167   0.28538   0.09237   0.00000  Uiso   1.00
N317   N     0.11546   0.74559   0.44018   0.00000  Uiso   1.00
N318   N     0.19058   0.32102   0.44978   0.00000  Uiso   1.00
N319   N     0.96060   0.35091   0.20346   0.00000  Uiso   1.00
N320   N     0.22106   0.71258   0.34786   0.00000  Uiso   1.00
N321   N     0.29618   0.28802   0.35745   0.00000  Uiso   1.00
N322   N     0.06621   0.31791   0.11114   0.00000  Uiso   1.00
C323   C     0.05640   0.19905   0.78150   0.00000  Uiso   1.00
C324   C     0.06425   0.14020   0.70964   0.00000  Uiso   1.00
C325   C     0.01867   0.14091   0.67776   0.00000  Uiso   1.00
C326   C     0.03507   0.08196   0.61190   0.00000  Uiso   1.00
C327   C     0.03818   0.99936   0.50528   0.00000  Uiso   1.00
C328   C     0.12963   0.22673   0.76908   0.00000  Uiso   1.00
C329   C     0.13902   0.30020   0.78719   0.00000  Uiso   1.00
C330   C     0.21046   0.31409   0.77137   0.00000  Uiso   1.00
C331   C     0.31507   0.36584   0.75708   0.00000  Uiso   1.00
C332   C     0.05082   0.15761   0.82448   0.00000  Uiso   1.00
C333   C     0.99396   0.17297   0.88919   0.00000  Uiso   1.00
C334   C     0.99905   0.12869   0.92003   0.00000  Uiso   1.00
C335   C     0.98130   0.07312   0.99176   0.00000  Uiso   1.00
C336   C     0.16658   0.09310   0.72122   0.00000  Uiso   1.00
C337   C     0.12410   0.08265   0.67690   0.00000  Uiso   1.00
C338   C     0.14057   0.02369   0.61107   0.00000  Uiso   1.00
C339   C     0.09502   0.02431   0.57910   0.00000  Uiso   1.00
C340   C     0.18947   0.16919   0.73634   0.00000  Uiso   1.00
C341   C     0.26092   0.18298   0.72050   0.00000  Uiso   1.00
C342   C     0.27041   0.25645   0.73857   0.00000  Uiso   1.00
C343   C     0.11066   0.10007   0.79174   0.00000  Uiso   1.00
C344   C     0.11585   0.05576   0.82249   0.00000  Uiso   1.00
C345   C     0.05901   0.07104   0.88723   0.00000  Uiso   1.00
H346   H     0.00981   0.24385   0.80700   0.00000  Uiso   1.00
H347   H     0.97237   0.18545   0.70312   0.00000  Uiso   1.00
H348   H     0.09270   0.34471   0.81253   0.00000  Uiso   1.00
H349   H     0.94765   0.21751   0.91451   0.00000  Uiso   1.00
H350   H     0.95726   0.09535   0.57350   0.00000  Uiso   1.00
H351   H     0.21098   0.43116   0.80423   0.00000  Uiso   1.00
H352   H     0.90513   0.16293   0.01928   0.00000  Uiso   1.00
H353   H     0.21317   0.04830   0.69573   0.00000  Uiso   1.00
H354   H     0.18688   0.97917   0.58575   0.00000  Uiso   1.00
H355   H     0.30721   0.13844   0.69516   0.00000  Uiso   1.00
H356   H     0.16217   0.01123   0.79714   0.00000  Uiso   1.00
H357   H     0.13137   0.92792   0.47823   0.00000  Uiso   1.00
H358   H     0.38509   0.26374   0.70897   0.00000  Uiso   1.00
H359   H     0.07924   0.99550   0.92401   0.00000  Uiso   1.00
O360   O     0.02337   0.96970   0.45551   0.00000  Uiso   1.00
O361   O     0.35624   0.41028   0.75823   0.00000  Uiso   1.00
O362   O     0.95497   0.05836   0.04036   0.00000  Uiso   1.00
N363   N     0.00184   0.06542   0.56618   0.00000  Uiso   1.00
N364   N     0.23905   0.37939   0.78188   0.00000  Uiso   1.00
N365   N     0.95312   0.12863   0.98295   0.00000  Uiso   1.00
N366   N     0.09552   0.97533   0.51492   0.00000  Uiso   1.00
N367   N     0.33274   0.28930   0.73062   0.00000  Uiso   1.00
N368   N     0.04680   0.03854   0.93169   0.00000  Uiso   1.00
C369   C     0.18600   0.81172   0.94650   0.00000  Uiso   1.00
C370   C     0.24262   0.77385   0.95646   0.00000  Uiso   1.00
C371   C     0.22709   0.74610   0.00486   0.00000  Uiso   1.00
C372   C     0.28659   0.71343   0.00573   0.00000  Uiso   1.00
C373   C     0.36349   0.65530   0.02814   0.00000  Uiso   1.00
C374   C     0.20056   0.76754   0.86929   0.00000  Uiso   1.00
C375   C     0.14966   0.73450   0.84442   0.00000  Uiso   1.00
C376   C     0.17375   0.69654   0.77191   0.00000  Uiso   1.00
C377   C     0.18533   0.62867   0.65900   0.00000  Uiso   1.00
C378   C     0.20616   0.88783   0.95582   0.00000  Uiso   1.00
C379   C     0.15997   0.95593   0.00368   0.00000  Uiso   1.00
C380   C     0.18879   0.01924   0.00400   0.00000  Uiso   1.00
C381   C     0.20908   0.13814   0.02544   0.00000  Uiso   1.00
C382   C     0.31929   0.80305   0.86196   0.00000  Uiso   1.00
C383   C     0.31502   0.76914   0.91053   0.00000  Uiso   1.00
C384   C     0.37456   0.73651   0.91132   0.00000  Uiso   1.00
C385   C     0.35912   0.70872   0.95972   0.00000  Uiso   1.00
C386   C     0.27295   0.76283   0.82337   0.00000  Uiso   1.00
C387   C     0.29713   0.72491   0.75088   0.00000  Uiso   1.00
C388   C     0.24628   0.69182   0.72590   0.00000  Uiso   1.00
C389   C     0.27856   0.88312   0.90989   0.00000  Uiso   1.00
C390   C     0.30745   0.94634   0.91014   0.00000  Uiso   1.00
C391   C     0.26131   0.01453   0.95799   0.00000  Uiso   1.00
H392   H     0.12963   0.81538   0.98225   0.00000  Uiso   1.00
H393   H     0.17105   0.74975   0.04039   0.00000  Uiso   1.00
H394   H     0.09363   0.73816   0.87997   0.00000  Uiso   1.00
H395   H     0.10395   0.95955   0.03921   0.00000  Uiso   1.00
H396   H     0.24890   0.67487   0.08458   0.00000  Uiso   1.00
H397   H     0.08565   0.65046   0.74632   0.00000  Uiso   1.00
H398   H     0.10741   0.11732   0.08210   0.00000  Uiso   1.00
H399   H     0.37566   0.79939   0.82620   0.00000  Uiso   1.00
H400   H     0.43058   0.73287   0.87578   0.00000  Uiso   1.00
H401   H     0.35315   0.72128   0.71536   0.00000  Uiso   1.00
H402   H     0.36347   0.94268   0.87459   0.00000  Uiso   1.00
H403   H     0.45954   0.66117   0.95097   0.00000  Uiso   1.00
H404   H     0.29628   0.63677   0.61271   0.00000  Uiso   1.00
H405   H     0.31805   0.10362   0.94850   0.00000  Uiso   1.00
O406   O     0.38591   0.62453   0.05318   0.00000  Uiso   1.00
O407   O     0.17172   0.59252   0.60941   0.00000  Uiso   1.00
O408   O     0.20027   0.20502   0.04995   0.00000  Uiso   1.00
N409   N     0.29094   0.68079   0.04634   0.00000  Uiso   1.00
N410   N     0.13831   0.65796   0.73009   0.00000  Uiso   1.00
N411   N     0.15865   0.09443   0.04400   0.00000  Uiso   1.00
N412   N     0.40428   0.67342   0.97444   0.00000  Uiso   1.00
N413   N     0.25165   0.65059   0.65820   0.00000  Uiso   1.00
N414   N     0.27199   0.08706   0.97211   0.00000  Uiso   1.00
C415   C     0.61291   0.79868   0.49446   0.00000  Uiso   1.00
C416   C     0.63827   0.80391   0.42559   0.00000  Uiso   1.00
C417   C     0.60457   0.77998   0.37991   0.00000  Uiso   1.00
C418   C     0.63624   0.78968   0.31964   0.00000  Uiso   1.00
C419   C     0.66603   0.79282   0.21483   0.00000  Uiso   1.00
C420   C     0.67844   0.75531   0.48862   0.00000  Uiso   1.00
C421   C     0.67850   0.69053   0.49594   0.00000  Uiso   1.00
C422   C     0.74398   0.65933   0.48874   0.00000  Uiso   1.00
C423   C     0.83612   0.58706   0.48183   0.00000  Uiso   1.00
C424   C     0.60165   0.87778   0.55147   0.00000  Uiso   1.00
C425   C     0.53716   0.91596   0.61165   0.00000  Uiso   1.00
C426   C     0.53799   0.98786   0.65737   0.00000  Uiso   1.00
C427   C     0.51091   0.10573   0.74805   0.00000  Uiso   1.00
C428   C     0.72908   0.85845   0.46866   0.00000  Uiso   1.00
C429   C     0.70137   0.83637   0.41158   0.00000  Uiso   1.00
C430   C     0.73309   0.84611   0.35137   0.00000  Uiso   1.00
C431   C     0.69945   0.82221   0.30560   0.00000  Uiso   1.00
C432   C     0.74153   0.78778   0.47461   0.00000  Uiso   1.00
C433   C     0.80703   0.75666   0.46740   0.00000  Uiso   1.00
C434   C     0.80720   0.69185   0.47470   0.00000  Uiso   1.00
C435   C     0.66475   0.91025   0.53746   0.00000  Uiso   1.00
C436   C     0.66568   0.98209   0.58310   0.00000  Uiso   1.00
C437   C     0.60121   0.02038   0.64333   0.00000  Uiso   1.00
H438   H     0.56379   0.77340   0.50537   0.00000  Uiso   1.00
H439   H     0.55574   0.75485   0.39077   0.00000  Uiso   1.00
H440   H     0.62967   0.66543   0.50679   0.00000  Uiso   1.00
H441   H     0.48834   0.89082   0.62247   0.00000  Uiso   1.00
H442   H     0.57466   0.74858   0.25753   0.00000  Uiso   1.00
H443   H     0.73052   0.56003   0.50218   0.00000  Uiso   1.00
H444   H     0.43251   0.03532   0.74613   0.00000  Uiso   1.00
H445   H     0.77821   0.88373   0.45775   0.00000  Uiso   1.00
H446   H     0.78192   0.87124   0.34054   0.00000  Uiso   1.00
H447   H     0.85584   0.78181   0.45656   0.00000  Uiso   1.00
H448   H     0.71452   0.00720   0.57224   0.00000  Uiso   1.00
H449   H     0.75824   0.84304   0.21676   0.00000  Uiso   1.00
H450   H     0.91410   0.65449   0.46142   0.00000  Uiso   1.00
H451   H     0.61609   0.12978   0.70536   0.00000  Uiso   1.00
O452   O     0.66504   0.78558   0.16088   0.00000  Uiso   1.00
O453   O     0.86951   0.53822   0.48188   0.00000  Uiso   1.00
O454   O     0.47853   0.16178   0.80193   0.00000  Uiso   1.00
N455   N     0.61735   0.77254   0.26402   0.00000  Uiso   1.00
N456   N     0.76307   0.59625   0.49275   0.00000  Uiso   1.00
N457   N     0.48446   0.04060   0.72083   0.00000  Uiso   1.00
N458   N     0.71613   0.82337   0.24209   0.00000  Uiso   1.00
N459   N     0.86185   0.64708   0.47082   0.00000  Uiso   1.00
N460   N     0.58324   0.09143   0.69889   0.00000  Uiso   1.00
C461   C     0.65317   0.46183   0.78572   0.00000  Uiso   1.00
C462   C     0.70528   0.51321   0.80663   0.00000  Uiso   1.00
C463   C     0.68843   0.59029   0.84405   0.00000  Uiso   1.00
C464   C     0.74368   0.62720   0.85792   0.00000  Uiso   1.00
C465   C     0.81402   0.71290   0.89383   0.00000  Uiso   1.00
C466   C     0.69183   0.41598   0.70594   0.00000  Uiso   1.00
C467   C     0.66366   0.41130   0.65870   0.00000  Uiso   1.00
C468   C     0.70758   0.36635   0.58782   0.00000  Uiso   1.00
C469   C     0.75702   0.30104   0.46741   0.00000  Uiso   1.00
C470   C     0.65017   0.40728   0.81587   0.00000  Uiso   1.00
C471   C     0.58698   0.39527   0.86105   0.00000  Uiso   1.00
C472   C     0.59583   0.34298   0.88271   0.00000  Uiso   1.00
C473   C     0.58059   0.26417   0.93297   0.00000  Uiso   1.00
C474   C     0.78125   0.39030   0.74384   0.00000  Uiso   1.00
C475   C     0.77485   0.47436   0.78388   0.00000  Uiso   1.00
C476   C     0.83014   0.51116   0.79771   0.00000  Uiso   1.00
C477   C     0.81337   0.58829   0.83514   0.00000  Uiso   1.00
C478   C     0.76139   0.37713   0.68320   0.00000  Uiso   1.00
C479   C     0.80537   0.33217   0.61237   0.00000  Uiso   1.00
C480   C     0.77728   0.32743   0.56503   0.00000  Uiso   1.00
C481   C     0.71974   0.36843   0.79313   0.00000  Uiso   1.00
C482   C     0.72869   0.31614   0.81471   0.00000  Uiso   1.00
C483   C     0.66552   0.30406   0.85992   0.00000  Uiso   1.00
H484   H     0.59900   0.49207   0.80342   0.00000  Uiso   1.00
H485   H     0.63458   0.62034   0.86163   0.00000  Uiso   1.00
H486   H     0.60982   0.44137   0.67632   0.00000  Uiso   1.00
H487   H     0.53315   0.42535   0.87864   0.00000  Uiso   1.00
H488   H     0.70472   0.74542   0.91612   0.00000  Uiso   1.00
H489   H     0.65248   0.36802   0.52538   0.00000  Uiso   1.00
H490   H     0.49082   0.33424   0.95200   0.00000  Uiso   1.00
H491   H     0.83541   0.36005   0.72613   0.00000  Uiso   1.00
H492   H     0.88397   0.48108   0.78010   0.00000  Uiso   1.00
H493   H     0.85920   0.30211   0.59479   0.00000  Uiso   1.00
H494   H     0.78253   0.28609   0.79710   0.00000  Uiso   1.00
H495   H     0.90713   0.63239   0.84994   0.00000  Uiso   1.00
H496   H     0.85489   0.25499   0.45920   0.00000  Uiso   1.00
H497   H     0.69323   0.22121   0.88582   0.00000  Uiso   1.00
O498   O     0.83361   0.77090   0.91990   0.00000  Uiso   1.00
O499   O     0.76507   0.27576   0.40728   0.00000  Uiso   1.00
O500   O     0.55297   0.23145   0.96699   0.00000  Uiso   1.00
N501   N     0.74569   0.70221   0.89315   0.00000  Uiso   1.00
N502   N     0.69686   0.34937   0.52783   0.00000  Uiso   1.00
N503   N     0.54571   0.31777   0.92667   0.00000  Uiso   1.00
N504   N     0.85460   0.64139   0.85754   0.00000  Uiso   1.00
N505   N     0.80577   0.28856   0.49222   0.00000  Uiso   1.00
N506   N     0.65463   0.25696   0.89106   0.00000  Uiso   1.00
C507   C     0.57388   0.12584   0.13434   0.00000  Uiso   1.00
C508   C     0.56433   0.06156   0.15340   0.00000  Uiso   1.00
C509   C     0.49986   0.05312   0.20013   0.00000  Uiso   1.00
C510   C     0.50241   0.99046   0.21043   0.00000  Uiso   1.00
C511   C     0.47774   0.89863   0.24540   0.00000  Uiso   1.00
C512   C     0.63691   0.15948   0.15069   0.00000  Uiso   1.00
C513   C     0.63347   0.23338   0.19514   0.00000  Uiso   1.00
C514   C     0.69712   0.25316   0.20314   0.00000  Uiso   1.00
C515   C     0.78516   0.31336   0.23387   0.00000  Uiso   1.00
C516   C     0.60205   0.09050   0.05452   0.00000  Uiso   1.00
C517   C     0.56931   0.10641   0.01811   0.00000  Uiso   1.00
C518   C     0.60363   0.06811   0.94515   0.00000  Uiso   1.00
C519   C     0.63754   0.02121   0.82657   0.00000  Uiso   1.00
C520   C     0.69304   0.02956   0.06952   0.00000  Uiso   1.00
C521   C     0.62905   0.00926   0.11819   0.00000  Uiso   1.00
C522   C     0.63170   0.94660   0.12842   0.00000  Uiso   1.00
C523   C     0.56724   0.93807   0.17515   0.00000  Uiso   1.00
C524   C     0.70163   0.10719   0.11549   0.00000  Uiso   1.00
C525   C     0.76531   0.12686   0.12342   0.00000  Uiso   1.00
C526   C     0.76197   0.20077   0.16787   0.00000  Uiso   1.00
C527   C     0.66678   0.03820   0.01932   0.00000  Uiso   1.00
C528   C     0.70115   0.99988   0.94640   0.00000  Uiso   1.00
C529   C     0.66847   0.01572   0.90988   0.00000  Uiso   1.00
H530   H     0.52349   0.16655   0.16175   0.00000  Uiso   1.00
H531   H     0.44978   0.09361   0.22737   0.00000  Uiso   1.00
H532   H     0.58338   0.27384   0.22237   0.00000  Uiso   1.00
H533   H     0.51923   0.14688   0.04537   0.00000  Uiso   1.00
H534   H     0.39662   0.98969   0.28461   0.00000  Uiso   1.00
H535   H     0.67831   0.36972   0.27405   0.00000  Uiso   1.00
H536   H     0.54304   0.10200   0.90081   0.00000  Uiso   1.00
H537   H     0.74343   0.98884   0.04211   0.00000  Uiso   1.00
H538   H     0.68180   0.90614   0.10117   0.00000  Uiso   1.00
H539   H     0.81539   0.08637   0.09617   0.00000  Uiso   1.00
H540   H     0.75124   0.95941   0.91917   0.00000  Uiso   1.00
H541   H     0.58493   0.83753   0.18218   0.00000  Uiso   1.00
H542   H     0.86663   0.21757   0.17162   0.00000  Uiso   1.00
H543   H     0.73135   0.94985   0.79839   0.00000  Uiso   1.00
O544   O     0.44626   0.86243   0.27442   0.00000  Uiso   1.00
O545   O     0.81584   0.36102   0.26055   0.00000  Uiso   1.00
O546   O     0.63836   0.00977   0.77088   0.00000  Uiso   1.00
N547   N     0.44939   0.96522   0.25239   0.00000  Uiso   1.00
N548   N     0.71276   0.32053   0.24253   0.00000  Uiso   1.00
N549   N     0.58630   0.07025   0.89358   0.00000  Uiso   1.00
N550   N     0.55072   0.88335   0.19727   0.00000  Uiso   1.00
N551   N     0.81408   0.23865   0.18741   0.00000  Uiso   1.00
N552   N     0.68763   0.98837   0.83847   0.00000  Uiso   1.00
