data_job_05667
_audit_creation_date              2018-12-19
_audit_creation_method            'Materials Studio'
_symmetry_space_group_name_H-M    'P1'
_symmetry_Int_Tables_number       1
_symmetry_cell_setting            triclinic
loop_
_symmetry_equiv_pos_as_xyz
  x,y,z
_cell_length_a                    26.3084
_cell_length_b                    12.4780
_cell_length_c                    23.9486
_cell_angle_alpha                 90.0000
_cell_angle_beta                  115.7783
_cell_angle_gamma                 90.0000
loop_
_atom_site_label
_atom_site_type_symbol
_atom_site_fract_x
_atom_site_fract_y
_atom_site_fract_z
_atom_site_U_iso_or_equiv
_atom_site_adp_type
_atom_site_occupancy
C1     C     0.38499   0.81004   0.90835   0.00000  Uiso   1.00
C2     C     0.35613   0.91604   0.88081   0.00000  Uiso   1.00
C3     C     0.36672   0.97906   0.83929   0.00000  Uiso   1.00
C4     C     0.33589   0.07321   0.81956   0.00000  Uiso   1.00
C5     C     0.29718   0.23328   0.77362   0.00000  Uiso   1.00
C6     C     0.41064   0.82397   0.97855   0.00000  Uiso   1.00
C7     C     0.46705   0.80957   0.01920   0.00000  Uiso   1.00
C8     C     0.48211   0.82620   0.08175   0.00000  Uiso   1.00
C9     C     0.52801   0.84326   0.18755   0.00000  Uiso   1.00
C10    C     0.33779   0.72788   0.89228   0.00000  Uiso   1.00
C11    C     0.33297   0.63266   0.86041   0.00000  Uiso   1.00
C12    C     0.28670   0.56838   0.85033   0.00000  Uiso   1.00
C13    C     0.21950   0.43623   0.82219   0.00000  Uiso   1.00
C14    C     0.31142   0.86516   0.94715   0.00000  Uiso   1.00
C15    C     0.31617   0.94598   0.90189   0.00000  Uiso   1.00
C16    C     0.28532   0.04005   0.88222   0.00000  Uiso   1.00
C17    C     0.29586   0.10321   0.84067   0.00000  Uiso   1.00
C18    C     0.37068   0.85392   0.99963   0.00000  Uiso   1.00
C19    C     0.38565   0.87056   0.06213   0.00000  Uiso   1.00
C20    C     0.44208   0.85620   0.10286   0.00000  Uiso   1.00
C21    C     0.29783   0.75782   0.91335   0.00000  Uiso   1.00
C22    C     0.25157   0.69366   0.90334   0.00000  Uiso   1.00
C23    C     0.24667   0.59837   0.87145   0.00000  Uiso   1.00
H24    H     0.41610   0.78673   0.89194   0.00000  Uiso   1.00
H25    H     0.39765   0.95587   0.82299   0.00000  Uiso   1.00
H26    H     0.49797   0.78639   0.00287   0.00000  Uiso   1.00
H27    H     0.36390   0.60952   0.84410   0.00000  Uiso   1.00
H28    H     0.35958   0.15662   0.75586   0.00000  Uiso   1.00
H29    H     0.57110   0.79923   0.13516   0.00000  Uiso   1.00
H30    H     0.28840   0.42626   0.80035   0.00000  Uiso   1.00
H31    H     0.28031   0.88847   0.96356   0.00000  Uiso   1.00
H32    H     0.25440   0.06320   0.89854   0.00000  Uiso   1.00
H33    H     0.35472   0.89373   0.07843   0.00000  Uiso   1.00
H34    H     0.22065   0.71686   0.91965   0.00000  Uiso   1.00
H35    H     0.24332   0.24374   0.81718   0.00000  Uiso   1.00
H36    H     0.45484   0.88635   0.19648   0.00000  Uiso   1.00
H37    H     0.17213   0.51338   0.86167   0.00000  Uiso   1.00
O38    O     0.28687   0.31330   0.74247   0.00000  Uiso   1.00
O39    O     0.56437   0.84440   0.24009   0.00000  Uiso   1.00
O40    O     0.19347   0.35508   0.80084   0.00000  Uiso   1.00
N41    N     0.33577   0.15313   0.77920   0.00000  Uiso   1.00
N42    N     0.53353   0.81901   0.13382   0.00000  Uiso   1.00
N43    N     0.26923   0.47030   0.82083   0.00000  Uiso   1.00
N44    N     0.27320   0.20001   0.81220   0.00000  Uiso   1.00
N45    N     0.47096   0.86589   0.16682   0.00000  Uiso   1.00
N46    N     0.20667   0.51718   0.85382   0.00000  Uiso   1.00
C47    C     0.88499   0.31004   0.90835   0.00000  Uiso   1.00
C48    C     0.85613   0.41604   0.88081   0.00000  Uiso   1.00
C49    C     0.86672   0.47906   0.83929   0.00000  Uiso   1.00
C50    C     0.83589   0.57321   0.81956   0.00000  Uiso   1.00
C51    C     0.79718   0.73328   0.77362   0.00000  Uiso   1.00
C52    C     0.91064   0.32397   0.97855   0.00000  Uiso   1.00
C53    C     0.96705   0.30957   0.01920   0.00000  Uiso   1.00
C54    C     0.98211   0.32620   0.08175   0.00000  Uiso   1.00
C55    C     0.02801   0.34326   0.18755   0.00000  Uiso   1.00
C56    C     0.83779   0.22788   0.89228   0.00000  Uiso   1.00
C57    C     0.83297   0.13266   0.86041   0.00000  Uiso   1.00
C58    C     0.78670   0.06838   0.85033   0.00000  Uiso   1.00
C59    C     0.71950   0.93623   0.82219   0.00000  Uiso   1.00
C60    C     0.81142   0.36516   0.94715   0.00000  Uiso   1.00
C61    C     0.81617   0.44598   0.90189   0.00000  Uiso   1.00
C62    C     0.78532   0.54005   0.88222   0.00000  Uiso   1.00
C63    C     0.79586   0.60321   0.84067   0.00000  Uiso   1.00
C64    C     0.87068   0.35392   0.99963   0.00000  Uiso   1.00
C65    C     0.88565   0.37056   0.06213   0.00000  Uiso   1.00
C66    C     0.94208   0.35620   0.10286   0.00000  Uiso   1.00
C67    C     0.79783   0.25782   0.91335   0.00000  Uiso   1.00
C68    C     0.75157   0.19366   0.90334   0.00000  Uiso   1.00
C69    C     0.74667   0.09837   0.87145   0.00000  Uiso   1.00
H70    H     0.91610   0.28673   0.89194   0.00000  Uiso   1.00
H71    H     0.89765   0.45587   0.82299   0.00000  Uiso   1.00
H72    H     0.99797   0.28639   0.00287   0.00000  Uiso   1.00
H73    H     0.86390   0.10952   0.84410   0.00000  Uiso   1.00
H74    H     0.85958   0.65662   0.75586   0.00000  Uiso   1.00
H75    H     0.07110   0.29923   0.13516   0.00000  Uiso   1.00
H76    H     0.78840   0.92626   0.80035   0.00000  Uiso   1.00
H77    H     0.78031   0.38847   0.96356   0.00000  Uiso   1.00
H78    H     0.75440   0.56320   0.89854   0.00000  Uiso   1.00
H79    H     0.85472   0.39373   0.07843   0.00000  Uiso   1.00
H80    H     0.72065   0.21686   0.91965   0.00000  Uiso   1.00
H81    H     0.74332   0.74374   0.81718   0.00000  Uiso   1.00
H82    H     0.95484   0.38635   0.19648   0.00000  Uiso   1.00
H83    H     0.67213   0.01338   0.86167   0.00000  Uiso   1.00
O84    O     0.78687   0.81330   0.74247   0.00000  Uiso   1.00
O85    O     0.06437   0.34440   0.24009   0.00000  Uiso   1.00
O86    O     0.69347   0.85508   0.80084   0.00000  Uiso   1.00
N87    N     0.83577   0.65313   0.77920   0.00000  Uiso   1.00
N88    N     0.03353   0.31901   0.13382   0.00000  Uiso   1.00
N89    N     0.76923   0.97030   0.82083   0.00000  Uiso   1.00
N90    N     0.77320   0.70001   0.81220   0.00000  Uiso   1.00
N91    N     0.97096   0.36589   0.16682   0.00000  Uiso   1.00
N92    N     0.70667   0.01718   0.85382   0.00000  Uiso   1.00
C93    C     0.61501   0.81004   0.59165   0.00000  Uiso   1.00
C94    C     0.64387   0.91604   0.61919   0.00000  Uiso   1.00
C95    C     0.63328   0.97906   0.66071   0.00000  Uiso   1.00
C96    C     0.66411   0.07321   0.68044   0.00000  Uiso   1.00
C97    C     0.70282   0.23328   0.72638   0.00000  Uiso   1.00
C98    C     0.58936   0.82397   0.52145   0.00000  Uiso   1.00
C99    C     0.53295   0.80957   0.48080   0.00000  Uiso   1.00
C100   C     0.51789   0.82620   0.41825   0.00000  Uiso   1.00
C101   C     0.47199   0.84326   0.31245   0.00000  Uiso   1.00
C102   C     0.66221   0.72788   0.60772   0.00000  Uiso   1.00
C103   C     0.66703   0.63266   0.63959   0.00000  Uiso   1.00
C104   C     0.71330   0.56838   0.64967   0.00000  Uiso   1.00
C105   C     0.78050   0.43623   0.67781   0.00000  Uiso   1.00
C106   C     0.68858   0.86516   0.55285   0.00000  Uiso   1.00
C107   C     0.68383   0.94598   0.59811   0.00000  Uiso   1.00
C108   C     0.71468   0.04005   0.61778   0.00000  Uiso   1.00
C109   C     0.70414   0.10321   0.65933   0.00000  Uiso   1.00
C110   C     0.62932   0.85392   0.50037   0.00000  Uiso   1.00
C111   C     0.61435   0.87056   0.43787   0.00000  Uiso   1.00
C112   C     0.55792   0.85620   0.39714   0.00000  Uiso   1.00
C113   C     0.70217   0.75782   0.58665   0.00000  Uiso   1.00
C114   C     0.74843   0.69366   0.59666   0.00000  Uiso   1.00
C115   C     0.75333   0.59837   0.62855   0.00000  Uiso   1.00
H116   H     0.58390   0.78673   0.60806   0.00000  Uiso   1.00
H117   H     0.60235   0.95587   0.67701   0.00000  Uiso   1.00
H118   H     0.50203   0.78639   0.49713   0.00000  Uiso   1.00
H119   H     0.63610   0.60952   0.65590   0.00000  Uiso   1.00
H120   H     0.64042   0.15662   0.74414   0.00000  Uiso   1.00
H121   H     0.42890   0.79923   0.36484   0.00000  Uiso   1.00
H122   H     0.71160   0.42626   0.69965   0.00000  Uiso   1.00
H123   H     0.71969   0.88847   0.53644   0.00000  Uiso   1.00
H124   H     0.74560   0.06320   0.60146   0.00000  Uiso   1.00
H125   H     0.64528   0.89373   0.42157   0.00000  Uiso   1.00
H126   H     0.77935   0.71686   0.58035   0.00000  Uiso   1.00
H127   H     0.75668   0.24374   0.68282   0.00000  Uiso   1.00
H128   H     0.54516   0.88635   0.30352   0.00000  Uiso   1.00
H129   H     0.82787   0.51338   0.63833   0.00000  Uiso   1.00
O130   O     0.71313   0.31330   0.75753   0.00000  Uiso   1.00
O131   O     0.43563   0.84440   0.25991   0.00000  Uiso   1.00
O132   O     0.80653   0.35508   0.69916   0.00000  Uiso   1.00
N133   N     0.66423   0.15313   0.72080   0.00000  Uiso   1.00
N134   N     0.46647   0.81901   0.36618   0.00000  Uiso   1.00
N135   N     0.73077   0.47030   0.67917   0.00000  Uiso   1.00
N136   N     0.72680   0.20001   0.68780   0.00000  Uiso   1.00
N137   N     0.52904   0.86589   0.33318   0.00000  Uiso   1.00
N138   N     0.79333   0.51718   0.64618   0.00000  Uiso   1.00
C139   C     0.11501   0.31004   0.59165   0.00000  Uiso   1.00
C140   C     0.14387   0.41604   0.61919   0.00000  Uiso   1.00
C141   C     0.13328   0.47906   0.66071   0.00000  Uiso   1.00
C142   C     0.16411   0.57321   0.68044   0.00000  Uiso   1.00
C143   C     0.20282   0.73328   0.72638   0.00000  Uiso   1.00
C144   C     0.08936   0.32397   0.52145   0.00000  Uiso   1.00
C145   C     0.03295   0.30957   0.48080   0.00000  Uiso   1.00
C146   C     0.01789   0.32620   0.41825   0.00000  Uiso   1.00
C147   C     0.97199   0.34326   0.31245   0.00000  Uiso   1.00
C148   C     0.16221   0.22788   0.60772   0.00000  Uiso   1.00
C149   C     0.16703   0.13266   0.63959   0.00000  Uiso   1.00
C150   C     0.21330   0.06838   0.64967   0.00000  Uiso   1.00
C151   C     0.28050   0.93623   0.67781   0.00000  Uiso   1.00
C152   C     0.18858   0.36516   0.55285   0.00000  Uiso   1.00
C153   C     0.18383   0.44598   0.59811   0.00000  Uiso   1.00
C154   C     0.21468   0.54005   0.61778   0.00000  Uiso   1.00
C155   C     0.20414   0.60321   0.65933   0.00000  Uiso   1.00
C156   C     0.12932   0.35392   0.50037   0.00000  Uiso   1.00
C157   C     0.11435   0.37056   0.43787   0.00000  Uiso   1.00
C158   C     0.05792   0.35620   0.39714   0.00000  Uiso   1.00
C159   C     0.20217   0.25782   0.58665   0.00000  Uiso   1.00
C160   C     0.24843   0.19366   0.59666   0.00000  Uiso   1.00
C161   C     0.25333   0.09837   0.62855   0.00000  Uiso   1.00
H162   H     0.08390   0.28673   0.60806   0.00000  Uiso   1.00
H163   H     0.10235   0.45587   0.67701   0.00000  Uiso   1.00
H164   H     0.00203   0.28639   0.49713   0.00000  Uiso   1.00
H165   H     0.13610   0.10952   0.65590   0.00000  Uiso   1.00
H166   H     0.14042   0.65662   0.74414   0.00000  Uiso   1.00
H167   H     0.92890   0.29923   0.36484   0.00000  Uiso   1.00
H168   H     0.21160   0.92626   0.69965   0.00000  Uiso   1.00
H169   H     0.21969   0.38847   0.53644   0.00000  Uiso   1.00
H170   H     0.24560   0.56320   0.60146   0.00000  Uiso   1.00
H171   H     0.14528   0.39373   0.42157   0.00000  Uiso   1.00
H172   H     0.27935   0.21686   0.58035   0.00000  Uiso   1.00
H173   H     0.25668   0.74374   0.68282   0.00000  Uiso   1.00
H174   H     0.04516   0.38635   0.30352   0.00000  Uiso   1.00
H175   H     0.32787   0.01338   0.63833   0.00000  Uiso   1.00
O176   O     0.21313   0.81330   0.75753   0.00000  Uiso   1.00
O177   O     0.93563   0.34440   0.25991   0.00000  Uiso   1.00
O178   O     0.30653   0.85508   0.69916   0.00000  Uiso   1.00
N179   N     0.16423   0.65313   0.72080   0.00000  Uiso   1.00
N180   N     0.96647   0.31901   0.36618   0.00000  Uiso   1.00
N181   N     0.23077   0.97030   0.67917   0.00000  Uiso   1.00
N182   N     0.22680   0.70001   0.68780   0.00000  Uiso   1.00
N183   N     0.02904   0.36589   0.33318   0.00000  Uiso   1.00
N184   N     0.29333   0.01718   0.64618   0.00000  Uiso   1.00
C185   C     0.61501   0.18996   0.09165   0.00000  Uiso   1.00
C186   C     0.64387   0.08396   0.11919   0.00000  Uiso   1.00
C187   C     0.63328   0.02094   0.16071   0.00000  Uiso   1.00
C188   C     0.66411   0.92679   0.18044   0.00000  Uiso   1.00
C189   C     0.70282   0.76672   0.22638   0.00000  Uiso   1.00
C190   C     0.58936   0.17603   0.02145   0.00000  Uiso   1.00
C191   C     0.53295   0.19043   0.98080   0.00000  Uiso   1.00
C192   C     0.51789   0.17380   0.91825   0.00000  Uiso   1.00
C193   C     0.47199   0.15674   0.81245   0.00000  Uiso   1.00
C194   C     0.66221   0.27212   0.10772   0.00000  Uiso   1.00
C195   C     0.66703   0.36734   0.13959   0.00000  Uiso   1.00
C196   C     0.71330   0.43162   0.14967   0.00000  Uiso   1.00
C197   C     0.78050   0.56377   0.17781   0.00000  Uiso   1.00
C198   C     0.68858   0.13484   0.05285   0.00000  Uiso   1.00
C199   C     0.68383   0.05402   0.09811   0.00000  Uiso   1.00
C200   C     0.71468   0.95995   0.11778   0.00000  Uiso   1.00
C201   C     0.70414   0.89679   0.15933   0.00000  Uiso   1.00
C202   C     0.62932   0.14608   0.00037   0.00000  Uiso   1.00
C203   C     0.61435   0.12944   0.93787   0.00000  Uiso   1.00
C204   C     0.55792   0.14380   0.89714   0.00000  Uiso   1.00
C205   C     0.70217   0.24218   0.08665   0.00000  Uiso   1.00
C206   C     0.74843   0.30634   0.09666   0.00000  Uiso   1.00
C207   C     0.75333   0.40163   0.12855   0.00000  Uiso   1.00
H208   H     0.58390   0.21327   0.10806   0.00000  Uiso   1.00
H209   H     0.60235   0.04413   0.17701   0.00000  Uiso   1.00
H210   H     0.50203   0.21361   0.99713   0.00000  Uiso   1.00
H211   H     0.63610   0.39048   0.15590   0.00000  Uiso   1.00
H212   H     0.64042   0.84338   0.24414   0.00000  Uiso   1.00
H213   H     0.42890   0.20077   0.86484   0.00000  Uiso   1.00
H214   H     0.71160   0.57374   0.19965   0.00000  Uiso   1.00
H215   H     0.71969   0.11153   0.03644   0.00000  Uiso   1.00
H216   H     0.74560   0.93680   0.10146   0.00000  Uiso   1.00
H217   H     0.64528   0.10627   0.92157   0.00000  Uiso   1.00
H218   H     0.77935   0.28314   0.08035   0.00000  Uiso   1.00
H219   H     0.75668   0.75626   0.18282   0.00000  Uiso   1.00
H220   H     0.54516   0.11365   0.80352   0.00000  Uiso   1.00
H221   H     0.82787   0.48662   0.13833   0.00000  Uiso   1.00
O222   O     0.71313   0.68670   0.25753   0.00000  Uiso   1.00
O223   O     0.43563   0.15560   0.75991   0.00000  Uiso   1.00
O224   O     0.80653   0.64492   0.19916   0.00000  Uiso   1.00
N225   N     0.66423   0.84687   0.22080   0.00000  Uiso   1.00
N226   N     0.46647   0.18099   0.86618   0.00000  Uiso   1.00
N227   N     0.73077   0.52970   0.17917   0.00000  Uiso   1.00
N228   N     0.72680   0.79999   0.18780   0.00000  Uiso   1.00
N229   N     0.52904   0.13411   0.83318   0.00000  Uiso   1.00
N230   N     0.79333   0.48282   0.14618   0.00000  Uiso   1.00
C231   C     0.11501   0.68996   0.09165   0.00000  Uiso   1.00
C232   C     0.14387   0.58396   0.11919   0.00000  Uiso   1.00
C233   C     0.13328   0.52094   0.16071   0.00000  Uiso   1.00
C234   C     0.16411   0.42679   0.18044   0.00000  Uiso   1.00
C235   C     0.20282   0.26672   0.22638   0.00000  Uiso   1.00
C236   C     0.08936   0.67603   0.02145   0.00000  Uiso   1.00
C237   C     0.03295   0.69043   0.98080   0.00000  Uiso   1.00
C238   C     0.01789   0.67380   0.91825   0.00000  Uiso   1.00
C239   C     0.97199   0.65674   0.81245   0.00000  Uiso   1.00
C240   C     0.16221   0.77212   0.10772   0.00000  Uiso   1.00
C241   C     0.16703   0.86734   0.13959   0.00000  Uiso   1.00
C242   C     0.21330   0.93162   0.14967   0.00000  Uiso   1.00
C243   C     0.28050   0.06377   0.17781   0.00000  Uiso   1.00
C244   C     0.18858   0.63484   0.05285   0.00000  Uiso   1.00
C245   C     0.18383   0.55402   0.09811   0.00000  Uiso   1.00
C246   C     0.21468   0.45995   0.11778   0.00000  Uiso   1.00
C247   C     0.20414   0.39679   0.15933   0.00000  Uiso   1.00
C248   C     0.12932   0.64608   0.00037   0.00000  Uiso   1.00
C249   C     0.11435   0.62944   0.93787   0.00000  Uiso   1.00
C250   C     0.05792   0.64380   0.89714   0.00000  Uiso   1.00
C251   C     0.20217   0.74218   0.08665   0.00000  Uiso   1.00
C252   C     0.24843   0.80634   0.09666   0.00000  Uiso   1.00
C253   C     0.25333   0.90163   0.12855   0.00000  Uiso   1.00
H254   H     0.08390   0.71327   0.10806   0.00000  Uiso   1.00
H255   H     0.10235   0.54413   0.17701   0.00000  Uiso   1.00
H256   H     0.00203   0.71361   0.99713   0.00000  Uiso   1.00
H257   H     0.13610   0.89048   0.15590   0.00000  Uiso   1.00
H258   H     0.14042   0.34338   0.24414   0.00000  Uiso   1.00
H259   H     0.92890   0.70077   0.86484   0.00000  Uiso   1.00
H260   H     0.21160   0.07374   0.19965   0.00000  Uiso   1.00
H261   H     0.21969   0.61153   0.03644   0.00000  Uiso   1.00
H262   H     0.24560   0.43680   0.10146   0.00000  Uiso   1.00
H263   H     0.14528   0.60627   0.92157   0.00000  Uiso   1.00
H264   H     0.27935   0.78314   0.08035   0.00000  Uiso   1.00
H265   H     0.25668   0.25626   0.18282   0.00000  Uiso   1.00
H266   H     0.04516   0.61365   0.80352   0.00000  Uiso   1.00
H267   H     0.32787   0.98662   0.13833   0.00000  Uiso   1.00
O268   O     0.21313   0.18670   0.25753   0.00000  Uiso   1.00
O269   O     0.93563   0.65560   0.75991   0.00000  Uiso   1.00
O270   O     0.30653   0.14492   0.19916   0.00000  Uiso   1.00
N271   N     0.16423   0.34687   0.22080   0.00000  Uiso   1.00
N272   N     0.96647   0.68099   0.86618   0.00000  Uiso   1.00
N273   N     0.23077   0.02970   0.17917   0.00000  Uiso   1.00
N274   N     0.22680   0.29999   0.18780   0.00000  Uiso   1.00
N275   N     0.02904   0.63411   0.83318   0.00000  Uiso   1.00
N276   N     0.29333   0.98282   0.14618   0.00000  Uiso   1.00
C277   C     0.38499   0.18996   0.40835   0.00000  Uiso   1.00
C278   C     0.35613   0.08396   0.38081   0.00000  Uiso   1.00
C279   C     0.36672   0.02094   0.33929   0.00000  Uiso   1.00
C280   C     0.33589   0.92679   0.31956   0.00000  Uiso   1.00
C281   C     0.29718   0.76672   0.27362   0.00000  Uiso   1.00
C282   C     0.41064   0.17603   0.47855   0.00000  Uiso   1.00
C283   C     0.46705   0.19043   0.51920   0.00000  Uiso   1.00
C284   C     0.48211   0.17380   0.58175   0.00000  Uiso   1.00
C285   C     0.52801   0.15674   0.68755   0.00000  Uiso   1.00
C286   C     0.33779   0.27212   0.39228   0.00000  Uiso   1.00
C287   C     0.33297   0.36734   0.36041   0.00000  Uiso   1.00
C288   C     0.28670   0.43162   0.35033   0.00000  Uiso   1.00
C289   C     0.21950   0.56377   0.32219   0.00000  Uiso   1.00
C290   C     0.31142   0.13484   0.44715   0.00000  Uiso   1.00
C291   C     0.31617   0.05402   0.40189   0.00000  Uiso   1.00
C292   C     0.28532   0.95995   0.38222   0.00000  Uiso   1.00
C293   C     0.29586   0.89679   0.34067   0.00000  Uiso   1.00
C294   C     0.37068   0.14608   0.49963   0.00000  Uiso   1.00
C295   C     0.38565   0.12944   0.56213   0.00000  Uiso   1.00
C296   C     0.44208   0.14380   0.60286   0.00000  Uiso   1.00
C297   C     0.29783   0.24218   0.41335   0.00000  Uiso   1.00
C298   C     0.25157   0.30634   0.40334   0.00000  Uiso   1.00
C299   C     0.24667   0.40163   0.37145   0.00000  Uiso   1.00
H300   H     0.41610   0.21327   0.39194   0.00000  Uiso   1.00
H301   H     0.39765   0.04413   0.32299   0.00000  Uiso   1.00
H302   H     0.49797   0.21361   0.50287   0.00000  Uiso   1.00
H303   H     0.36390   0.39048   0.34410   0.00000  Uiso   1.00
H304   H     0.35958   0.84338   0.25586   0.00000  Uiso   1.00
H305   H     0.57110   0.20077   0.63516   0.00000  Uiso   1.00
H306   H     0.28840   0.57374   0.30035   0.00000  Uiso   1.00
H307   H     0.28031   0.11153   0.46356   0.00000  Uiso   1.00
H308   H     0.25440   0.93680   0.39854   0.00000  Uiso   1.00
H309   H     0.35472   0.10627   0.57843   0.00000  Uiso   1.00
H310   H     0.22065   0.28314   0.41965   0.00000  Uiso   1.00
H311   H     0.24332   0.75626   0.31718   0.00000  Uiso   1.00
H312   H     0.45484   0.11365   0.69648   0.00000  Uiso   1.00
H313   H     0.17213   0.48662   0.36167   0.00000  Uiso   1.00
O314   O     0.28687   0.68670   0.24247   0.00000  Uiso   1.00
O315   O     0.56437   0.15560   0.74009   0.00000  Uiso   1.00
O316   O     0.19347   0.64492   0.30084   0.00000  Uiso   1.00
N317   N     0.33577   0.84687   0.27920   0.00000  Uiso   1.00
N318   N     0.53353   0.18099   0.63382   0.00000  Uiso   1.00
N319   N     0.26923   0.52970   0.32083   0.00000  Uiso   1.00
N320   N     0.27320   0.79999   0.31220   0.00000  Uiso   1.00
N321   N     0.47096   0.13411   0.66682   0.00000  Uiso   1.00
N322   N     0.20667   0.48282   0.35382   0.00000  Uiso   1.00
C323   C     0.88499   0.68996   0.40835   0.00000  Uiso   1.00
C324   C     0.85613   0.58396   0.38081   0.00000  Uiso   1.00
C325   C     0.86672   0.52094   0.33929   0.00000  Uiso   1.00
C326   C     0.83589   0.42679   0.31956   0.00000  Uiso   1.00
C327   C     0.79718   0.26672   0.27362   0.00000  Uiso   1.00
C328   C     0.91064   0.67603   0.47855   0.00000  Uiso   1.00
C329   C     0.96705   0.69043   0.51920   0.00000  Uiso   1.00
C330   C     0.98211   0.67380   0.58175   0.00000  Uiso   1.00
C331   C     0.02801   0.65674   0.68755   0.00000  Uiso   1.00
C332   C     0.83779   0.77212   0.39228   0.00000  Uiso   1.00
C333   C     0.83297   0.86734   0.36041   0.00000  Uiso   1.00
C334   C     0.78670   0.93162   0.35033   0.00000  Uiso   1.00
C335   C     0.71950   0.06377   0.32219   0.00000  Uiso   1.00
C336   C     0.81142   0.63484   0.44715   0.00000  Uiso   1.00
C337   C     0.81617   0.55402   0.40189   0.00000  Uiso   1.00
C338   C     0.78532   0.45995   0.38222   0.00000  Uiso   1.00
C339   C     0.79586   0.39679   0.34067   0.00000  Uiso   1.00
C340   C     0.87068   0.64608   0.49963   0.00000  Uiso   1.00
C341   C     0.88565   0.62944   0.56213   0.00000  Uiso   1.00
C342   C     0.94208   0.64380   0.60286   0.00000  Uiso   1.00
C343   C     0.79783   0.74218   0.41335   0.00000  Uiso   1.00
C344   C     0.75157   0.80634   0.40334   0.00000  Uiso   1.00
C345   C     0.74667   0.90163   0.37145   0.00000  Uiso   1.00
H346   H     0.91610   0.71327   0.39194   0.00000  Uiso   1.00
H347   H     0.89765   0.54413   0.32299   0.00000  Uiso   1.00
H348   H     0.99797   0.71361   0.50287   0.00000  Uiso   1.00
H349   H     0.86390   0.89048   0.34410   0.00000  Uiso   1.00
H350   H     0.85958   0.34338   0.25586   0.00000  Uiso   1.00
H351   H     0.07110   0.70077   0.63516   0.00000  Uiso   1.00
H352   H     0.78840   0.07374   0.30035   0.00000  Uiso   1.00
H353   H     0.78031   0.61153   0.46356   0.00000  Uiso   1.00
H354   H     0.75440   0.43680   0.39854   0.00000  Uiso   1.00
H355   H     0.85472   0.60627   0.57843   0.00000  Uiso   1.00
H356   H     0.72065   0.78314   0.41965   0.00000  Uiso   1.00
H357   H     0.74332   0.25626   0.31718   0.00000  Uiso   1.00
H358   H     0.95484   0.61365   0.69648   0.00000  Uiso   1.00
H359   H     0.67213   0.98662   0.36167   0.00000  Uiso   1.00
O360   O     0.78687   0.18670   0.24247   0.00000  Uiso   1.00
O361   O     0.06437   0.65560   0.74009   0.00000  Uiso   1.00
O362   O     0.69347   0.14492   0.30084   0.00000  Uiso   1.00
N363   N     0.83577   0.34687   0.27920   0.00000  Uiso   1.00
N364   N     0.03353   0.68099   0.63382   0.00000  Uiso   1.00
N365   N     0.76923   0.02970   0.32083   0.00000  Uiso   1.00
N366   N     0.77320   0.29999   0.31220   0.00000  Uiso   1.00
N367   N     0.97096   0.63411   0.66682   0.00000  Uiso   1.00
N368   N     0.70667   0.98282   0.35382   0.00000  Uiso   1.00
