data_job_07008
_audit_creation_date              2018-12-19
_audit_creation_method            'Materials Studio'
_symmetry_space_group_name_H-M    'P1'
_symmetry_Int_Tables_number       1
_symmetry_cell_setting            triclinic
loop_
_symmetry_equiv_pos_as_xyz
  x,y,z
_cell_length_a                    20.2721
_cell_length_b                    21.8008
_cell_length_c                    24.2072
_cell_angle_alpha                 110.3922
_cell_angle_beta                  65.6096
_cell_angle_gamma                 88.5115
loop_
_atom_site_label
_atom_site_type_symbol
_atom_site_fract_x
_atom_site_fract_y
_atom_site_fract_z
_atom_site_U_iso_or_equiv
_atom_site_adp_type
_atom_site_occupancy
C1     C     0.46133   0.94124   0.31766   0.00000  Uiso   1.00
C2     C     0.44414   0.90688   0.36577   0.00000  Uiso   1.00
C3     C     0.49240   0.88880   0.38725   0.00000  Uiso   1.00
C4     C     0.46617   0.85783   0.43130   0.00000  Uiso   1.00
C5     C     0.45043   0.80633   0.50267   0.00000  Uiso   1.00
C6     C     0.44676   0.89631   0.26128   0.00000  Uiso   1.00
C7     C     0.49722   0.86935   0.19492   0.00000  Uiso   1.00
C8     C     0.47319   0.82950   0.15101   0.00000  Uiso   1.00
C9     C     0.46150   0.76163   0.06017   0.00000  Uiso   1.00
C10    C     0.40238   0.00488   0.35334   0.00000  Uiso   1.00
C11    C     0.41551   0.06920   0.36437   0.00000  Uiso   1.00
C12    C     0.35411   0.12075   0.39795   0.00000  Uiso   1.00
C13    C     0.27351   0.22145   0.45004   0.00000  Uiso   1.00
C14    C     0.32894   0.91840   0.35768   0.00000  Uiso   1.00
C15    C     0.37223   0.89447   0.38751   0.00000  Uiso   1.00
C16    C     0.34593   0.86353   0.43154   0.00000  Uiso   1.00
C17    C     0.39414   0.84540   0.45309   0.00000  Uiso   1.00
C18    C     0.37486   0.88390   0.28302   0.00000  Uiso   1.00
C19    C     0.35075   0.84408   0.23920   0.00000  Uiso   1.00
C20    C     0.40115   0.81706   0.17279   0.00000  Uiso   1.00
C21    C     0.33047   0.99247   0.37508   0.00000  Uiso   1.00
C22    C     0.26904   0.04393   0.40865   0.00000  Uiso   1.00
C23    C     0.28208   0.10832   0.41973   0.00000  Uiso   1.00
H24    H     0.51732   0.95090   0.30073   0.00000  Uiso   1.00
H25    H     0.54805   0.89840   0.37041   0.00000  Uiso   1.00
H26    H     0.55286   0.87897   0.17811   0.00000  Uiso   1.00
H27    H     0.47116   0.07879   0.34753   0.00000  Uiso   1.00
H28    H     0.55041   0.83471   0.45724   0.00000  Uiso   1.00
H29    H     0.56056   0.79375   0.05176   0.00000  Uiso   1.00
H30    H     0.38829   0.21510   0.40902   0.00000  Uiso   1.00
H31    H     0.27296   0.90874   0.37461   0.00000  Uiso   1.00
H32    H     0.29028   0.85393   0.44835   0.00000  Uiso   1.00
H33    H     0.29509   0.83449   0.25605   0.00000  Uiso   1.00
H34    H     0.21340   0.03431   0.42547   0.00000  Uiso   1.00
H35    H     0.34120   0.79861   0.52050   0.00000  Uiso   1.00
H36    H     0.35134   0.75765   0.11501   0.00000  Uiso   1.00
H37    H     0.17907   0.17900   0.47228   0.00000  Uiso   1.00
O38    O     0.46161   0.78134   0.53603   0.00000  Uiso   1.00
O39    O     0.47492   0.72761   0.00405   0.00000  Uiso   1.00
O40    O     0.24891   0.28042   0.47277   0.00000  Uiso   1.00
N41    N     0.49879   0.83375   0.46202   0.00000  Uiso   1.00
N42    N     0.50828   0.79544   0.08292   0.00000  Uiso   1.00
N43    N     0.34722   0.18937   0.41691   0.00000  Uiso   1.00
N44    N     0.38621   0.81432   0.49606   0.00000  Uiso   1.00
N45    N     0.39570   0.77602   0.11696   0.00000  Uiso   1.00
N46    N     0.23465   0.16994   0.45095   0.00000  Uiso   1.00
C47    C     0.83803   0.44412   0.91292   0.00000  Uiso   1.00
C48    C     0.80656   0.50697   0.91060   0.00000  Uiso   1.00
C49    C     0.75689   0.56211   0.96474   0.00000  Uiso   1.00
C50    C     0.73474   0.61459   0.95227   0.00000  Uiso   1.00
C51    C     0.68180   0.71257   0.95845   0.00000  Uiso   1.00
C52    C     0.81925   0.38600   0.86837   0.00000  Uiso   1.00
C53    C     0.78025   0.33942   0.88702   0.00000  Uiso   1.00
C54    C     0.76878   0.29006   0.83900   0.00000  Uiso   1.00
C55    C     0.73558   0.20019   0.77961   0.00000  Uiso   1.00
C56    C     0.92186   0.43606   0.87863   0.00000  Uiso   1.00
C57    C     0.96914   0.43156   0.90588   0.00000  Uiso   1.00
C58    C     0.04406   0.42433   0.86649   0.00000  Uiso   1.00
C59    C     0.17017   0.41220   0.82302   0.00000  Uiso   1.00
C60    C     0.88702   0.43927   0.79449   0.00000  Uiso   1.00
C61    C     0.83317   0.50433   0.84627   0.00000  Uiso   1.00
C62    C     0.81109   0.55674   0.83372   0.00000  Uiso   1.00
C63    C     0.76140   0.61195   0.88783   0.00000  Uiso   1.00
C64    C     0.84585   0.38336   0.80405   0.00000  Uiso   1.00
C65    C     0.83445   0.33405   0.75599   0.00000  Uiso   1.00
C66    C     0.79544   0.28741   0.77456   0.00000  Uiso   1.00
C67    C     0.94847   0.43343   0.81430   0.00000  Uiso   1.00
C68    C     0.02333   0.42620   0.77486   0.00000  Uiso   1.00
C69    C     0.07072   0.42169   0.80205   0.00000  Uiso   1.00
H70    H     0.81732   0.44617   0.96300   0.00000  Uiso   1.00
H71    H     0.73631   0.56413   0.01451   0.00000  Uiso   1.00
H72    H     0.75967   0.34147   0.93680   0.00000  Uiso   1.00
H73    H     0.94852   0.43360   0.95566   0.00000  Uiso   1.00
H74    H     0.65821   0.69374   0.04326   0.00000  Uiso   1.00
H75    H     0.70749   0.22424   0.87938   0.00000  Uiso   1.00
H76    H     0.10573   0.41851   0.91916   0.00000  Uiso   1.00
H77    H     0.90774   0.43721   0.74441   0.00000  Uiso   1.00
H78    H     0.83169   0.55469   0.78393   0.00000  Uiso   1.00
H79    H     0.85505   0.33203   0.70622   0.00000  Uiso   1.00
H80    H     0.04391   0.42416   0.72508   0.00000  Uiso   1.00
H81    H     0.73562   0.68607   0.85611   0.00000  Uiso   1.00
H82    H     0.78491   0.21657   0.69224   0.00000  Uiso   1.00
H83    H     0.18314   0.41084   0.73202   0.00000  Uiso   1.00
O84    O     0.64524   0.76733   0.97963   0.00000  Uiso   1.00
O85    O     0.70991   0.15136   0.76463   0.00000  Uiso   1.00
O86    O     0.23238   0.40625   0.81682   0.00000  Uiso   1.00
N87    N     0.68688   0.67582   0.99379   0.00000  Uiso   1.00
N88    N     0.73294   0.23687   0.84058   0.00000  Uiso   1.00
N89    N     0.10526   0.41848   0.87776   0.00000  Uiso   1.00
N90    N     0.72853   0.67169   0.89309   0.00000  Uiso   1.00
N91    N     0.77460   0.23274   0.73988   0.00000  Uiso   1.00
N92    N     0.14692   0.41436   0.77706   0.00000  Uiso   1.00
C93    C     0.31254   0.62261   0.46001   0.00000  Uiso   1.00
C94    C     0.38658   0.59597   0.39813   0.00000  Uiso   1.00
C95    C     0.44777   0.62588   0.38754   0.00000  Uiso   1.00
C96    C     0.51029   0.59365   0.32767   0.00000  Uiso   1.00
C97    C     0.62505   0.56143   0.23880   0.00000  Uiso   1.00
C98    C     0.25445   0.62934   0.43668   0.00000  Uiso   1.00
C99    C     0.20455   0.68730   0.45852   0.00000  Uiso   1.00
C100   C     0.15584   0.68316   0.43110   0.00000  Uiso   1.00
C101   C     0.06544   0.70272   0.40211   0.00000  Uiso   1.00
C102   C     0.29811   0.56685   0.48526   0.00000  Uiso   1.00
C103   C     0.28490   0.57228   0.54795   0.00000  Uiso   1.00
C104   C     0.27293   0.51553   0.56143   0.00000  Uiso   1.00
C105   C     0.25032   0.43808   0.60787   0.00000  Uiso   1.00
C106   C     0.31475   0.51218   0.37250   0.00000  Uiso   1.00
C107   C     0.38778   0.53599   0.35060   0.00000  Uiso   1.00
C108   C     0.45022   0.50370   0.29072   0.00000  Uiso   1.00
C109   C     0.51150   0.53356   0.28005   0.00000  Uiso   1.00
C110   C     0.25565   0.56936   0.38915   0.00000  Uiso   1.00
C111   C     0.20700   0.56512   0.36170   0.00000  Uiso   1.00
C112   C     0.15705   0.62307   0.38348   0.00000  Uiso   1.00
C113   C     0.29932   0.50687   0.43773   0.00000  Uiso   1.00
C114   C     0.28736   0.45010   0.45112   0.00000  Uiso   1.00
C115   C     0.27414   0.45544   0.51382   0.00000  Uiso   1.00
H116   H     0.31160   0.66931   0.49702   0.00000  Uiso   1.00
H117   H     0.44682   0.67231   0.42434   0.00000  Uiso   1.00
H118   H     0.20363   0.73371   0.49530   0.00000  Uiso   1.00
H119   H     0.28398   0.61871   0.58471   0.00000  Uiso   1.00
H120   H     0.59725   0.64919   0.32279   0.00000  Uiso   1.00
H121   H     0.08446   0.77866   0.47244   0.00000  Uiso   1.00
H122   H     0.25388   0.53615   0.66098   0.00000  Uiso   1.00
H123   H     0.31569   0.46547   0.33550   0.00000  Uiso   1.00
H124   H     0.45113   0.45728   0.25395   0.00000  Uiso   1.00
H125   H     0.20795   0.51869   0.32492   0.00000  Uiso   1.00
H126   H     0.28829   0.40369   0.41433   0.00000  Uiso   1.00
H127   H     0.60075   0.47467   0.18449   0.00000  Uiso   1.00
H128   H     0.08796   0.60414   0.33415   0.00000  Uiso   1.00
H129   H     0.25738   0.36163   0.52269   0.00000  Uiso   1.00
O130   O     0.68802   0.56023   0.20291   0.00000  Uiso   1.00
O131   O     0.01525   0.73009   0.39925   0.00000  Uiso   1.00
O132   O     0.23753   0.41193   0.64661   0.00000  Uiso   1.00
N133   N     0.57949   0.60923   0.30144   0.00000  Uiso   1.00
N134   N     0.10007   0.73029   0.44135   0.00000  Uiso   1.00
N135   N     0.25844   0.50357   0.61762   0.00000  Uiso   1.00
N136   N     0.58138   0.51532   0.22702   0.00000  Uiso   1.00
N137   N     0.10196   0.63638   0.36693   0.00000  Uiso   1.00
N138   N     0.26033   0.40966   0.54321   0.00000  Uiso   1.00
C139   C     0.38054   0.02597   0.92973   0.00000  Uiso   1.00
C140   C     0.37113   0.97055   0.95553   0.00000  Uiso   1.00
C141   C     0.31265   0.97250   0.01275   0.00000  Uiso   1.00
C142   C     0.31420   0.91674   0.02780   0.00000  Uiso   1.00
C143   C     0.29075   0.83915   0.07405   0.00000  Uiso   1.00
C144   C     0.38817   0.99432   0.85987   0.00000  Uiso   1.00
C145   C     0.34402   0.01625   0.83665   0.00000  Uiso   1.00
C146   C     0.35993   0.98050   0.77117   0.00000  Uiso   1.00
C147   C     0.36296   0.93984   0.66888   0.00000  Uiso   1.00
C148   C     0.45548   0.04280   0.92239   0.00000  Uiso   1.00
C149   C     0.46793   0.10551   0.95173   0.00000  Uiso   1.00
C150   C     0.54050   0.11058   0.93887   0.00000  Uiso   1.00
C151   C     0.64803   0.14520   0.93366   0.00000  Uiso   1.00
C152   C     0.48729   0.92349   0.85473   0.00000  Uiso   1.00
C153   C     0.42911   0.91489   0.91479   0.00000  Uiso   1.00
C154   C     0.43075   0.85911   0.92977   0.00000  Uiso   1.00
C155   C     0.37229   0.86098   0.98699   0.00000  Uiso   1.00
C156   C     0.44615   0.93866   0.81913   0.00000  Uiso   1.00
C157   C     0.46213   0.90287   0.75367   0.00000  Uiso   1.00
C158   C     0.41801   0.92474   0.73036   0.00000  Uiso   1.00
C159   C     0.51346   0.98714   0.88165   0.00000  Uiso   1.00
C160   C     0.58603   0.99212   0.86875   0.00000  Uiso   1.00
C161   C     0.59858   0.05482   0.89806   0.00000  Uiso   1.00
H162   H     0.33540   0.06930   0.96144   0.00000  Uiso   1.00
H163   H     0.26779   0.01558   0.04426   0.00000  Uiso   1.00
H164   H     0.29916   0.05933   0.86818   0.00000  Uiso   1.00
H165   H     0.42304   0.14857   0.98325   0.00000  Uiso   1.00
H166   H     0.21838   0.93146   0.11809   0.00000  Uiso   1.00
H167   H     0.28455   0.02373   0.74683   0.00000  Uiso   1.00
H168   H     0.54578   0.21191   0.98946   0.00000  Uiso   1.00
H169   H     0.53243   0.88015   0.82301   0.00000  Uiso   1.00
H170   H     0.47563   0.81605   0.89823   0.00000  Uiso   1.00
H171   H     0.50700   0.85980   0.72216   0.00000  Uiso   1.00
H172   H     0.63088   0.94904   0.83722   0.00000  Uiso   1.00
H173   H     0.38707   0.76951   0.99957   0.00000  Uiso   1.00
H174   H     0.45324   0.86178   0.62830   0.00000  Uiso   1.00
H175   H     0.71447   0.04996   0.87094   0.00000  Uiso   1.00
O176   O     0.26179   0.81172   0.11080   0.00000  Uiso   1.00
O177   O     0.34861   0.93278   0.62371   0.00000  Uiso   1.00
O178   O     0.69133   0.17966   0.94204   0.00000  Uiso   1.00
N179   N     0.26588   0.90215   0.07988   0.00000  Uiso   1.00
N180   N     0.32774   0.98841   0.73277   0.00000  Uiso   1.00
N181   N     0.57197   0.16434   0.95960   0.00000  Uiso   1.00
N182   N     0.35665   0.81500   0.01611   0.00000  Uiso   1.00
N183   N     0.41851   0.90127   0.66900   0.00000  Uiso   1.00
N184   N     0.66274   0.07720   0.89583   0.00000  Uiso   1.00
C185   C     0.80331   0.46244   0.41899   0.00000  Uiso   1.00
C186   C     0.87680   0.41534   0.39033   0.00000  Uiso   1.00
C187   C     0.89146   0.37141   0.41565   0.00000  Uiso   1.00
C188   C     0.96215   0.33256   0.38225   0.00000  Uiso   1.00
C189   C     0.06803   0.25864   0.34636   0.00000  Uiso   1.00
C190   C     0.78086   0.44591   0.36338   0.00000  Uiso   1.00
C191   C     0.71487   0.42769   0.36604   0.00000  Uiso   1.00
C192   C     0.70480   0.41457   0.30995   0.00000  Uiso   1.00
C193   C     0.66171   0.38816   0.23223   0.00000  Uiso   1.00
C194   C     0.82044   0.53233   0.43175   0.00000  Uiso   1.00
C195   C     0.78770   0.58678   0.49190   0.00000  Uiso   1.00
C196   C     0.81095   0.64644   0.49338   0.00000  Uiso   1.00
C197   C     0.82930   0.75421   0.52183   0.00000  Uiso   1.00
C198   C     0.90278   0.47157   0.31466   0.00000  Uiso   1.00
C199   C     0.93082   0.42030   0.33367   0.00000  Uiso   1.00
C200   C     0.00151   0.38150   0.30023   0.00000  Uiso   1.00
C201   C     0.01628   0.33752   0.32549   0.00000  Uiso   1.00
C202   C     0.83489   0.45086   0.30671   0.00000  Uiso   1.00
C203   C     0.82491   0.43778   0.25062   0.00000  Uiso   1.00
C204   C     0.75892   0.41953   0.25319   0.00000  Uiso   1.00
C205   C     0.87446   0.53729   0.37509   0.00000  Uiso   1.00
C206   C     0.89775   0.59687   0.37648   0.00000  Uiso   1.00
C207   C     0.86507   0.65140   0.43662   0.00000  Uiso   1.00
H208   H     0.76125   0.45859   0.46310   0.00000  Uiso   1.00
H209   H     0.84964   0.36759   0.45949   0.00000  Uiso   1.00
H210   H     0.67307   0.42386   0.40989   0.00000  Uiso   1.00
H211   H     0.74590   0.58293   0.53574   0.00000  Uiso   1.00
H212   H     0.97145   0.26886   0.43050   0.00000  Uiso   1.00
H213   H     0.59913   0.38754   0.32592   0.00000  Uiso   1.00
H214   H     0.75271   0.72297   0.59129   0.00000  Uiso   1.00
H215   H     0.94484   0.47542   0.27055   0.00000  Uiso   1.00
H216   H     0.04330   0.38534   0.25638   0.00000  Uiso   1.00
H217   H     0.86673   0.44162   0.20678   0.00000  Uiso   1.00
H218   H     0.93956   0.60069   0.33262   0.00000  Uiso   1.00
H219   H     0.12863   0.28327   0.26564   0.00000  Uiso   1.00
H220   H     0.75631   0.40196   0.16106   0.00000  Uiso   1.00
H221   H     0.90989   0.73738   0.42643   0.00000  Uiso   1.00
O222   O     0.11149   0.21649   0.34221   0.00000  Uiso   1.00
O223   O     0.62302   0.37221   0.20502   0.00000  Uiso   1.00
O224   O     0.82451   0.81228   0.55317   0.00000  Uiso   1.00
N225   N     0.99493   0.28463   0.39365   0.00000  Uiso   1.00
N226   N     0.64684   0.39557   0.29587   0.00000  Uiso   1.00
N227   N     0.79041   0.70918   0.54397   0.00000  Uiso   1.00
N228   N     0.07951   0.29238   0.30494   0.00000  Uiso   1.00
N229   N     0.73142   0.40333   0.20717   0.00000  Uiso   1.00
N230   N     0.87499   0.71693   0.45526   0.00000  Uiso   1.00
C231   C     0.94513   0.99949   0.31461   0.00000  Uiso   1.00
C232   C     0.88293   0.06102   0.35469   0.00000  Uiso   1.00
C233   C     0.89101   0.12597   0.36189   0.00000  Uiso   1.00
C234   C     0.82732   0.17529   0.40059   0.00000  Uiso   1.00
C235   C     0.74126   0.27313   0.45818   0.00000  Uiso   1.00
C236   C     0.92337   0.95091   0.26517   0.00000  Uiso   1.00
C237   C     0.96546   0.92328   0.19711   0.00000  Uiso   1.00
C238   C     0.93582   0.87991   0.16045   0.00000  Uiso   1.00
C239   C     0.91258   0.80676   0.07906   0.00000  Uiso   1.00
C240   C     0.94174   0.96741   0.36228   0.00000  Uiso   1.00
C241   C     0.99928   0.95363   0.37586   0.00000  Uiso   1.00
C242   C     0.98510   0.92413   0.42096   0.00000  Uiso   1.00
C243   C     0.99037   0.87661   0.49036   0.00000  Uiso   1.00
C244   C     0.81766   0.97158   0.37053   0.00000  Uiso   1.00
C245   C     0.81369   0.04585   0.38506   0.00000  Uiso   1.00
C246   C     0.74997   0.09509   0.42377   0.00000  Uiso   1.00
C247   C     0.75796   0.16010   0.43103   0.00000  Uiso   1.00
C248   C     0.85414   0.93575   0.29554   0.00000  Uiso   1.00
C249   C     0.82443   0.89240   0.25898   0.00000  Uiso   1.00
C250   C     0.86646   0.86472   0.19088   0.00000  Uiso   1.00
C251   C     0.87250   0.95225   0.39266   0.00000  Uiso   1.00
C252   C     0.85824   0.92276   0.43774   0.00000  Uiso   1.00
C253   C     0.91574   0.90894   0.45139   0.00000  Uiso   1.00
H254   H     0.99904   0.01129   0.29096   0.00000  Uiso   1.00
H255   H     0.94460   0.13768   0.33837   0.00000  Uiso   1.00
H256   H     0.01905   0.93502   0.17361   0.00000  Uiso   1.00
H257   H     0.05285   0.96537   0.35235   0.00000  Uiso   1.00
H258   H     0.85371   0.27112   0.40431   0.00000  Uiso   1.00
H259   H     0.01069   0.84378   0.05692   0.00000  Uiso   1.00
H260   H     0.08197   0.90778   0.43381   0.00000  Uiso   1.00
H261   H     0.76375   0.95977   0.39418   0.00000  Uiso   1.00
H262   H     0.69640   0.08334   0.44727   0.00000  Uiso   1.00
H263   H     0.77085   0.88068   0.28251   0.00000  Uiso   1.00
H264   H     0.80465   0.91103   0.46124   0.00000  Uiso   1.00
H265   H     0.65226   0.22701   0.49270   0.00000  Uiso   1.00
H266   H     0.80924   0.79967   0.14530   0.00000  Uiso   1.00
H267   H     0.88052   0.86368   0.52219   0.00000  Uiso   1.00
O268   O     0.71292   0.33128   0.48154   0.00000  Uiso   1.00
O269   O     0.91888   0.77062   0.02578   0.00000  Uiso   1.00
O270   O     0.01240   0.85459   0.52025   0.00000  Uiso   1.00
N271   N     0.81554   0.24378   0.41784   0.00000  Uiso   1.00
N272   N     0.96231   0.84425   0.09305   0.00000  Uiso   1.00
N273   N     0.02896   0.90408   0.44540   0.00000  Uiso   1.00
N274   N     0.70714   0.22005   0.46540   0.00000  Uiso   1.00
N275   N     0.85391   0.82052   0.14060   0.00000  Uiso   1.00
N276   N     0.92056   0.88034   0.49295   0.00000  Uiso   1.00
C277   C     0.42407   0.20331   0.71844   0.00000  Uiso   1.00
C278   C     0.44063   0.25669   0.69007   0.00000  Uiso   1.00
C279   C     0.39101   0.29334   0.68181   0.00000  Uiso   1.00
C280   C     0.41686   0.33983   0.65501   0.00000  Uiso   1.00
C281   C     0.43147   0.42130   0.61371   0.00000  Uiso   1.00
C282   C     0.44258   0.22504   0.77656   0.00000  Uiso   1.00
C283   C     0.39461   0.23506   0.84102   0.00000  Uiso   1.00
C284   C     0.42210   0.25489   0.88703   0.00000  Uiso   1.00
C285   C     0.43977   0.28717   0.97999   0.00000  Uiso   1.00
C286   C     0.48093   0.14014   0.66616   0.00000  Uiso   1.00
C287   C     0.46520   0.07876   0.63779   0.00000  Uiso   1.00
C288   C     0.52498   0.02711   0.59085   0.00000  Uiso   1.00
C289   C     0.60218   0.92757   0.51240   0.00000  Uiso   1.00
C290   C     0.55821   0.22071   0.68555   0.00000  Uiso   1.00
C291   C     0.51349   0.26614   0.67221   0.00000  Uiso   1.00
C292   C     0.53942   0.31259   0.64541   0.00000  Uiso   1.00
C293   C     0.48984   0.34930   0.63711   0.00000  Uiso   1.00
C294   C     0.51544   0.23449   0.75870   0.00000  Uiso   1.00
C295   C     0.54301   0.25431   0.80462   0.00000  Uiso   1.00
C296   C     0.49509   0.26436   0.86913   0.00000  Uiso   1.00
C297   C     0.55379   0.14958   0.64829   0.00000  Uiso   1.00
C298   C     0.61360   0.09801   0.60139   0.00000  Uiso   1.00
C299   C     0.59797   0.03658   0.57296   0.00000  Uiso   1.00
H300   H     0.36735   0.19596   0.73236   0.00000  Uiso   1.00
H301   H     0.33463   0.28602   0.69565   0.00000  Uiso   1.00
H302   H     0.33823   0.22774   0.85483   0.00000  Uiso   1.00
H303   H     0.40881   0.07147   0.65163   0.00000  Uiso   1.00
H304   H     0.33048   0.39005   0.64709   0.00000  Uiso   1.00
H305   H     0.33808   0.26714   0.98273   0.00000  Uiso   1.00
H306   H     0.48691   0.93762   0.55425   0.00000  Uiso   1.00
H307   H     0.61493   0.22807   0.67164   0.00000  Uiso   1.00
H308   H     0.59580   0.31989   0.63159   0.00000  Uiso   1.00
H309   H     0.59940   0.26161   0.79077   0.00000  Uiso   1.00
H310   H     0.66998   0.10534   0.58758   0.00000  Uiso   1.00
H311   H     0.54245   0.41755   0.59511   0.00000  Uiso   1.00
H312   H     0.55005   0.29463   0.93074   0.00000  Uiso   1.00
H313   H     0.69888   0.96511   0.50226   0.00000  Uiso   1.00
O314   O     0.41940   0.46364   0.59587   0.00000  Uiso   1.00
O315   O     0.42938   0.30237   0.03621   0.00000  Uiso   1.00
O316   O     0.62463   0.87005   0.47405   0.00000  Uiso   1.00
N317   N     0.38299   0.38391   0.64034   0.00000  Uiso   1.00
N318   N     0.39010   0.26901   0.95414   0.00000  Uiso   1.00
N319   N     0.52924   0.96093   0.55356   0.00000  Uiso   1.00
N320   N     0.49705   0.39870   0.61237   0.00000  Uiso   1.00
N321   N     0.50416   0.28380   0.92617   0.00000  Uiso   1.00
N322   N     0.64330   0.97572   0.52558   0.00000  Uiso   1.00
C323   C     0.06671   0.61596   0.07323   0.00000  Uiso   1.00
C324   C     0.08888   0.54441   0.06411   0.00000  Uiso   1.00
C325   C     0.14347   0.49502   0.00724   0.00000  Uiso   1.00
C326   C     0.15541   0.43277   0.00878   0.00000  Uiso   1.00
C327   C     0.19614   0.32356   0.98604   0.00000  Uiso   1.00
C328   C     0.07521   0.66075   0.13333   0.00000  Uiso   1.00
C329   C     0.11829   0.70918   0.13465   0.00000  Uiso   1.00
C330   C     0.11872   0.74487   0.19447   0.00000  Uiso   1.00
C331   C     0.13818   0.81631   0.27921   0.00000  Uiso   1.00
C332   C     0.98405   0.62714   0.09345   0.00000  Uiso   1.00
C333   C     0.95047   0.64734   0.06126   0.00000  Uiso   1.00
C334   C     0.87413   0.65475   0.08752   0.00000  Uiso   1.00
C335   C     0.75204   0.67401   0.11034   0.00000  Uiso   1.00
C336   C     0.99085   0.59322   0.17711   0.00000  Uiso   1.00
C337   C     0.04768   0.53206   0.12053   0.00000  Uiso   1.00
C338   C     0.05954   0.46987   0.12216   0.00000  Uiso   1.00
C339   C     0.11414   0.42040   0.06530   0.00000  Uiso   1.00
C340   C     0.03401   0.64840   0.18975   0.00000  Uiso   1.00
C341   C     0.03437   0.68403   0.24958   0.00000  Uiso   1.00
C342   C     0.07744   0.73250   0.25100   0.00000  Uiso   1.00
C343   C     0.94284   0.61479   0.14987   0.00000  Uiso   1.00
C344   C     0.86654   0.62218   0.17619   0.00000  Uiso   1.00
C345   C     0.83286   0.64238   0.14404   0.00000  Uiso   1.00
H346   H     0.09878   0.62557   0.02931   0.00000  Uiso   1.00
H347   H     0.17534   0.50460   0.96359   0.00000  Uiso   1.00
H348   H     0.15016   0.71873   0.09099   0.00000  Uiso   1.00
H349   H     0.98237   0.65689   0.01760   0.00000  Uiso   1.00
H350   H     0.24208   0.36504   0.91561   0.00000  Uiso   1.00
H351   H     0.18897   0.81656   0.18424   0.00000  Uiso   1.00
H352   H     0.83513   0.68616   0.02950   0.00000  Uiso   1.00
H353   H     0.95877   0.58361   0.22104   0.00000  Uiso   1.00
H354   H     0.02765   0.46033   0.16583   0.00000  Uiso   1.00
H355   H     0.00248   0.67446   0.29323   0.00000  Uiso   1.00
H356   H     0.83468   0.61262   0.21985   0.00000  Uiso   1.00
H357   H     0.12221   0.32911   0.07976   0.00000  Uiso   1.00
H358   H     0.06910   0.78063   0.34840   0.00000  Uiso   1.00
H359   H     0.71526   0.65023   0.19365   0.00000  Uiso   1.00
O360   O     0.23000   0.26674   0.95792   0.00000  Uiso   1.00
O361   O     0.16031   0.85912   0.31036   0.00000  Uiso   1.00
O362   O     0.69608   0.68804   0.10733   0.00000  Uiso   1.00
N363   N     0.20440   0.37349   0.96181   0.00000  Uiso   1.00
N364   N     0.15476   0.79563   0.21297   0.00000  Uiso   1.00
N365   N     0.82395   0.67374   0.06831   0.00000  Uiso   1.00
N366   N     0.13990   0.35416   0.05014   0.00000  Uiso   1.00
N367   N     0.09026   0.77630   0.30130   0.00000  Uiso   1.00
N368   N     0.75945   0.65440   0.15663   0.00000  Uiso   1.00
C369   C     0.55571   0.57955   0.62057   0.00000  Uiso   1.00
C370   C     0.49185   0.62641   0.68561   0.00000  Uiso   1.00
C371   C     0.42252   0.61263   0.71577   0.00000  Uiso   1.00
C372   C     0.37169   0.66204   0.77513   0.00000  Uiso   1.00
C373   C     0.26981   0.72551   0.87186   0.00000  Uiso   1.00
C374   C     0.62053   0.57114   0.63568   0.00000  Uiso   1.00
C375   C     0.65940   0.51089   0.62386   0.00000  Uiso   1.00
C376   C     0.71690   0.51378   0.64119   0.00000  Uiso   1.00
C377   C     0.81483   0.49143   0.66036   0.00000  Uiso   1.00
C378   C     0.57738   0.61803   0.57589   0.00000  Uiso   1.00
C379   C     0.57999   0.59721   0.51379   0.00000  Uiso   1.00
C380   C     0.60119   0.63957   0.48077   0.00000  Uiso   1.00
C381   C     0.63213   0.69004   0.40712   0.00000  Uiso   1.00
C382   C     0.58872   0.69181   0.67234   0.00000  Uiso   1.00
C383   C     0.50978   0.68738   0.71373   0.00000  Uiso   1.00
C384   C     0.45904   0.73682   0.77305   0.00000  Uiso   1.00
C385   C     0.38965   0.72312   0.80330   0.00000  Uiso   1.00
C386   C     0.63846   0.63211   0.66380   0.00000  Uiso   1.00
C387   C     0.69592   0.63509   0.68114   0.00000  Uiso   1.00
C388   C     0.73486   0.57486   0.66936   0.00000  Uiso   1.00
C389   C     0.59531   0.67901   0.60401   0.00000  Uiso   1.00
C390   C     0.61651   0.72141   0.57108   0.00000  Uiso   1.00
C391   C     0.61915   0.70065   0.50894   0.00000  Uiso   1.00
H392   H     0.54175   0.53208   0.59867   0.00000  Uiso   1.00
H393   H     0.40867   0.56544   0.69400   0.00000  Uiso   1.00
H394   H     0.64551   0.46372   0.60210   0.00000  Uiso   1.00
H395   H     0.56611   0.55002   0.49205   0.00000  Uiso   1.00
H396   H     0.26903   0.62929   0.81210   0.00000  Uiso   1.00
H397   H     0.76845   0.41481   0.61830   0.00000  Uiso   1.00
H398   H     0.60103   0.59680   0.38624   0.00000  Uiso   1.00
H399   H     0.60268   0.73928   0.69423   0.00000  Uiso   1.00
H400   H     0.47293   0.78400   0.79480   0.00000  Uiso   1.00
H401   H     0.70978   0.68228   0.70290   0.00000  Uiso   1.00
H402   H     0.63038   0.76858   0.59285   0.00000  Uiso   1.00
H403   H     0.32119   0.80669   0.89392   0.00000  Uiso   1.00
H404   H     0.82061   0.59220   0.70011   0.00000  Uiso   1.00
H405   H     0.65319   0.77419   0.46806   0.00000  Uiso   1.00
O406   O     0.20866   0.74366   0.91745   0.00000  Uiso   1.00
O407   O     0.86389   0.46226   0.66318   0.00000  Uiso   1.00
O408   O     0.64424   0.70104   0.35873   0.00000  Uiso   1.00
N409   N     0.29911   0.66491   0.81755   0.00000  Uiso   1.00
N410   N     0.76603   0.46438   0.63636   0.00000  Uiso   1.00
N411   N     0.60952   0.63452   0.41940   0.00000  Uiso   1.00
N412   N     0.32717   0.76037   0.86157   0.00000  Uiso   1.00
N413   N     0.79409   0.55983   0.68039   0.00000  Uiso   1.00
N414   N     0.63759   0.72997   0.46342   0.00000  Uiso   1.00
C415   C     0.50819   0.16515   0.20300   0.00000  Uiso   1.00
C416   C     0.51167   0.21986   0.17678   0.00000  Uiso   1.00
C417   C     0.56545   0.21786   0.11719   0.00000  Uiso   1.00
C418   C     0.55884   0.27293   0.10217   0.00000  Uiso   1.00
C419   C     0.57313   0.34952   0.05492   0.00000  Uiso   1.00
C420   C     0.50671   0.19822   0.27046   0.00000  Uiso   1.00
C421   C     0.55631   0.17801   0.28964   0.00000  Uiso   1.00
C422   C     0.54552   0.21485   0.35348   0.00000  Uiso   1.00
C423   C     0.55207   0.25781   0.45169   0.00000  Uiso   1.00
C424   C     0.43264   0.14683   0.21607   0.00000  Uiso   1.00
C425   C     0.41996   0.08341   0.18954   0.00000  Uiso   1.00
C426   C     0.34681   0.07698   0.20760   0.00000  Uiso   1.00
C427   C     0.23836   0.04016   0.22137   0.00000  Uiso   1.00
C428   C     0.40083   0.26650   0.28226   0.00000  Uiso   1.00
C429   C     0.45335   0.27491   0.21984   0.00000  Uiso   1.00
C430   C     0.44666   0.33000   0.20489   0.00000  Uiso   1.00
C431   C     0.50042   0.32807   0.14530   0.00000  Uiso   1.00
C432   C     0.44839   0.25327   0.31352   0.00000  Uiso   1.00
C433   C     0.43752   0.29014   0.37734   0.00000  Uiso   1.00
C434   C     0.48710   0.27000   0.39661   0.00000  Uiso   1.00
C435   C     0.37432   0.20188   0.25913   0.00000  Uiso   1.00
C436   C     0.30117   0.19555   0.27724   0.00000  Uiso   1.00
C437   C     0.28839   0.13213   0.25074   0.00000  Uiso   1.00
H438   H     0.55360   0.12229   0.16948   0.00000  Uiso   1.00
H439   H     0.61057   0.17525   0.08389   0.00000  Uiso   1.00
H440   H     0.60143   0.13540   0.25631   0.00000  Uiso   1.00
H441   H     0.46510   0.04082   0.15623   0.00000  Uiso   1.00
H442   H     0.64804   0.25825   0.00800   0.00000  Uiso   1.00
H443   H     0.62875   0.17422   0.37157   0.00000  Uiso   1.00
H444   H     0.34127   0.97477   0.16052   0.00000  Uiso   1.00
H445   H     0.35542   0.30937   0.31579   0.00000  Uiso   1.00
H446   H     0.40152   0.37259   0.23822   0.00000  Uiso   1.00
H447   H     0.39239   0.33274   0.41065   0.00000  Uiso   1.00
H448   H     0.25606   0.23816   0.31056   0.00000  Uiso   1.00
H449   H     0.47837   0.41842   0.13326   0.00000  Uiso   1.00
H450   H     0.45908   0.33438   0.49683   0.00000  Uiso   1.00
H451   H     0.17160   0.13494   0.28578   0.00000  Uiso   1.00
O452   O     0.59712   0.37656   0.01697   0.00000  Uiso   1.00
O453   O     0.57180   0.26630   0.49397   0.00000  Uiso   1.00
O454   O     0.19465   0.00464   0.21707   0.00000  Uiso   1.00
N455   N     0.60177   0.28727   0.04812   0.00000  Uiso   1.00
N456   N     0.58374   0.20870   0.38803   0.00000  Uiso   1.00
N457   N     0.31498   0.02224   0.19073   0.00000  Uiso   1.00
N458   N     0.51047   0.37345   0.11552   0.00000  Uiso   1.00
N459   N     0.49245   0.29489   0.45543   0.00000  Uiso   1.00
N460   N     0.22368   0.10842   0.25813   0.00000  Uiso   1.00
C461   C     0.05280   0.66058   0.61367   0.00000  Uiso   1.00
C462   C     0.97240   0.69742   0.65230   0.00000  Uiso   1.00
C463   C     0.93657   0.73317   0.63167   0.00000  Uiso   1.00
C464   C     0.86294   0.76330   0.67415   0.00000  Uiso   1.00
C465   C     0.74366   0.82135   0.72488   0.00000  Uiso   1.00
C466   C     0.08879   0.68900   0.65890   0.00000  Uiso   1.00
C467   C     0.15083   0.71767   0.64382   0.00000  Uiso   1.00
C468   C     0.17517   0.74070   0.69185   0.00000  Uiso   1.00
C469   C     0.23662   0.78564   0.75281   0.00000  Uiso   1.00
C470   C     0.05124   0.58843   0.60666   0.00000  Uiso   1.00
C471   C     0.08173   0.53253   0.54766   0.00000  Uiso   1.00
C472   C     0.07448   0.47088   0.55171   0.00000  Uiso   1.00
C473   C     0.07763   0.35967   0.53156   0.00000  Uiso   1.00
C474   C     0.98573   0.65050   0.72580   0.00000  Uiso   1.00
C475   C     0.93598   0.69194   0.71320   0.00000  Uiso   1.00
C476   C     0.86238   0.72201   0.75573   0.00000  Uiso   1.00
C477   C     0.82645   0.75781   0.73516   0.00000  Uiso   1.00
C478   C     0.05237   0.68352   0.71980   0.00000  Uiso   1.00
C479   C     0.07663   0.70651   0.76787   0.00000  Uiso   1.00
C480   C     0.13868   0.73521   0.75286   0.00000  Uiso   1.00
C481   C     0.01482   0.58295   0.66757   0.00000  Uiso   1.00
C482   C     0.00753   0.52137   0.67171   0.00000  Uiso   1.00
C483   C     0.03799   0.46539   0.61272   0.00000  Uiso   1.00
H484   H     0.08116   0.66485   0.56626   0.00000  Uiso   1.00
H485   H     0.96479   0.73741   0.58454   0.00000  Uiso   1.00
H486   H     0.17901   0.72190   0.59668   0.00000  Uiso   1.00
H487   H     0.10991   0.53679   0.50054   0.00000  Uiso   1.00
H488   H     0.81971   0.81545   0.63167   0.00000  Uiso   1.00
H489   H     0.27142   0.78273   0.65726   0.00000  Uiso   1.00
H490   H     0.12573   0.39239   0.45452   0.00000  Uiso   1.00
H491   H     0.95738   0.64623   0.77322   0.00000  Uiso   1.00
H492   H     0.83421   0.71777   0.80285   0.00000  Uiso   1.00
H493   H     0.04843   0.70226   0.81499   0.00000  Uiso   1.00
H494   H     0.97934   0.51715   0.71885   0.00000  Uiso   1.00
H495   H     0.71373   0.79951   0.80886   0.00000  Uiso   1.00
H496   H     0.16544   0.76679   0.83445   0.00000  Uiso   1.00
H497   H     0.01975   0.37645   0.63172   0.00000  Uiso   1.00
O498   O     0.68793   0.85489   0.73604   0.00000  Uiso   1.00
O499   O     0.28057   0.81195   0.76960   0.00000  Uiso   1.00
O500   O     0.08942   0.29984   0.50362   0.00000  Uiso   1.00
N501   N     0.81166   0.80187   0.66930   0.00000  Uiso   1.00
N502   N     0.23398   0.77129   0.69323   0.00000  Uiso   1.00
N503   N     0.09779   0.40635   0.50369   0.00000  Uiso   1.00
N504   N     0.75464   0.79330   0.76465   0.00000  Uiso   1.00
N505   N     0.17695   0.76271   0.78858   0.00000  Uiso   1.00
N506   N     0.04076   0.39778   0.59903   0.00000  Uiso   1.00
C507   C     0.94600   0.08478   0.70567   0.00000  Uiso   1.00
C508   C     0.01958   0.03848   0.67851   0.00000  Uiso   1.00
C509   C     0.03020   0.96999   0.66144   0.00000  Uiso   1.00
C510   C     0.10175   0.93656   0.63750   0.00000  Uiso   1.00
C511   C     0.20706   0.85952   0.59636   0.00000  Uiso   1.00
C512   C     0.93492   0.13831   0.77110   0.00000  Uiso   1.00
C513   C     0.87436   0.15378   0.83186   0.00000  Uiso   1.00
C514   C     0.87464   0.20439   0.88587   0.00000  Uiso   1.00
C515   C     0.84849   0.28238   0.98846   0.00000  Uiso   1.00
C516   C     0.95762   0.12030   0.65909   0.00000  Uiso   1.00
C517   C     0.91614   0.12064   0.62570   0.00000  Uiso   1.00
C518   C     0.93553   0.15610   0.58541   0.00000  Uiso   1.00
C519   C     0.94463   0.20612   0.51410   0.00000  Uiso   1.00
C520   C     0.05418   0.14717   0.69352   0.00000  Uiso   1.00
C521   C     0.07834   0.07237   0.67191   0.00000  Uiso   1.00
C522   C     0.14989   0.03903   0.64799   0.00000  Uiso   1.00
C523   C     0.16062   0.97051   0.63089   0.00000  Uiso   1.00
C524   C     0.99368   0.17221   0.76450   0.00000  Uiso   1.00
C525   C     0.99405   0.22281   0.81842   0.00000  Uiso   1.00
C526   C     0.93351   0.23835   0.87926   0.00000  Uiso   1.00
C527   C     0.01638   0.15419   0.65249   0.00000  Uiso   1.00
C528   C     0.03583   0.18967   0.61226   0.00000  Uiso   1.00
C529   C     0.99439   0.19005   0.57880   0.00000  Uiso   1.00
H530   H     0.90025   0.05839   0.71081   0.00000  Uiso   1.00
H531   H     0.98471   0.94378   0.66656   0.00000  Uiso   1.00
H532   H     0.82889   0.12755   0.83695   0.00000  Uiso   1.00
H533   H     0.87067   0.09440   0.63082   0.00000  Uiso   1.00
H534   H     0.10426   0.83167   0.61460   0.00000  Uiso   1.00
H535   H     0.77570   0.21915   0.97389   0.00000  Uiso   1.00
H536   H     0.86379   0.14927   0.53922   0.00000  Uiso   1.00
H537   H     0.09992   0.17356   0.68839   0.00000  Uiso   1.00
H538   H     0.19535   0.06527   0.64289   0.00000  Uiso   1.00
H539   H     0.03953   0.24903   0.81330   0.00000  Uiso   1.00
H540   H     0.08131   0.21589   0.60716   0.00000  Uiso   1.00
H541   H     0.27523   0.93027   0.59540   0.00000  Uiso   1.00
H542   H     0.94666   0.31776   0.95469   0.00000  Uiso   1.00
H543   H     0.03476   0.24787   0.52002   0.00000  Uiso   1.00
O544   O     0.24891   0.80766   0.57550   0.00000  Uiso   1.00
O545   O     0.81784   0.31603   0.04687   0.00000  Uiso   1.00
O546   O     0.93342   0.22434   0.47659   0.00000  Uiso   1.00
N547   N     0.13141   0.86974   0.61631   0.00000  Uiso   1.00
N548   N     0.82422   0.23200   0.95223   0.00000  Uiso   1.00
N549   N     0.90657   0.16668   0.54586   0.00000  Uiso   1.00
N550   N     0.22340   0.92279   0.60598   0.00000  Uiso   1.00
N551   N     0.91622   0.28506   0.94190   0.00000  Uiso   1.00
N552   N     0.99857   0.21974   0.53553   0.00000  Uiso   1.00
