data_job_00970
_audit_creation_date              2018-12-19
_audit_creation_method            'Materials Studio'
_symmetry_space_group_name_H-M    'P1'
_symmetry_Int_Tables_number       1
_symmetry_cell_setting            triclinic
loop_
_symmetry_equiv_pos_as_xyz
  x,y,z
_cell_length_a                    19.3809
_cell_length_b                    12.4981
_cell_length_c                    21.7368
_cell_angle_alpha                 90.0000
_cell_angle_beta                  92.5374
_cell_angle_gamma                 90.0000
loop_
_atom_site_label
_atom_site_type_symbol
_atom_site_fract_x
_atom_site_fract_y
_atom_site_fract_z
_atom_site_U_iso_or_equiv
_atom_site_adp_type
_atom_site_occupancy
C1     C     0.56212   0.25923   0.67222   0.00000  Uiso   1.00
C2     C     0.61855   0.17899   0.65811   0.00000  Uiso   1.00
C3     C     0.63318   0.08546   0.69054   0.00000  Uiso   1.00
C4     C     0.68684   0.02280   0.67037   0.00000  Uiso   1.00
C5     C     0.76875   0.89368   0.65620   0.00000  Uiso   1.00
C6     C     0.59828   0.36682   0.68125   0.00000  Uiso   1.00
C7     C     0.59586   0.43122   0.73312   0.00000  Uiso   1.00
C8     C     0.63246   0.52668   0.73241   0.00000  Uiso   1.00
C9     C     0.68287   0.68920   0.75415   0.00000  Uiso   1.00
C10    C     0.51702   0.26961   0.61324   0.00000  Uiso   1.00
C11    C     0.44628   0.25231   0.60794   0.00000  Uiso   1.00
C12    C     0.41446   0.26596   0.54998   0.00000  Uiso   1.00
C13    C     0.33870   0.27756   0.46612   0.00000  Uiso   1.00
C14    C     0.63141   0.31427   0.57873   0.00000  Uiso   1.00
C15    C     0.65618   0.20889   0.60733   0.00000  Uiso   1.00
C16    C     0.70983   0.14635   0.58710   0.00000  Uiso   1.00
C17    C     0.72454   0.05274   0.61949   0.00000  Uiso   1.00
C18    C     0.63592   0.39671   0.63047   0.00000  Uiso   1.00
C19    C     0.67252   0.49210   0.62968   0.00000  Uiso   1.00
C20    C     0.67016   0.55663   0.68154   0.00000  Uiso   1.00
C21    C     0.55466   0.29950   0.56246   0.00000  Uiso   1.00
C22    C     0.52294   0.31319   0.50450   0.00000  Uiso   1.00
C23    C     0.45216   0.29591   0.49910   0.00000  Uiso   1.00
H24    H     0.53283   0.23597   0.71176   0.00000  Uiso   1.00
H25    H     0.60405   0.06236   0.72984   0.00000  Uiso   1.00
H26    H     0.56673   0.40807   0.77241   0.00000  Uiso   1.00
H27    H     0.41717   0.22918   0.64724   0.00000  Uiso   1.00
H28    H     0.69962   0.88309   0.72751   0.00000  Uiso   1.00
H29    H     0.62092   0.61205   0.81726   0.00000  Uiso   1.00
H30    H     0.30554   0.23483   0.55332   0.00000  Uiso   1.00
H31    H     0.66071   0.33754   0.53919   0.00000  Uiso   1.00
H32    H     0.73895   0.16950   0.54780   0.00000  Uiso   1.00
H33    H     0.70163   0.51521   0.59038   0.00000  Uiso   1.00
H34    H     0.55207   0.33632   0.46521   0.00000  Uiso   1.00
H35    H     0.80911   0.97005   0.57976   0.00000  Uiso   1.00
H36    H     0.73041   0.69901   0.66951   0.00000  Uiso   1.00
H37    H     0.41504   0.32179   0.40558   0.00000  Uiso   1.00
O38    O     0.80354   0.81421   0.66242   0.00000  Uiso   1.00
O39    O     0.70028   0.77059   0.78017   0.00000  Uiso   1.00
O40    O     0.28652   0.27568   0.43389   0.00000  Uiso   1.00
N41    N     0.71464   0.92660   0.69154   0.00000  Uiso   1.00
N42    N     0.64107   0.60813   0.77546   0.00000  Uiso   1.00
N43    N     0.34622   0.25549   0.52871   0.00000  Uiso   1.00
N44    N     0.77356   0.97340   0.61204   0.00000  Uiso   1.00
N45    N     0.69999   0.65492   0.69596   0.00000  Uiso   1.00
N46    N     0.40514   0.30229   0.44921   0.00000  Uiso   1.00
C47    C     0.06212   0.75923   0.67222   0.00000  Uiso   1.00
C48    C     0.11855   0.67899   0.65811   0.00000  Uiso   1.00
C49    C     0.13318   0.58546   0.69054   0.00000  Uiso   1.00
C50    C     0.18684   0.52280   0.67037   0.00000  Uiso   1.00
C51    C     0.26875   0.39368   0.65620   0.00000  Uiso   1.00
C52    C     0.09828   0.86682   0.68125   0.00000  Uiso   1.00
C53    C     0.09586   0.93122   0.73312   0.00000  Uiso   1.00
C54    C     0.13246   0.02668   0.73241   0.00000  Uiso   1.00
C55    C     0.18287   0.18920   0.75415   0.00000  Uiso   1.00
C56    C     0.01702   0.76961   0.61324   0.00000  Uiso   1.00
C57    C     0.94628   0.75231   0.60794   0.00000  Uiso   1.00
C58    C     0.91446   0.76596   0.54998   0.00000  Uiso   1.00
C59    C     0.83870   0.77756   0.46612   0.00000  Uiso   1.00
C60    C     0.13141   0.81427   0.57873   0.00000  Uiso   1.00
C61    C     0.15618   0.70889   0.60733   0.00000  Uiso   1.00
C62    C     0.20983   0.64635   0.58710   0.00000  Uiso   1.00
C63    C     0.22454   0.55274   0.61949   0.00000  Uiso   1.00
C64    C     0.13592   0.89671   0.63047   0.00000  Uiso   1.00
C65    C     0.17252   0.99210   0.62968   0.00000  Uiso   1.00
C66    C     0.17016   0.05663   0.68154   0.00000  Uiso   1.00
C67    C     0.05466   0.79950   0.56246   0.00000  Uiso   1.00
C68    C     0.02294   0.81319   0.50450   0.00000  Uiso   1.00
C69    C     0.95216   0.79591   0.49910   0.00000  Uiso   1.00
H70    H     0.03283   0.73597   0.71176   0.00000  Uiso   1.00
H71    H     0.10405   0.56236   0.72984   0.00000  Uiso   1.00
H72    H     0.06673   0.90807   0.77241   0.00000  Uiso   1.00
H73    H     0.91717   0.72918   0.64724   0.00000  Uiso   1.00
H74    H     0.19962   0.38309   0.72751   0.00000  Uiso   1.00
H75    H     0.12092   0.11205   0.81726   0.00000  Uiso   1.00
H76    H     0.80554   0.73483   0.55332   0.00000  Uiso   1.00
H77    H     0.16071   0.83754   0.53919   0.00000  Uiso   1.00
H78    H     0.23895   0.66950   0.54780   0.00000  Uiso   1.00
H79    H     0.20163   0.01521   0.59038   0.00000  Uiso   1.00
H80    H     0.05207   0.83632   0.46521   0.00000  Uiso   1.00
H81    H     0.30911   0.47005   0.57976   0.00000  Uiso   1.00
H82    H     0.23041   0.19901   0.66951   0.00000  Uiso   1.00
H83    H     0.91504   0.82179   0.40558   0.00000  Uiso   1.00
O84    O     0.30354   0.31421   0.66242   0.00000  Uiso   1.00
O85    O     0.20028   0.27059   0.78017   0.00000  Uiso   1.00
O86    O     0.78652   0.77568   0.43389   0.00000  Uiso   1.00
N87    N     0.21464   0.42660   0.69154   0.00000  Uiso   1.00
N88    N     0.14107   0.10813   0.77546   0.00000  Uiso   1.00
N89    N     0.84622   0.75549   0.52871   0.00000  Uiso   1.00
N90    N     0.27356   0.47340   0.61204   0.00000  Uiso   1.00
N91    N     0.19999   0.15492   0.69596   0.00000  Uiso   1.00
N92    N     0.90514   0.80229   0.44921   0.00000  Uiso   1.00
C93    C     0.43788   0.25923   0.82778   0.00000  Uiso   1.00
C94    C     0.38145   0.17899   0.84189   0.00000  Uiso   1.00
C95    C     0.36682   0.08546   0.80946   0.00000  Uiso   1.00
C96    C     0.31316   0.02280   0.82963   0.00000  Uiso   1.00
C97    C     0.23125   0.89368   0.84380   0.00000  Uiso   1.00
C98    C     0.40172   0.36682   0.81875   0.00000  Uiso   1.00
C99    C     0.40414   0.43122   0.76688   0.00000  Uiso   1.00
C100   C     0.36754   0.52668   0.76759   0.00000  Uiso   1.00
C101   C     0.31713   0.68920   0.74585   0.00000  Uiso   1.00
C102   C     0.48298   0.26961   0.88676   0.00000  Uiso   1.00
C103   C     0.55372   0.25231   0.89206   0.00000  Uiso   1.00
C104   C     0.58554   0.26596   0.95002   0.00000  Uiso   1.00
C105   C     0.66130   0.27756   0.03388   0.00000  Uiso   1.00
C106   C     0.36859   0.31427   0.92127   0.00000  Uiso   1.00
C107   C     0.34382   0.20889   0.89267   0.00000  Uiso   1.00
C108   C     0.29017   0.14635   0.91290   0.00000  Uiso   1.00
C109   C     0.27546   0.05274   0.88051   0.00000  Uiso   1.00
C110   C     0.36408   0.39671   0.86953   0.00000  Uiso   1.00
C111   C     0.32748   0.49210   0.87032   0.00000  Uiso   1.00
C112   C     0.32984   0.55663   0.81846   0.00000  Uiso   1.00
C113   C     0.44534   0.29950   0.93754   0.00000  Uiso   1.00
C114   C     0.47706   0.31319   0.99550   0.00000  Uiso   1.00
C115   C     0.54784   0.29591   0.00090   0.00000  Uiso   1.00
H116   H     0.46717   0.23597   0.78824   0.00000  Uiso   1.00
H117   H     0.39595   0.06236   0.77016   0.00000  Uiso   1.00
H118   H     0.43327   0.40807   0.72759   0.00000  Uiso   1.00
H119   H     0.58283   0.22918   0.85276   0.00000  Uiso   1.00
H120   H     0.30038   0.88309   0.77249   0.00000  Uiso   1.00
H121   H     0.37908   0.61205   0.68274   0.00000  Uiso   1.00
H122   H     0.69446   0.23483   0.94668   0.00000  Uiso   1.00
H123   H     0.33929   0.33754   0.96081   0.00000  Uiso   1.00
H124   H     0.26105   0.16950   0.95220   0.00000  Uiso   1.00
H125   H     0.29837   0.51521   0.90962   0.00000  Uiso   1.00
H126   H     0.44793   0.33632   0.03479   0.00000  Uiso   1.00
H127   H     0.19089   0.97005   0.92024   0.00000  Uiso   1.00
H128   H     0.26959   0.69901   0.83049   0.00000  Uiso   1.00
H129   H     0.58496   0.32179   0.09442   0.00000  Uiso   1.00
O130   O     0.19646   0.81421   0.83758   0.00000  Uiso   1.00
O131   O     0.29972   0.77059   0.71983   0.00000  Uiso   1.00
O132   O     0.71348   0.27568   0.06611   0.00000  Uiso   1.00
N133   N     0.28536   0.92660   0.80846   0.00000  Uiso   1.00
N134   N     0.35893   0.60813   0.72454   0.00000  Uiso   1.00
N135   N     0.65378   0.25549   0.97129   0.00000  Uiso   1.00
N136   N     0.22644   0.97340   0.88796   0.00000  Uiso   1.00
N137   N     0.30001   0.65492   0.80404   0.00000  Uiso   1.00
N138   N     0.59486   0.30229   0.05079   0.00000  Uiso   1.00
C139   C     0.93788   0.75923   0.82778   0.00000  Uiso   1.00
C140   C     0.88145   0.67899   0.84189   0.00000  Uiso   1.00
C141   C     0.86682   0.58546   0.80946   0.00000  Uiso   1.00
C142   C     0.81316   0.52280   0.82963   0.00000  Uiso   1.00
C143   C     0.73125   0.39368   0.84380   0.00000  Uiso   1.00
C144   C     0.90172   0.86682   0.81875   0.00000  Uiso   1.00
C145   C     0.90414   0.93122   0.76688   0.00000  Uiso   1.00
C146   C     0.86754   0.02668   0.76759   0.00000  Uiso   1.00
C147   C     0.81713   0.18920   0.74585   0.00000  Uiso   1.00
C148   C     0.98298   0.76961   0.88676   0.00000  Uiso   1.00
C149   C     0.05372   0.75231   0.89206   0.00000  Uiso   1.00
C150   C     0.08554   0.76596   0.95002   0.00000  Uiso   1.00
C151   C     0.16130   0.77756   0.03388   0.00000  Uiso   1.00
C152   C     0.86859   0.81427   0.92127   0.00000  Uiso   1.00
C153   C     0.84382   0.70889   0.89267   0.00000  Uiso   1.00
C154   C     0.79017   0.64635   0.91290   0.00000  Uiso   1.00
C155   C     0.77546   0.55274   0.88051   0.00000  Uiso   1.00
C156   C     0.86408   0.89671   0.86953   0.00000  Uiso   1.00
C157   C     0.82748   0.99210   0.87032   0.00000  Uiso   1.00
C158   C     0.82984   0.05663   0.81846   0.00000  Uiso   1.00
C159   C     0.94534   0.79950   0.93754   0.00000  Uiso   1.00
C160   C     0.97706   0.81319   0.99550   0.00000  Uiso   1.00
C161   C     0.04784   0.79591   0.00090   0.00000  Uiso   1.00
H162   H     0.96717   0.73597   0.78824   0.00000  Uiso   1.00
H163   H     0.89595   0.56236   0.77016   0.00000  Uiso   1.00
H164   H     0.93327   0.90807   0.72759   0.00000  Uiso   1.00
H165   H     0.08283   0.72918   0.85276   0.00000  Uiso   1.00
H166   H     0.80038   0.38309   0.77249   0.00000  Uiso   1.00
H167   H     0.87908   0.11205   0.68274   0.00000  Uiso   1.00
H168   H     0.19446   0.73483   0.94668   0.00000  Uiso   1.00
H169   H     0.83929   0.83754   0.96081   0.00000  Uiso   1.00
H170   H     0.76105   0.66950   0.95220   0.00000  Uiso   1.00
H171   H     0.79837   0.01521   0.90962   0.00000  Uiso   1.00
H172   H     0.94793   0.83632   0.03479   0.00000  Uiso   1.00
H173   H     0.69089   0.47005   0.92024   0.00000  Uiso   1.00
H174   H     0.76959   0.19901   0.83049   0.00000  Uiso   1.00
H175   H     0.08496   0.82179   0.09442   0.00000  Uiso   1.00
O176   O     0.69646   0.31421   0.83758   0.00000  Uiso   1.00
O177   O     0.79972   0.27059   0.71983   0.00000  Uiso   1.00
O178   O     0.21348   0.77568   0.06611   0.00000  Uiso   1.00
N179   N     0.78536   0.42660   0.80846   0.00000  Uiso   1.00
N180   N     0.85893   0.10813   0.72454   0.00000  Uiso   1.00
N181   N     0.15378   0.75549   0.97129   0.00000  Uiso   1.00
N182   N     0.72644   0.47340   0.88796   0.00000  Uiso   1.00
N183   N     0.80001   0.15492   0.80404   0.00000  Uiso   1.00
N184   N     0.09486   0.80229   0.05079   0.00000  Uiso   1.00
C185   C     0.43788   0.74077   0.32778   0.00000  Uiso   1.00
C186   C     0.38145   0.82101   0.34189   0.00000  Uiso   1.00
C187   C     0.36682   0.91454   0.30946   0.00000  Uiso   1.00
C188   C     0.31316   0.97720   0.32963   0.00000  Uiso   1.00
C189   C     0.23125   0.10632   0.34380   0.00000  Uiso   1.00
C190   C     0.40172   0.63318   0.31875   0.00000  Uiso   1.00
C191   C     0.40414   0.56878   0.26688   0.00000  Uiso   1.00
C192   C     0.36754   0.47332   0.26759   0.00000  Uiso   1.00
C193   C     0.31713   0.31080   0.24585   0.00000  Uiso   1.00
C194   C     0.48298   0.73039   0.38676   0.00000  Uiso   1.00
C195   C     0.55372   0.74769   0.39206   0.00000  Uiso   1.00
C196   C     0.58554   0.73404   0.45002   0.00000  Uiso   1.00
C197   C     0.66130   0.72244   0.53388   0.00000  Uiso   1.00
C198   C     0.36859   0.68573   0.42127   0.00000  Uiso   1.00
C199   C     0.34382   0.79111   0.39267   0.00000  Uiso   1.00
C200   C     0.29017   0.85365   0.41290   0.00000  Uiso   1.00
C201   C     0.27546   0.94726   0.38051   0.00000  Uiso   1.00
C202   C     0.36408   0.60329   0.36953   0.00000  Uiso   1.00
C203   C     0.32748   0.50790   0.37032   0.00000  Uiso   1.00
C204   C     0.32984   0.44337   0.31846   0.00000  Uiso   1.00
C205   C     0.44534   0.70050   0.43754   0.00000  Uiso   1.00
C206   C     0.47706   0.68681   0.49550   0.00000  Uiso   1.00
C207   C     0.54784   0.70409   0.50090   0.00000  Uiso   1.00
H208   H     0.46717   0.76403   0.28824   0.00000  Uiso   1.00
H209   H     0.39595   0.93764   0.27016   0.00000  Uiso   1.00
H210   H     0.43327   0.59193   0.22759   0.00000  Uiso   1.00
H211   H     0.58283   0.77082   0.35276   0.00000  Uiso   1.00
H212   H     0.30038   0.11691   0.27249   0.00000  Uiso   1.00
H213   H     0.37908   0.38795   0.18274   0.00000  Uiso   1.00
H214   H     0.69446   0.76517   0.44668   0.00000  Uiso   1.00
H215   H     0.33929   0.66246   0.46081   0.00000  Uiso   1.00
H216   H     0.26105   0.83050   0.45220   0.00000  Uiso   1.00
H217   H     0.29837   0.48479   0.40962   0.00000  Uiso   1.00
H218   H     0.44793   0.66368   0.53479   0.00000  Uiso   1.00
H219   H     0.19089   0.02995   0.42024   0.00000  Uiso   1.00
H220   H     0.26959   0.30099   0.33049   0.00000  Uiso   1.00
H221   H     0.58496   0.67821   0.59442   0.00000  Uiso   1.00
O222   O     0.19646   0.18579   0.33758   0.00000  Uiso   1.00
O223   O     0.29972   0.22941   0.21983   0.00000  Uiso   1.00
O224   O     0.71348   0.72432   0.56611   0.00000  Uiso   1.00
N225   N     0.28536   0.07340   0.30846   0.00000  Uiso   1.00
N226   N     0.35893   0.39187   0.22454   0.00000  Uiso   1.00
N227   N     0.65378   0.74451   0.47129   0.00000  Uiso   1.00
N228   N     0.22644   0.02660   0.38796   0.00000  Uiso   1.00
N229   N     0.30001   0.34508   0.30404   0.00000  Uiso   1.00
N230   N     0.59486   0.69771   0.55079   0.00000  Uiso   1.00
C231   C     0.93788   0.24077   0.32778   0.00000  Uiso   1.00
C232   C     0.88145   0.32101   0.34189   0.00000  Uiso   1.00
C233   C     0.86682   0.41454   0.30946   0.00000  Uiso   1.00
C234   C     0.81316   0.47720   0.32963   0.00000  Uiso   1.00
C235   C     0.73125   0.60632   0.34380   0.00000  Uiso   1.00
C236   C     0.90172   0.13318   0.31875   0.00000  Uiso   1.00
C237   C     0.90414   0.06878   0.26688   0.00000  Uiso   1.00
C238   C     0.86754   0.97332   0.26759   0.00000  Uiso   1.00
C239   C     0.81713   0.81080   0.24585   0.00000  Uiso   1.00
C240   C     0.98298   0.23039   0.38676   0.00000  Uiso   1.00
C241   C     0.05372   0.24769   0.39206   0.00000  Uiso   1.00
C242   C     0.08554   0.23404   0.45002   0.00000  Uiso   1.00
C243   C     0.16130   0.22244   0.53388   0.00000  Uiso   1.00
C244   C     0.86859   0.18573   0.42127   0.00000  Uiso   1.00
C245   C     0.84382   0.29111   0.39267   0.00000  Uiso   1.00
C246   C     0.79017   0.35365   0.41290   0.00000  Uiso   1.00
C247   C     0.77546   0.44726   0.38051   0.00000  Uiso   1.00
C248   C     0.86408   0.10329   0.36953   0.00000  Uiso   1.00
C249   C     0.82748   0.00790   0.37032   0.00000  Uiso   1.00
C250   C     0.82984   0.94337   0.31846   0.00000  Uiso   1.00
C251   C     0.94534   0.20050   0.43754   0.00000  Uiso   1.00
C252   C     0.97706   0.18681   0.49550   0.00000  Uiso   1.00
C253   C     0.04784   0.20409   0.50090   0.00000  Uiso   1.00
H254   H     0.96717   0.26403   0.28824   0.00000  Uiso   1.00
H255   H     0.89595   0.43764   0.27016   0.00000  Uiso   1.00
H256   H     0.93327   0.09193   0.22759   0.00000  Uiso   1.00
H257   H     0.08283   0.27082   0.35276   0.00000  Uiso   1.00
H258   H     0.80038   0.61691   0.27249   0.00000  Uiso   1.00
H259   H     0.87908   0.88795   0.18274   0.00000  Uiso   1.00
H260   H     0.19446   0.26517   0.44668   0.00000  Uiso   1.00
H261   H     0.83929   0.16246   0.46081   0.00000  Uiso   1.00
H262   H     0.76105   0.33050   0.45220   0.00000  Uiso   1.00
H263   H     0.79837   0.98479   0.40962   0.00000  Uiso   1.00
H264   H     0.94793   0.16368   0.53479   0.00000  Uiso   1.00
H265   H     0.69089   0.52995   0.42024   0.00000  Uiso   1.00
H266   H     0.76959   0.80099   0.33049   0.00000  Uiso   1.00
H267   H     0.08496   0.17821   0.59442   0.00000  Uiso   1.00
O268   O     0.69646   0.68579   0.33758   0.00000  Uiso   1.00
O269   O     0.79972   0.72941   0.21983   0.00000  Uiso   1.00
O270   O     0.21348   0.22432   0.56611   0.00000  Uiso   1.00
N271   N     0.78536   0.57340   0.30846   0.00000  Uiso   1.00
N272   N     0.85893   0.89187   0.22454   0.00000  Uiso   1.00
N273   N     0.15378   0.24451   0.47129   0.00000  Uiso   1.00
N274   N     0.72644   0.52660   0.38796   0.00000  Uiso   1.00
N275   N     0.80001   0.84508   0.30404   0.00000  Uiso   1.00
N276   N     0.09486   0.19771   0.55079   0.00000  Uiso   1.00
C277   C     0.56212   0.74077   0.17222   0.00000  Uiso   1.00
C278   C     0.61855   0.82101   0.15811   0.00000  Uiso   1.00
C279   C     0.63318   0.91454   0.19054   0.00000  Uiso   1.00
C280   C     0.68684   0.97720   0.17037   0.00000  Uiso   1.00
C281   C     0.76875   0.10632   0.15620   0.00000  Uiso   1.00
C282   C     0.59828   0.63318   0.18125   0.00000  Uiso   1.00
C283   C     0.59586   0.56878   0.23312   0.00000  Uiso   1.00
C284   C     0.63246   0.47332   0.23241   0.00000  Uiso   1.00
C285   C     0.68287   0.31080   0.25415   0.00000  Uiso   1.00
C286   C     0.51702   0.73039   0.11324   0.00000  Uiso   1.00
C287   C     0.44628   0.74769   0.10794   0.00000  Uiso   1.00
C288   C     0.41446   0.73404   0.04998   0.00000  Uiso   1.00
C289   C     0.33870   0.72244   0.96612   0.00000  Uiso   1.00
C290   C     0.63141   0.68573   0.07873   0.00000  Uiso   1.00
C291   C     0.65618   0.79111   0.10733   0.00000  Uiso   1.00
C292   C     0.70983   0.85365   0.08710   0.00000  Uiso   1.00
C293   C     0.72454   0.94726   0.11949   0.00000  Uiso   1.00
C294   C     0.63592   0.60329   0.13047   0.00000  Uiso   1.00
C295   C     0.67252   0.50790   0.12968   0.00000  Uiso   1.00
C296   C     0.67016   0.44337   0.18154   0.00000  Uiso   1.00
C297   C     0.55466   0.70050   0.06246   0.00000  Uiso   1.00
C298   C     0.52294   0.68681   0.00450   0.00000  Uiso   1.00
C299   C     0.45216   0.70409   0.99910   0.00000  Uiso   1.00
H300   H     0.53283   0.76403   0.21176   0.00000  Uiso   1.00
H301   H     0.60405   0.93764   0.22984   0.00000  Uiso   1.00
H302   H     0.56673   0.59193   0.27241   0.00000  Uiso   1.00
H303   H     0.41717   0.77082   0.14724   0.00000  Uiso   1.00
H304   H     0.69962   0.11691   0.22751   0.00000  Uiso   1.00
H305   H     0.62092   0.38795   0.31726   0.00000  Uiso   1.00
H306   H     0.30554   0.76517   0.05332   0.00000  Uiso   1.00
H307   H     0.66071   0.66246   0.03919   0.00000  Uiso   1.00
H308   H     0.73895   0.83050   0.04780   0.00000  Uiso   1.00
H309   H     0.70163   0.48479   0.09038   0.00000  Uiso   1.00
H310   H     0.55207   0.66368   0.96521   0.00000  Uiso   1.00
H311   H     0.80911   0.02995   0.07976   0.00000  Uiso   1.00
H312   H     0.73041   0.30099   0.16951   0.00000  Uiso   1.00
H313   H     0.41504   0.67821   0.90558   0.00000  Uiso   1.00
O314   O     0.80354   0.18579   0.16242   0.00000  Uiso   1.00
O315   O     0.70028   0.22941   0.28017   0.00000  Uiso   1.00
O316   O     0.28652   0.72432   0.93389   0.00000  Uiso   1.00
N317   N     0.71464   0.07340   0.19154   0.00000  Uiso   1.00
N318   N     0.64107   0.39187   0.27546   0.00000  Uiso   1.00
N319   N     0.34622   0.74451   0.02871   0.00000  Uiso   1.00
N320   N     0.77356   0.02660   0.11204   0.00000  Uiso   1.00
N321   N     0.69999   0.34508   0.19596   0.00000  Uiso   1.00
N322   N     0.40514   0.69771   0.94921   0.00000  Uiso   1.00
C323   C     0.06212   0.24077   0.17222   0.00000  Uiso   1.00
C324   C     0.11855   0.32101   0.15811   0.00000  Uiso   1.00
C325   C     0.13318   0.41454   0.19054   0.00000  Uiso   1.00
C326   C     0.18684   0.47720   0.17037   0.00000  Uiso   1.00
C327   C     0.26875   0.60632   0.15620   0.00000  Uiso   1.00
C328   C     0.09828   0.13318   0.18125   0.00000  Uiso   1.00
C329   C     0.09586   0.06878   0.23312   0.00000  Uiso   1.00
C330   C     0.13246   0.97332   0.23241   0.00000  Uiso   1.00
C331   C     0.18287   0.81080   0.25415   0.00000  Uiso   1.00
C332   C     0.01702   0.23039   0.11324   0.00000  Uiso   1.00
C333   C     0.94628   0.24769   0.10794   0.00000  Uiso   1.00
C334   C     0.91446   0.23404   0.04998   0.00000  Uiso   1.00
C335   C     0.83870   0.22244   0.96612   0.00000  Uiso   1.00
C336   C     0.13141   0.18573   0.07873   0.00000  Uiso   1.00
C337   C     0.15618   0.29111   0.10733   0.00000  Uiso   1.00
C338   C     0.20983   0.35365   0.08710   0.00000  Uiso   1.00
C339   C     0.22454   0.44726   0.11949   0.00000  Uiso   1.00
C340   C     0.13592   0.10329   0.13047   0.00000  Uiso   1.00
C341   C     0.17252   0.00790   0.12968   0.00000  Uiso   1.00
C342   C     0.17016   0.94337   0.18154   0.00000  Uiso   1.00
C343   C     0.05466   0.20050   0.06246   0.00000  Uiso   1.00
C344   C     0.02294   0.18681   0.00450   0.00000  Uiso   1.00
C345   C     0.95216   0.20409   0.99910   0.00000  Uiso   1.00
H346   H     0.03283   0.26403   0.21176   0.00000  Uiso   1.00
H347   H     0.10405   0.43764   0.22984   0.00000  Uiso   1.00
H348   H     0.06673   0.09193   0.27241   0.00000  Uiso   1.00
H349   H     0.91717   0.27082   0.14724   0.00000  Uiso   1.00
H350   H     0.19962   0.61691   0.22751   0.00000  Uiso   1.00
H351   H     0.12092   0.88795   0.31726   0.00000  Uiso   1.00
H352   H     0.80554   0.26517   0.05332   0.00000  Uiso   1.00
H353   H     0.16071   0.16246   0.03919   0.00000  Uiso   1.00
H354   H     0.23895   0.33050   0.04780   0.00000  Uiso   1.00
H355   H     0.20163   0.98479   0.09038   0.00000  Uiso   1.00
H356   H     0.05207   0.16368   0.96521   0.00000  Uiso   1.00
H357   H     0.30911   0.52995   0.07976   0.00000  Uiso   1.00
H358   H     0.23041   0.80099   0.16951   0.00000  Uiso   1.00
H359   H     0.91504   0.17821   0.90558   0.00000  Uiso   1.00
O360   O     0.30354   0.68579   0.16242   0.00000  Uiso   1.00
O361   O     0.20028   0.72941   0.28017   0.00000  Uiso   1.00
O362   O     0.78652   0.22432   0.93389   0.00000  Uiso   1.00
N363   N     0.21464   0.57340   0.19154   0.00000  Uiso   1.00
N364   N     0.14107   0.89187   0.27546   0.00000  Uiso   1.00
N365   N     0.84622   0.24451   0.02871   0.00000  Uiso   1.00
N366   N     0.27356   0.52660   0.11204   0.00000  Uiso   1.00
N367   N     0.19999   0.84508   0.19596   0.00000  Uiso   1.00
N368   N     0.90514   0.19771   0.94921   0.00000  Uiso   1.00
