data_job_06427
_audit_creation_date              2018-12-19
_audit_creation_method            'Materials Studio'
_symmetry_space_group_name_H-M    'P1'
_symmetry_Int_Tables_number       1
_symmetry_cell_setting            triclinic
loop_
_symmetry_equiv_pos_as_xyz
  x,y,z
_cell_length_a                    18.3011
_cell_length_b                    18.2890
_cell_length_c                    18.2793
_cell_angle_alpha                 102.0540
_cell_angle_beta                  102.0930
_cell_angle_gamma                 102.1300
loop_
_atom_site_label
_atom_site_type_symbol
_atom_site_fract_x
_atom_site_fract_y
_atom_site_fract_z
_atom_site_U_iso_or_equiv
_atom_site_adp_type
_atom_site_occupancy
C1     C     0.76933   0.07220   0.31621   0.00000  Uiso   1.00
C2     C     0.73944   0.02717   0.37015   0.00000  Uiso   1.00
C3     C     0.77628   0.98011   0.40627   0.00000  Uiso   1.00
C4     C     0.73950   0.94391   0.45340   0.00000  Uiso   1.00
C5     C     0.70388   0.87235   0.53551   0.00000  Uiso   1.00
C6     C     0.70533   0.04594   0.24049   0.00000  Uiso   1.00
C7     C     0.71349   0.01468   0.16758   0.00000  Uiso   1.00
C8     C     0.64798   0.99429   0.10556   0.00000  Uiso   1.00
C9     C     0.55941   0.95193   0.98635   0.00000  Uiso   1.00
C10    C     0.77356   0.15678   0.35134   0.00000  Uiso   1.00
C11    C     0.83908   0.21872   0.37163   0.00000  Uiso   1.00
C12    C     0.83102   0.29166   0.40292   0.00000  Uiso   1.00
C13    C     0.84839   0.42140   0.45583   0.00000  Uiso   1.00
C14    C     0.63849   0.09160   0.33569   0.00000  Uiso   1.00
C15    C     0.66837   0.03770   0.38072   0.00000  Uiso   1.00
C16    C     0.63152   0.00157   0.42781   0.00000  Uiso   1.00
C17    C     0.66830   0.95446   0.46400   0.00000  Uiso   1.00
C18    C     0.63426   0.05648   0.25106   0.00000  Uiso   1.00
C19    C     0.56873   0.03614   0.18913   0.00000  Uiso   1.00
C20    C     0.57679   0.00484   0.11615   0.00000  Uiso   1.00
C21    C     0.70249   0.16732   0.36192   0.00000  Uiso   1.00
C22    C     0.69432   0.24018   0.39318   0.00000  Uiso   1.00
C23    C     0.75982   0.30221   0.41351   0.00000  Uiso   1.00
H24    H     0.82466   0.06400   0.30797   0.00000  Uiso   1.00
H25    H     0.83128   0.97196   0.39806   0.00000  Uiso   1.00
H26    H     0.76849   0.00653   0.15942   0.00000  Uiso   1.00
H27    H     0.89407   0.21054   0.36343   0.00000  Uiso   1.00
H28    H     0.80726   0.87455   0.50258   0.00000  Uiso   1.00
H29    H     0.67488   0.94747   0.99938   0.00000  Uiso   1.00
H30    H     0.93968   0.37767   0.42959   0.00000  Uiso   1.00
H31    H     0.58316   0.09980   0.34392   0.00000  Uiso   1.00
H32    H     0.57653   0.00973   0.43599   0.00000  Uiso   1.00
H33    H     0.51374   0.04430   0.19733   0.00000  Uiso   1.00
H34    H     0.63932   0.24831   0.40135   0.00000  Uiso   1.00
H35    H     0.60049   0.90520   0.53336   0.00000  Uiso   1.00
H36    H     0.46812   0.97812   0.03015   0.00000  Uiso   1.00
H37    H     0.73292   0.40832   0.46037   0.00000  Uiso   1.00
O38    O     0.70386   0.82996   0.57787   0.00000  Uiso   1.00
O39    O     0.53019   0.92564   0.91768   0.00000  Uiso   1.00
O40    O     0.87760   0.49005   0.48211   0.00000  Uiso   1.00
N41    N     0.75952   0.89414   0.49721   0.00000  Uiso   1.00
N42    N     0.63575   0.96230   0.02674   0.00000  Uiso   1.00
N43    N     0.88331   0.36450   0.42893   0.00000  Uiso   1.00
N44    N     0.64826   0.91063   0.51377   0.00000  Uiso   1.00
N45    N     0.52449   0.97880   0.04330   0.00000  Uiso   1.00
N46    N     0.77205   0.38100   0.44549   0.00000  Uiso   1.00
C47    C     0.31630   0.76936   0.07223   0.00000  Uiso   1.00
C48    C     0.37015   0.73949   0.02720   0.00000  Uiso   1.00
C49    C     0.40622   0.77638   0.98010   0.00000  Uiso   1.00
C50    C     0.45327   0.73960   0.94391   0.00000  Uiso   1.00
C51    C     0.53525   0.70402   0.87236   0.00000  Uiso   1.00
C52    C     0.24062   0.70532   0.04598   0.00000  Uiso   1.00
C53    C     0.16779   0.71349   0.01467   0.00000  Uiso   1.00
C54    C     0.10580   0.64794   0.99430   0.00000  Uiso   1.00
C55    C     0.98668   0.55932   0.95195   0.00000  Uiso   1.00
C56    C     0.35142   0.77355   0.15685   0.00000  Uiso   1.00
C57    C     0.37173   0.83908   0.21879   0.00000  Uiso   1.00
C58    C     0.40301   0.83097   0.29178   0.00000  Uiso   1.00
C59    C     0.45593   0.84829   0.42158   0.00000  Uiso   1.00
C60    C     0.33571   0.63843   0.09171   0.00000  Uiso   1.00
C61    C     0.38069   0.66837   0.03778   0.00000  Uiso   1.00
C62    C     0.42769   0.63153   0.00166   0.00000  Uiso   1.00
C63    C     0.46383   0.66836   0.95452   0.00000  Uiso   1.00
C64    C     0.25116   0.63420   0.05656   0.00000  Uiso   1.00
C65    C     0.18926   0.56863   0.03623   0.00000  Uiso   1.00
C66    C     0.11636   0.57670   0.00490   0.00000  Uiso   1.00
C67    C     0.36196   0.70243   0.16744   0.00000  Uiso   1.00
C68    C     0.39321   0.69422   0.24035   0.00000  Uiso   1.00
C69    C     0.41357   0.75973   0.30238   0.00000  Uiso   1.00
H70    H     0.30809   0.82472   0.06399   0.00000  Uiso   1.00
H71    H     0.39804   0.83142   0.97192   0.00000  Uiso   1.00
H72    H     0.15965   0.76853   0.00650   0.00000  Uiso   1.00
H73    H     0.36357   0.89410   0.21058   0.00000  Uiso   1.00
H74    H     0.50240   0.80746   0.87450   0.00000  Uiso   1.00
H75    H     0.99973   0.67487   0.94742   0.00000  Uiso   1.00
H76    H     0.42973   0.93966   0.37777   0.00000  Uiso   1.00
H77    H     0.34391   0.58306   0.09995   0.00000  Uiso   1.00
H78    H     0.43584   0.57649   0.00986   0.00000  Uiso   1.00
H79    H     0.19744   0.51361   0.04443   0.00000  Uiso   1.00
H80    H     0.40136   0.63918   0.24851   0.00000  Uiso   1.00
H81    H     0.53308   0.60055   0.90528   0.00000  Uiso   1.00
H82    H     0.03040   0.46796   0.97822   0.00000  Uiso   1.00
H83    H     0.46040   0.73275   0.40856   0.00000  Uiso   1.00
O84    O     0.57755   0.70403   0.82995   0.00000  Uiso   1.00
O85    O     0.91806   0.53008   0.92565   0.00000  Uiso   1.00
O86    O     0.48221   0.87748   0.49025   0.00000  Uiso   1.00
N87    N     0.49702   0.75967   0.89412   0.00000  Uiso   1.00
N88    N     0.02705   0.63570   0.96229   0.00000  Uiso   1.00
N89    N     0.42905   0.88326   0.36463   0.00000  Uiso   1.00
N90    N     0.51353   0.64834   0.91069   0.00000  Uiso   1.00
N91    N     0.04356   0.52437   0.97886   0.00000  Uiso   1.00
N92    N     0.44555   0.77192   0.38120   0.00000  Uiso   1.00
C93    C     0.07211   0.31620   0.76932   0.00000  Uiso   1.00
C94    C     0.02715   0.37009   0.73940   0.00000  Uiso   1.00
C95    C     0.98013   0.40615   0.77628   0.00000  Uiso   1.00
C96    C     0.94399   0.45325   0.73945   0.00000  Uiso   1.00
C97    C     0.87253   0.53529   0.70379   0.00000  Uiso   1.00
C98    C     0.04584   0.24050   0.70528   0.00000  Uiso   1.00
C99    C     0.01455   0.16762   0.71349   0.00000  Uiso   1.00
C100   C     0.99415   0.10562   0.64795   0.00000  Uiso   1.00
C101   C     0.95176   0.98647   0.55934   0.00000  Uiso   1.00
C102   C     0.15666   0.35135   0.77351   0.00000  Uiso   1.00
C103   C     0.21856   0.37165   0.83907   0.00000  Uiso   1.00
C104   C     0.29148   0.40297   0.83096   0.00000  Uiso   1.00
C105   C     0.42116   0.45593   0.84828   0.00000  Uiso   1.00
C106   C     0.09154   0.33570   0.63832   0.00000  Uiso   1.00
C107   C     0.03769   0.38068   0.66824   0.00000  Uiso   1.00
C108   C     0.00162   0.42773   0.63134   0.00000  Uiso   1.00
C109   C     0.95456   0.46386   0.66817   0.00000  Uiso   1.00
C110   C     0.05638   0.25109   0.63413   0.00000  Uiso   1.00
C111   C     0.03603   0.18919   0.56856   0.00000  Uiso   1.00
C112   C     0.00472   0.11623   0.57666   0.00000  Uiso   1.00
C113   C     0.16721   0.36195   0.70235   0.00000  Uiso   1.00
C114   C     0.24005   0.39323   0.69413   0.00000  Uiso   1.00
C115   C     0.30204   0.41358   0.75968   0.00000  Uiso   1.00
H116   H     0.06390   0.30794   0.82472   0.00000  Uiso   1.00
H117   H     0.97197   0.39794   0.83134   0.00000  Uiso   1.00
H118   H     0.00640   0.15944   0.76856   0.00000  Uiso   1.00
H119   H     0.21038   0.36345   0.89412   0.00000  Uiso   1.00
H120   H     0.87469   0.50236   0.80730   0.00000  Uiso   1.00
H121   H     0.94729   0.99947   0.67494   0.00000  Uiso   1.00
H122   H     0.37743   0.42965   0.93970   0.00000  Uiso   1.00
H123   H     0.09975   0.34394   0.58292   0.00000  Uiso   1.00
H124   H     0.00979   0.43592   0.57628   0.00000  Uiso   1.00
H125   H     0.04421   0.19741   0.51351   0.00000  Uiso   1.00
H126   H     0.24819   0.40142   0.63906   0.00000  Uiso   1.00
H127   H     0.90538   0.53318   0.60028   0.00000  Uiso   1.00
H128   H     0.97798   0.03028   0.46792   0.00000  Uiso   1.00
H129   H     0.40811   0.46047   0.73268   0.00000  Uiso   1.00
O130   O     0.83019   0.57760   0.70377   0.00000  Uiso   1.00
O131   O     0.92545   0.91782   0.53012   0.00000  Uiso   1.00
O132   O     0.48977   0.48222   0.87749   0.00000  Uiso   1.00
N133   N     0.89427   0.49700   0.75949   0.00000  Uiso   1.00
N134   N     0.96214   0.02683   0.63574   0.00000  Uiso   1.00
N135   N     0.36428   0.42900   0.88327   0.00000  Uiso   1.00
N136   N     0.91078   0.51359   0.64810   0.00000  Uiso   1.00
N137   N     0.97865   0.04341   0.52435   0.00000  Uiso   1.00
N138   N     0.38079   0.44558   0.77188   0.00000  Uiso   1.00
C139   C     0.26934   0.81626   0.57223   0.00000  Uiso   1.00
C140   C     0.23947   0.87016   0.52718   0.00000  Uiso   1.00
C141   C     0.27634   0.90626   0.48008   0.00000  Uiso   1.00
C142   C     0.23957   0.95336   0.44387   0.00000  Uiso   1.00
C143   C     0.20399   0.03541   0.37229   0.00000  Uiso   1.00
C144   C     0.20532   0.74054   0.54598   0.00000  Uiso   1.00
C145   C     0.21347   0.66768   0.51470   0.00000  Uiso   1.00
C146   C     0.14795   0.60566   0.49433   0.00000  Uiso   1.00
C147   C     0.05936   0.48649   0.45198   0.00000  Uiso   1.00
C148   C     0.27355   0.85137   0.65685   0.00000  Uiso   1.00
C149   C     0.33907   0.87167   0.71880   0.00000  Uiso   1.00
C150   C     0.33099   0.90295   0.79177   0.00000  Uiso   1.00
C151   C     0.34834   0.95585   0.92156   0.00000  Uiso   1.00
C152   C     0.13850   0.83568   0.59168   0.00000  Uiso   1.00
C153   C     0.16841   0.88070   0.53774   0.00000  Uiso   1.00
C154   C     0.13158   0.92776   0.50160   0.00000  Uiso   1.00
C155   C     0.16838   0.96393   0.45446   0.00000  Uiso   1.00
C156   C     0.13425   0.75109   0.55654   0.00000  Uiso   1.00
C157   C     0.06871   0.68917   0.53621   0.00000  Uiso   1.00
C158   C     0.07676   0.61623   0.50491   0.00000  Uiso   1.00
C159   C     0.20248   0.86192   0.66741   0.00000  Uiso   1.00
C160   C     0.19431   0.89317   0.74031   0.00000  Uiso   1.00
C161   C     0.25979   0.91351   0.80235   0.00000  Uiso   1.00
H162   H     0.32466   0.80804   0.56400   0.00000  Uiso   1.00
H163   H     0.33133   0.89808   0.47192   0.00000  Uiso   1.00
H164   H     0.26847   0.65953   0.50654   0.00000  Uiso   1.00
H165   H     0.39405   0.86350   0.71060   0.00000  Uiso   1.00
H166   H     0.30736   0.00254   0.37446   0.00000  Uiso   1.00
H167   H     0.17484   0.49954   0.44748   0.00000  Uiso   1.00
H168   H     0.43964   0.92964   0.87779   0.00000  Uiso   1.00
H169   H     0.08317   0.84389   0.59990   0.00000  Uiso   1.00
H170   H     0.07658   0.93591   0.50978   0.00000  Uiso   1.00
H171   H     0.01373   0.69735   0.54440   0.00000  Uiso   1.00
H172   H     0.13930   0.90132   0.74846   0.00000  Uiso   1.00
H173   H     0.10060   0.03324   0.40519   0.00000  Uiso   1.00
H174   H     0.96807   0.53024   0.47821   0.00000  Uiso   1.00
H175   H     0.23288   0.96034   0.90852   0.00000  Uiso   1.00
O176   O     0.20399   0.07775   0.32987   0.00000  Uiso   1.00
O177   O     0.03013   0.41784   0.42569   0.00000  Uiso   1.00
O178   O     0.37754   0.98212   0.99024   0.00000  Uiso   1.00
N179   N     0.25961   0.99715   0.39407   0.00000  Uiso   1.00
N180   N     0.13571   0.52688   0.46233   0.00000  Uiso   1.00
N181   N     0.38327   0.92897   0.86463   0.00000  Uiso   1.00
N182   N     0.14835   0.01367   0.41061   0.00000  Uiso   1.00
N183   N     0.02445   0.54340   0.47887   0.00000  Uiso   1.00
N184   N     0.27201   0.94549   0.88117   0.00000  Uiso   1.00
C185   C     0.81628   0.57219   0.26937   0.00000  Uiso   1.00
C186   C     0.87013   0.52720   0.23946   0.00000  Uiso   1.00
C187   C     0.90618   0.48014   0.27637   0.00000  Uiso   1.00
C188   C     0.95323   0.44398   0.23956   0.00000  Uiso   1.00
C189   C     0.03520   0.37248   0.20394   0.00000  Uiso   1.00
C190   C     0.74062   0.54592   0.20531   0.00000  Uiso   1.00
C191   C     0.66777   0.51462   0.21351   0.00000  Uiso   1.00
C192   C     0.60580   0.49423   0.14796   0.00000  Uiso   1.00
C193   C     0.48669   0.45186   0.05933   0.00000  Uiso   1.00
C194   C     0.85143   0.65679   0.27354   0.00000  Uiso   1.00
C195   C     0.87174   0.71870   0.33909   0.00000  Uiso   1.00
C196   C     0.90304   0.79166   0.33097   0.00000  Uiso   1.00
C197   C     0.95598   0.92142   0.34827   0.00000  Uiso   1.00
C198   C     0.83573   0.59167   0.13836   0.00000  Uiso   1.00
C199   C     0.88069   0.53778   0.16831   0.00000  Uiso   1.00
C200   C     0.92770   0.50169   0.13143   0.00000  Uiso   1.00
C201   C     0.96381   0.45458   0.16828   0.00000  Uiso   1.00
C202   C     0.75117   0.55650   0.13416   0.00000  Uiso   1.00
C203   C     0.68929   0.53616   0.06858   0.00000  Uiso   1.00
C204   C     0.61638   0.50483   0.07667   0.00000  Uiso   1.00
C205   C     0.86199   0.66737   0.20238   0.00000  Uiso   1.00
C206   C     0.89326   0.74025   0.19416   0.00000  Uiso   1.00
C207   C     0.91362   0.80226   0.25969   0.00000  Uiso   1.00
H208   H     0.80805   0.56395   0.32476   0.00000  Uiso   1.00
H209   H     0.89799   0.47196   0.33143   0.00000  Uiso   1.00
H210   H     0.65962   0.50644   0.26859   0.00000  Uiso   1.00
H211   H     0.86356   0.71049   0.39414   0.00000  Uiso   1.00
H212   H     0.00233   0.37461   0.30744   0.00000  Uiso   1.00
H213   H     0.49971   0.44735   0.17493   0.00000  Uiso   1.00
H214   H     0.92975   0.87763   0.43970   0.00000  Uiso   1.00
H215   H     0.84395   0.59990   0.08296   0.00000  Uiso   1.00
H216   H     0.93586   0.50988   0.07637   0.00000  Uiso   1.00
H217   H     0.69749   0.54436   0.01353   0.00000  Uiso   1.00
H218   H     0.90142   0.74841   0.13908   0.00000  Uiso   1.00
H219   H     0.03306   0.40539   0.10042   0.00000  Uiso   1.00
H220   H     0.53044   0.47812   0.96791   0.00000  Uiso   1.00
H221   H     0.96049   0.90840   0.23268   0.00000  Uiso   1.00
O222   O     0.07748   0.33011   0.20394   0.00000  Uiso   1.00
O223   O     0.41807   0.42555   0.03010   0.00000  Uiso   1.00
O224   O     0.98228   0.99006   0.37747   0.00000  Uiso   1.00
N225   N     0.99696   0.39422   0.25963   0.00000  Uiso   1.00
N226   N     0.52705   0.46221   0.13574   0.00000  Uiso   1.00
N227   N     0.92908   0.86449   0.38327   0.00000  Uiso   1.00
N228   N     0.01350   0.41078   0.14823   0.00000  Uiso   1.00
N229   N     0.54358   0.47877   0.02434   0.00000  Uiso   1.00
N230   N     0.94562   0.88105   0.27187   0.00000  Uiso   1.00
C231   C     0.57212   0.26931   0.81617   0.00000  Uiso   1.00
C232   C     0.52713   0.23939   0.87010   0.00000  Uiso   1.00
C233   C     0.48012   0.27624   0.90620   0.00000  Uiso   1.00
C234   C     0.44395   0.23942   0.95333   0.00000  Uiso   1.00
C235   C     0.37246   0.20376   0.03543   0.00000  Uiso   1.00
C236   C     0.54585   0.20529   0.74045   0.00000  Uiso   1.00
C237   C     0.51458   0.21349   0.66754   0.00000  Uiso   1.00
C238   C     0.49418   0.14796   0.60552   0.00000  Uiso   1.00
C239   C     0.45180   0.05938   0.48633   0.00000  Uiso   1.00
C240   C     0.65666   0.27352   0.85132   0.00000  Uiso   1.00
C241   C     0.71858   0.33908   0.87160   0.00000  Uiso   1.00
C242   C     0.79148   0.33099   0.90291   0.00000  Uiso   1.00
C243   C     0.92115   0.34834   0.95586   0.00000  Uiso   1.00
C244   C     0.59151   0.13838   0.83568   0.00000  Uiso   1.00
C245   C     0.53766   0.16827   0.88070   0.00000  Uiso   1.00
C246   C     0.50156   0.13138   0.92779   0.00000  Uiso   1.00
C247   C     0.45450   0.16818   0.96395   0.00000  Uiso   1.00
C248   C     0.55638   0.13418   0.75104   0.00000  Uiso   1.00
C249   C     0.53602   0.06863   0.68912   0.00000  Uiso   1.00
C250   C     0.50473   0.07671   0.61614   0.00000  Uiso   1.00
C251   C     0.66719   0.20241   0.86192   0.00000  Uiso   1.00
C252   C     0.74002   0.19422   0.89319   0.00000  Uiso   1.00
C253   C     0.80203   0.25975   0.91353   0.00000  Uiso   1.00
H254   H     0.56393   0.32468   0.80791   0.00000  Uiso   1.00
H255   H     0.47198   0.33128   0.89798   0.00000  Uiso   1.00
H256   H     0.50645   0.26853   0.65935   0.00000  Uiso   1.00
H257   H     0.71041   0.39410   0.86339   0.00000  Uiso   1.00
H258   H     0.37466   0.30722   0.00248   0.00000  Uiso   1.00
H259   H     0.44736   0.17492   0.49933   0.00000  Uiso   1.00
H260   H     0.87745   0.43971   0.92958   0.00000  Uiso   1.00
H261   H     0.59970   0.08301   0.84393   0.00000  Uiso   1.00
H262   H     0.50972   0.07635   0.93597   0.00000  Uiso   1.00
H263   H     0.54418   0.01360   0.69735   0.00000  Uiso   1.00
H264   H     0.74814   0.13918   0.90138   0.00000  Uiso   1.00
H265   H     0.40529   0.10031   0.03332   0.00000  Uiso   1.00
H266   H     0.47799   0.96801   0.53016   0.00000  Uiso   1.00
H267   H     0.90808   0.23280   0.96042   0.00000  Uiso   1.00
O268   O     0.33011   0.20373   0.07778   0.00000  Uiso   1.00
O269   O     0.42551   0.03016   0.41766   0.00000  Uiso   1.00
O270   O     0.98977   0.37756   0.98214   0.00000  Uiso   1.00
N271   N     0.39423   0.25944   0.99712   0.00000  Uiso   1.00
N272   N     0.46219   0.13575   0.52670   0.00000  Uiso   1.00
N273   N     0.86429   0.38330   0.92893   0.00000  Uiso   1.00
N274   N     0.41071   0.14811   0.01371   0.00000  Uiso   1.00
N275   N     0.47867   0.02441   0.54329   0.00000  Uiso   1.00
N276   N     0.88077   0.27197   0.94553   0.00000  Uiso   1.00
