data_job_01331
_audit_creation_date              2018-12-19
_audit_creation_method            'Materials Studio'
_symmetry_space_group_name_H-M    'P1'
_symmetry_Int_Tables_number       1
_symmetry_cell_setting            triclinic
loop_
_symmetry_equiv_pos_as_xyz
  x,y,z
_cell_length_a                    23.1154
_cell_length_b                    12.4423
_cell_length_c                    22.6319
_cell_angle_alpha                 90.0000
_cell_angle_beta                  89.5276
_cell_angle_gamma                 90.0000
loop_
_atom_site_label
_atom_site_type_symbol
_atom_site_fract_x
_atom_site_fract_y
_atom_site_fract_z
_atom_site_U_iso_or_equiv
_atom_site_adp_type
_atom_site_occupancy
C1     C     0.67764   0.58905   0.88967   0.00000  Uiso   1.00
C2     C     0.63220   0.67740   0.89529   0.00000  Uiso   1.00
C3     C     0.64095   0.77852   0.91949   0.00000  Uiso   1.00
C4     C     0.59389   0.84786   0.92058   0.00000  Uiso   1.00
C5     C     0.53152   0.98971   0.93272   0.00000  Uiso   1.00
C6     C     0.65244   0.49122   0.92127   0.00000  Uiso   1.00
C7     C     0.67821   0.43580   0.96731   0.00000  Uiso   1.00
C8     C     0.64819   0.34840   0.99026   0.00000  Uiso   1.00
C9     C     0.61727   0.20115   0.04271   0.00000  Uiso   1.00
C10    C     0.68035   0.55968   0.82430   0.00000  Uiso   1.00
C11    C     0.72958   0.56180   0.78880   0.00000  Uiso   1.00
C12    C     0.72306   0.53202   0.73010   0.00000  Uiso   1.00
C13    C     0.73545   0.49107   0.63199   0.00000  Uiso   1.00
C14    C     0.57852   0.53236   0.84856   0.00000  Uiso   1.00
C15    C     0.57837   0.64660   0.87296   0.00000  Uiso   1.00
C16    C     0.53128   0.71581   0.87401   0.00000  Uiso   1.00
C17    C     0.53996   0.81702   0.89821   0.00000  Uiso   1.00
C18    C     0.59861   0.46043   0.89894   0.00000  Uiso   1.00
C19    C     0.56855   0.37308   0.92183   0.00000  Uiso   1.00
C20    C     0.59426   0.31755   0.96789   0.00000  Uiso   1.00
C21    C     0.62651   0.52889   0.80196   0.00000  Uiso   1.00
C22    C     0.61991   0.49909   0.74332   0.00000  Uiso   1.00
C23    C     0.66912   0.50117   0.70774   0.00000  Uiso   1.00
H24    H     0.71955   0.61301   0.90706   0.00000  Uiso   1.00
H25    H     0.68262   0.80232   0.93677   0.00000  Uiso   1.00
H26    H     0.71987   0.45964   0.98458   0.00000  Uiso   1.00
H27    H     0.77123   0.58563   0.80609   0.00000  Uiso   1.00
H28    H     0.61792   0.99861   0.95989   0.00000  Uiso   1.00
H29    H     0.69649   0.27603   0.06067   0.00000  Uiso   1.00
H30    H     0.80479   0.54169   0.68431   0.00000  Uiso   1.00
H31    H     0.53661   0.50839   0.83118   0.00000  Uiso   1.00
H32    H     0.48963   0.69196   0.85672   0.00000  Uiso   1.00
H33    H     0.52689   0.34928   0.90453   0.00000  Uiso   1.00
H34    H     0.57824   0.47527   0.72605   0.00000  Uiso   1.00
H35    H     0.46128   0.90903   0.89492   0.00000  Uiso   1.00
H36    H     0.53985   0.18645   0.99571   0.00000  Uiso   1.00
H37    H     0.64815   0.45212   0.61934   0.00000  Uiso   1.00
O38    O     0.51199   0.07645   0.94560   0.00000  Uiso   1.00
O39    O     0.61508   0.12845   0.07781   0.00000  Uiso   1.00
O40    O     0.75716   0.47700   0.58403   0.00000  Uiso   1.00
N41    N     0.58750   0.95234   0.94108   0.00000  Uiso   1.00
N42    N     0.66096   0.27678   0.03531   0.00000  Uiso   1.00
N43    N     0.76221   0.52513   0.68345   0.00000  Uiso   1.00
N44    N     0.50322   0.90414   0.90612   0.00000  Uiso   1.00
N45    N     0.57667   0.22858   0.00036   0.00000  Uiso   1.00
N46    N     0.67793   0.47693   0.64849   0.00000  Uiso   1.00
C47    C     0.15569   0.18559   0.10146   0.00000  Uiso   1.00
C48    C     0.10796   0.10258   0.09285   0.00000  Uiso   1.00
C49    C     0.11371   0.00571   0.06298   0.00000  Uiso   1.00
C50    C     0.06492   0.94092   0.05996   0.00000  Uiso   1.00
C51    C     0.99880   0.80734   0.04261   0.00000  Uiso   1.00
C52    C     0.13253   0.29065   0.07628   0.00000  Uiso   1.00
C53    C     0.15894   0.35192   0.03248   0.00000  Uiso   1.00
C54    C     0.13084   0.44545   0.01553   0.00000  Uiso   1.00
C55    C     0.10288   0.60389   0.97249   0.00000  Uiso   1.00
C56    C     0.16021   0.20272   0.16798   0.00000  Uiso   1.00
C57    C     0.20989   0.19008   0.20128   0.00000  Uiso   1.00
C58    C     0.20509   0.20960   0.26153   0.00000  Uiso   1.00
C59    C     0.22011   0.23151   0.36087   0.00000  Uiso   1.00
C60    C     0.05883   0.24277   0.14922   0.00000  Uiso   1.00
C61    C     0.05535   0.13365   0.11879   0.00000  Uiso   1.00
C62    C     0.00654   0.06898   0.11582   0.00000  Uiso   1.00
C63    C     0.01221   0.97203   0.08595   0.00000  Uiso   1.00
C64    C     0.07992   0.32172   0.10222   0.00000  Uiso   1.00
C65    C     0.05178   0.41519   0.08533   0.00000  Uiso   1.00
C66    C     0.07813   0.47657   0.04152   0.00000  Uiso   1.00
C67    C     0.10760   0.23378   0.19392   0.00000  Uiso   1.00
C68    C     0.10272   0.25334   0.25413   0.00000  Uiso   1.00
C69    C     0.15239   0.24072   0.28752   0.00000  Uiso   1.00
H70    H     0.19665   0.16141   0.08126   0.00000  Uiso   1.00
H71    H     0.15443   0.98171   0.04290   0.00000  Uiso   1.00
H72    H     0.19965   0.32786   0.01242   0.00000  Uiso   1.00
H73    H     0.25059   0.16604   0.18119   0.00000  Uiso   1.00
H74    H     0.08441   0.79619   0.01179   0.00000  Uiso   1.00
H75    H     0.17978   0.52610   0.94754   0.00000  Uiso   1.00
H76    H     0.28720   0.18486   0.30343   0.00000  Uiso   1.00
H77    H     0.01787   0.26696   0.16942   0.00000  Uiso   1.00
H78    H     0.96584   0.09304   0.13590   0.00000  Uiso   1.00
H79    H     0.01107   0.43920   0.10542   0.00000  Uiso   1.00
H80    H     0.06200   0.27737   0.27419   0.00000  Uiso   1.00
H81    H     0.93134   0.88656   0.08727   0.00000  Uiso   1.00
H82    H     0.02672   0.61647   0.02302   0.00000  Uiso   1.00
H83    H     0.13413   0.27523   0.37890   0.00000  Uiso   1.00
O84    O     0.97686   0.72508   0.02587   0.00000  Uiso   1.00
O85    O     0.10200   0.68270   0.94158   0.00000  Uiso   1.00
O86    O     0.24292   0.23499   0.40850   0.00000  Uiso   1.00
N87    N     0.05553   0.84132   0.03417   0.00000  Uiso   1.00
N88    N     0.14469   0.52373   0.97408   0.00000  Uiso   1.00
N89    N     0.24512   0.20473   0.30681   0.00000  Uiso   1.00
N90    N     0.97316   0.88994   0.07478   0.00000  Uiso   1.00
N91    N     0.06233   0.57235   0.01470   0.00000  Uiso   1.00
N92    N     0.16276   0.25335   0.34742   0.00000  Uiso   1.00
C93    C     0.32236   0.58905   0.61033   0.00000  Uiso   1.00
C94    C     0.36780   0.67740   0.60471   0.00000  Uiso   1.00
C95    C     0.35905   0.77852   0.58051   0.00000  Uiso   1.00
C96    C     0.40611   0.84786   0.57942   0.00000  Uiso   1.00
C97    C     0.46848   0.98971   0.56728   0.00000  Uiso   1.00
C98    C     0.34756   0.49122   0.57873   0.00000  Uiso   1.00
C99    C     0.32179   0.43580   0.53269   0.00000  Uiso   1.00
C100   C     0.35181   0.34840   0.50974   0.00000  Uiso   1.00
C101   C     0.38273   0.20115   0.45729   0.00000  Uiso   1.00
C102   C     0.31965   0.55968   0.67570   0.00000  Uiso   1.00
C103   C     0.27042   0.56180   0.71120   0.00000  Uiso   1.00
C104   C     0.27694   0.53202   0.76990   0.00000  Uiso   1.00
C105   C     0.26455   0.49107   0.86801   0.00000  Uiso   1.00
C106   C     0.42148   0.53236   0.65144   0.00000  Uiso   1.00
C107   C     0.42163   0.64660   0.62704   0.00000  Uiso   1.00
C108   C     0.46872   0.71581   0.62599   0.00000  Uiso   1.00
C109   C     0.46004   0.81702   0.60179   0.00000  Uiso   1.00
C110   C     0.40139   0.46043   0.60106   0.00000  Uiso   1.00
C111   C     0.43145   0.37308   0.57817   0.00000  Uiso   1.00
C112   C     0.40574   0.31755   0.53211   0.00000  Uiso   1.00
C113   C     0.37349   0.52889   0.69804   0.00000  Uiso   1.00
C114   C     0.38009   0.49909   0.75668   0.00000  Uiso   1.00
C115   C     0.33088   0.50117   0.79226   0.00000  Uiso   1.00
H116   H     0.28045   0.61301   0.59294   0.00000  Uiso   1.00
H117   H     0.31738   0.80232   0.56323   0.00000  Uiso   1.00
H118   H     0.28013   0.45964   0.51542   0.00000  Uiso   1.00
H119   H     0.22877   0.58563   0.69391   0.00000  Uiso   1.00
H120   H     0.38208   0.99861   0.54011   0.00000  Uiso   1.00
H121   H     0.30351   0.27603   0.43933   0.00000  Uiso   1.00
H122   H     0.19521   0.54169   0.81569   0.00000  Uiso   1.00
H123   H     0.46339   0.50839   0.66882   0.00000  Uiso   1.00
H124   H     0.51037   0.69196   0.64328   0.00000  Uiso   1.00
H125   H     0.47311   0.34928   0.59547   0.00000  Uiso   1.00
H126   H     0.42176   0.47527   0.77395   0.00000  Uiso   1.00
H127   H     0.53872   0.90903   0.60508   0.00000  Uiso   1.00
H128   H     0.46015   0.18645   0.50429   0.00000  Uiso   1.00
H129   H     0.35185   0.45212   0.88066   0.00000  Uiso   1.00
O130   O     0.48801   0.07645   0.55440   0.00000  Uiso   1.00
O131   O     0.38492   0.12845   0.42219   0.00000  Uiso   1.00
O132   O     0.24284   0.47700   0.91597   0.00000  Uiso   1.00
N133   N     0.41250   0.95234   0.55892   0.00000  Uiso   1.00
N134   N     0.33904   0.27678   0.46469   0.00000  Uiso   1.00
N135   N     0.23779   0.52513   0.81655   0.00000  Uiso   1.00
N136   N     0.49678   0.90414   0.59388   0.00000  Uiso   1.00
N137   N     0.42333   0.22858   0.49964   0.00000  Uiso   1.00
N138   N     0.32207   0.47693   0.85151   0.00000  Uiso   1.00
C139   C     0.84431   0.18559   0.39854   0.00000  Uiso   1.00
C140   C     0.89204   0.10258   0.40715   0.00000  Uiso   1.00
C141   C     0.88629   0.00571   0.43702   0.00000  Uiso   1.00
C142   C     0.93508   0.94092   0.44004   0.00000  Uiso   1.00
C143   C     0.00120   0.80734   0.45739   0.00000  Uiso   1.00
C144   C     0.86747   0.29065   0.42372   0.00000  Uiso   1.00
C145   C     0.84106   0.35192   0.46752   0.00000  Uiso   1.00
C146   C     0.86916   0.44545   0.48447   0.00000  Uiso   1.00
C147   C     0.89712   0.60389   0.52751   0.00000  Uiso   1.00
C148   C     0.83979   0.20272   0.33202   0.00000  Uiso   1.00
C149   C     0.79011   0.19008   0.29872   0.00000  Uiso   1.00
C150   C     0.79491   0.20960   0.23847   0.00000  Uiso   1.00
C151   C     0.77989   0.23151   0.13913   0.00000  Uiso   1.00
C152   C     0.94117   0.24277   0.35078   0.00000  Uiso   1.00
C153   C     0.94465   0.13365   0.38121   0.00000  Uiso   1.00
C154   C     0.99346   0.06898   0.38418   0.00000  Uiso   1.00
C155   C     0.98779   0.97203   0.41405   0.00000  Uiso   1.00
C156   C     0.92008   0.32172   0.39778   0.00000  Uiso   1.00
C157   C     0.94822   0.41519   0.41467   0.00000  Uiso   1.00
C158   C     0.92187   0.47657   0.45848   0.00000  Uiso   1.00
C159   C     0.89240   0.23378   0.30608   0.00000  Uiso   1.00
C160   C     0.89728   0.25334   0.24587   0.00000  Uiso   1.00
C161   C     0.84761   0.24072   0.21248   0.00000  Uiso   1.00
H162   H     0.80335   0.16141   0.41874   0.00000  Uiso   1.00
H163   H     0.84557   0.98171   0.45710   0.00000  Uiso   1.00
H164   H     0.80035   0.32786   0.48758   0.00000  Uiso   1.00
H165   H     0.74941   0.16604   0.31881   0.00000  Uiso   1.00
H166   H     0.91559   0.79619   0.48821   0.00000  Uiso   1.00
H167   H     0.82022   0.52610   0.55246   0.00000  Uiso   1.00
H168   H     0.71280   0.18486   0.19657   0.00000  Uiso   1.00
H169   H     0.98213   0.26696   0.33058   0.00000  Uiso   1.00
H170   H     0.03416   0.09304   0.36410   0.00000  Uiso   1.00
H171   H     0.98893   0.43920   0.39458   0.00000  Uiso   1.00
H172   H     0.93800   0.27737   0.22581   0.00000  Uiso   1.00
H173   H     0.06866   0.88656   0.41273   0.00000  Uiso   1.00
H174   H     0.97328   0.61647   0.47698   0.00000  Uiso   1.00
H175   H     0.86587   0.27523   0.12110   0.00000  Uiso   1.00
O176   O     0.02314   0.72508   0.47413   0.00000  Uiso   1.00
O177   O     0.89800   0.68270   0.55842   0.00000  Uiso   1.00
O178   O     0.75708   0.23499   0.09150   0.00000  Uiso   1.00
N179   N     0.94447   0.84132   0.46583   0.00000  Uiso   1.00
N180   N     0.85531   0.52373   0.52592   0.00000  Uiso   1.00
N181   N     0.75488   0.20473   0.19319   0.00000  Uiso   1.00
N182   N     0.02684   0.88994   0.42522   0.00000  Uiso   1.00
N183   N     0.93767   0.57235   0.48530   0.00000  Uiso   1.00
N184   N     0.83724   0.25335   0.15258   0.00000  Uiso   1.00
C185   C     0.32236   0.41095   0.11033   0.00000  Uiso   1.00
C186   C     0.36780   0.32260   0.10471   0.00000  Uiso   1.00
C187   C     0.35905   0.22148   0.08051   0.00000  Uiso   1.00
C188   C     0.40611   0.15214   0.07942   0.00000  Uiso   1.00
C189   C     0.46848   0.01029   0.06728   0.00000  Uiso   1.00
C190   C     0.34756   0.50878   0.07873   0.00000  Uiso   1.00
C191   C     0.32179   0.56420   0.03269   0.00000  Uiso   1.00
C192   C     0.35181   0.65160   0.00974   0.00000  Uiso   1.00
C193   C     0.38273   0.79885   0.95729   0.00000  Uiso   1.00
C194   C     0.31965   0.44032   0.17570   0.00000  Uiso   1.00
C195   C     0.27042   0.43820   0.21120   0.00000  Uiso   1.00
C196   C     0.27694   0.46798   0.26990   0.00000  Uiso   1.00
C197   C     0.26455   0.50893   0.36801   0.00000  Uiso   1.00
C198   C     0.42148   0.46764   0.15144   0.00000  Uiso   1.00
C199   C     0.42163   0.35340   0.12704   0.00000  Uiso   1.00
C200   C     0.46872   0.28419   0.12599   0.00000  Uiso   1.00
C201   C     0.46004   0.18298   0.10179   0.00000  Uiso   1.00
C202   C     0.40139   0.53957   0.10106   0.00000  Uiso   1.00
C203   C     0.43145   0.62692   0.07817   0.00000  Uiso   1.00
C204   C     0.40574   0.68245   0.03211   0.00000  Uiso   1.00
C205   C     0.37349   0.47111   0.19804   0.00000  Uiso   1.00
C206   C     0.38009   0.50091   0.25668   0.00000  Uiso   1.00
C207   C     0.33088   0.49883   0.29226   0.00000  Uiso   1.00
H208   H     0.28045   0.38699   0.09294   0.00000  Uiso   1.00
H209   H     0.31738   0.19768   0.06323   0.00000  Uiso   1.00
H210   H     0.28013   0.54036   0.01542   0.00000  Uiso   1.00
H211   H     0.22877   0.41437   0.19391   0.00000  Uiso   1.00
H212   H     0.38208   0.00139   0.04011   0.00000  Uiso   1.00
H213   H     0.30351   0.72397   0.93933   0.00000  Uiso   1.00
H214   H     0.19521   0.45831   0.31569   0.00000  Uiso   1.00
H215   H     0.46339   0.49161   0.16882   0.00000  Uiso   1.00
H216   H     0.51037   0.30804   0.14328   0.00000  Uiso   1.00
H217   H     0.47311   0.65072   0.09547   0.00000  Uiso   1.00
H218   H     0.42176   0.52473   0.27395   0.00000  Uiso   1.00
H219   H     0.53872   0.09097   0.10508   0.00000  Uiso   1.00
H220   H     0.46015   0.81355   0.00429   0.00000  Uiso   1.00
H221   H     0.35185   0.54788   0.38066   0.00000  Uiso   1.00
O222   O     0.48801   0.92355   0.05440   0.00000  Uiso   1.00
O223   O     0.38492   0.87155   0.92219   0.00000  Uiso   1.00
O224   O     0.24284   0.52300   0.41597   0.00000  Uiso   1.00
N225   N     0.41250   0.04766   0.05892   0.00000  Uiso   1.00
N226   N     0.33904   0.72322   0.96469   0.00000  Uiso   1.00
N227   N     0.23779   0.47487   0.31655   0.00000  Uiso   1.00
N228   N     0.49678   0.09586   0.09388   0.00000  Uiso   1.00
N229   N     0.42333   0.77142   0.99964   0.00000  Uiso   1.00
N230   N     0.32207   0.52307   0.35151   0.00000  Uiso   1.00
C231   C     0.84431   0.81441   0.89854   0.00000  Uiso   1.00
C232   C     0.89204   0.89742   0.90715   0.00000  Uiso   1.00
C233   C     0.88629   0.99429   0.93702   0.00000  Uiso   1.00
C234   C     0.93508   0.05908   0.94004   0.00000  Uiso   1.00
C235   C     0.00120   0.19266   0.95739   0.00000  Uiso   1.00
C236   C     0.86747   0.70935   0.92372   0.00000  Uiso   1.00
C237   C     0.84106   0.64808   0.96752   0.00000  Uiso   1.00
C238   C     0.86916   0.55455   0.98447   0.00000  Uiso   1.00
C239   C     0.89712   0.39611   0.02751   0.00000  Uiso   1.00
C240   C     0.83979   0.79728   0.83202   0.00000  Uiso   1.00
C241   C     0.79011   0.80992   0.79872   0.00000  Uiso   1.00
C242   C     0.79491   0.79040   0.73847   0.00000  Uiso   1.00
C243   C     0.77989   0.76849   0.63913   0.00000  Uiso   1.00
C244   C     0.94117   0.75723   0.85078   0.00000  Uiso   1.00
C245   C     0.94465   0.86635   0.88121   0.00000  Uiso   1.00
C246   C     0.99346   0.93102   0.88418   0.00000  Uiso   1.00
C247   C     0.98779   0.02797   0.91405   0.00000  Uiso   1.00
C248   C     0.92008   0.67828   0.89778   0.00000  Uiso   1.00
C249   C     0.94822   0.58481   0.91467   0.00000  Uiso   1.00
C250   C     0.92187   0.52343   0.95848   0.00000  Uiso   1.00
C251   C     0.89240   0.76622   0.80608   0.00000  Uiso   1.00
C252   C     0.89728   0.74666   0.74587   0.00000  Uiso   1.00
C253   C     0.84761   0.75928   0.71248   0.00000  Uiso   1.00
H254   H     0.80335   0.83859   0.91874   0.00000  Uiso   1.00
H255   H     0.84557   0.01829   0.95710   0.00000  Uiso   1.00
H256   H     0.80035   0.67214   0.98758   0.00000  Uiso   1.00
H257   H     0.74941   0.83396   0.81881   0.00000  Uiso   1.00
H258   H     0.91559   0.20381   0.98821   0.00000  Uiso   1.00
H259   H     0.82022   0.47390   0.05246   0.00000  Uiso   1.00
H260   H     0.71280   0.81514   0.69657   0.00000  Uiso   1.00
H261   H     0.98213   0.73304   0.83058   0.00000  Uiso   1.00
H262   H     0.03416   0.90696   0.86410   0.00000  Uiso   1.00
H263   H     0.98893   0.56080   0.89458   0.00000  Uiso   1.00
H264   H     0.93800   0.72263   0.72581   0.00000  Uiso   1.00
H265   H     0.06866   0.11344   0.91273   0.00000  Uiso   1.00
H266   H     0.97328   0.38353   0.97698   0.00000  Uiso   1.00
H267   H     0.86587   0.72477   0.62110   0.00000  Uiso   1.00
O268   O     0.02314   0.27492   0.97413   0.00000  Uiso   1.00
O269   O     0.89800   0.31730   0.05842   0.00000  Uiso   1.00
O270   O     0.75708   0.76501   0.59150   0.00000  Uiso   1.00
N271   N     0.94447   0.15868   0.96583   0.00000  Uiso   1.00
N272   N     0.85531   0.47627   0.02592   0.00000  Uiso   1.00
N273   N     0.75488   0.79527   0.69319   0.00000  Uiso   1.00
N274   N     0.02684   0.11006   0.92522   0.00000  Uiso   1.00
N275   N     0.93767   0.42765   0.98530   0.00000  Uiso   1.00
N276   N     0.83724   0.74665   0.65258   0.00000  Uiso   1.00
C277   C     0.67764   0.41095   0.38967   0.00000  Uiso   1.00
C278   C     0.63220   0.32260   0.39529   0.00000  Uiso   1.00
C279   C     0.64095   0.22148   0.41949   0.00000  Uiso   1.00
C280   C     0.59389   0.15214   0.42058   0.00000  Uiso   1.00
C281   C     0.53152   0.01029   0.43272   0.00000  Uiso   1.00
C282   C     0.65244   0.50878   0.42127   0.00000  Uiso   1.00
C283   C     0.67821   0.56420   0.46731   0.00000  Uiso   1.00
C284   C     0.64819   0.65160   0.49026   0.00000  Uiso   1.00
C285   C     0.61727   0.79885   0.54271   0.00000  Uiso   1.00
C286   C     0.68035   0.44032   0.32430   0.00000  Uiso   1.00
C287   C     0.72958   0.43820   0.28880   0.00000  Uiso   1.00
C288   C     0.72306   0.46798   0.23010   0.00000  Uiso   1.00
C289   C     0.73545   0.50893   0.13199   0.00000  Uiso   1.00
C290   C     0.57852   0.46764   0.34856   0.00000  Uiso   1.00
C291   C     0.57837   0.35340   0.37296   0.00000  Uiso   1.00
C292   C     0.53128   0.28419   0.37401   0.00000  Uiso   1.00
C293   C     0.53996   0.18298   0.39821   0.00000  Uiso   1.00
C294   C     0.59861   0.53957   0.39894   0.00000  Uiso   1.00
C295   C     0.56855   0.62692   0.42183   0.00000  Uiso   1.00
C296   C     0.59426   0.68245   0.46789   0.00000  Uiso   1.00
C297   C     0.62651   0.47111   0.30196   0.00000  Uiso   1.00
C298   C     0.61991   0.50091   0.24332   0.00000  Uiso   1.00
C299   C     0.66912   0.49883   0.20774   0.00000  Uiso   1.00
H300   H     0.71955   0.38699   0.40706   0.00000  Uiso   1.00
H301   H     0.68262   0.19768   0.43677   0.00000  Uiso   1.00
H302   H     0.71987   0.54036   0.48458   0.00000  Uiso   1.00
H303   H     0.77123   0.41437   0.30609   0.00000  Uiso   1.00
H304   H     0.61792   0.00139   0.45989   0.00000  Uiso   1.00
H305   H     0.69649   0.72397   0.56067   0.00000  Uiso   1.00
H306   H     0.80479   0.45831   0.18431   0.00000  Uiso   1.00
H307   H     0.53661   0.49161   0.33118   0.00000  Uiso   1.00
H308   H     0.48963   0.30804   0.35672   0.00000  Uiso   1.00
H309   H     0.52689   0.65072   0.40453   0.00000  Uiso   1.00
H310   H     0.57824   0.52473   0.22605   0.00000  Uiso   1.00
H311   H     0.46128   0.09097   0.39492   0.00000  Uiso   1.00
H312   H     0.53985   0.81355   0.49571   0.00000  Uiso   1.00
H313   H     0.64815   0.54788   0.11934   0.00000  Uiso   1.00
O314   O     0.51199   0.92355   0.44560   0.00000  Uiso   1.00
O315   O     0.61508   0.87155   0.57781   0.00000  Uiso   1.00
O316   O     0.75716   0.52300   0.08403   0.00000  Uiso   1.00
N317   N     0.58750   0.04766   0.44108   0.00000  Uiso   1.00
N318   N     0.66096   0.72322   0.53531   0.00000  Uiso   1.00
N319   N     0.76221   0.47487   0.18345   0.00000  Uiso   1.00
N320   N     0.50322   0.09586   0.40612   0.00000  Uiso   1.00
N321   N     0.57667   0.77142   0.50036   0.00000  Uiso   1.00
N322   N     0.67793   0.52307   0.14849   0.00000  Uiso   1.00
C323   C     0.15569   0.81441   0.60146   0.00000  Uiso   1.00
C324   C     0.10796   0.89742   0.59285   0.00000  Uiso   1.00
C325   C     0.11371   0.99429   0.56298   0.00000  Uiso   1.00
C326   C     0.06492   0.05908   0.55996   0.00000  Uiso   1.00
C327   C     0.99880   0.19266   0.54261   0.00000  Uiso   1.00
C328   C     0.13253   0.70935   0.57628   0.00000  Uiso   1.00
C329   C     0.15894   0.64808   0.53248   0.00000  Uiso   1.00
C330   C     0.13084   0.55455   0.51553   0.00000  Uiso   1.00
C331   C     0.10288   0.39611   0.47249   0.00000  Uiso   1.00
C332   C     0.16021   0.79728   0.66798   0.00000  Uiso   1.00
C333   C     0.20989   0.80992   0.70128   0.00000  Uiso   1.00
C334   C     0.20509   0.79040   0.76153   0.00000  Uiso   1.00
C335   C     0.22011   0.76849   0.86087   0.00000  Uiso   1.00
C336   C     0.05883   0.75723   0.64922   0.00000  Uiso   1.00
C337   C     0.05535   0.86635   0.61879   0.00000  Uiso   1.00
C338   C     0.00654   0.93102   0.61582   0.00000  Uiso   1.00
C339   C     0.01221   0.02797   0.58595   0.00000  Uiso   1.00
C340   C     0.07992   0.67828   0.60222   0.00000  Uiso   1.00
C341   C     0.05178   0.58481   0.58533   0.00000  Uiso   1.00
C342   C     0.07813   0.52343   0.54152   0.00000  Uiso   1.00
C343   C     0.10760   0.76622   0.69392   0.00000  Uiso   1.00
C344   C     0.10272   0.74666   0.75413   0.00000  Uiso   1.00
C345   C     0.15239   0.75928   0.78752   0.00000  Uiso   1.00
H346   H     0.19665   0.83859   0.58126   0.00000  Uiso   1.00
H347   H     0.15443   0.01829   0.54290   0.00000  Uiso   1.00
H348   H     0.19965   0.67214   0.51242   0.00000  Uiso   1.00
H349   H     0.25059   0.83396   0.68119   0.00000  Uiso   1.00
H350   H     0.08441   0.20381   0.51179   0.00000  Uiso   1.00
H351   H     0.17978   0.47390   0.44754   0.00000  Uiso   1.00
H352   H     0.28720   0.81514   0.80343   0.00000  Uiso   1.00
H353   H     0.01787   0.73304   0.66942   0.00000  Uiso   1.00
H354   H     0.96584   0.90696   0.63590   0.00000  Uiso   1.00
H355   H     0.01107   0.56080   0.60542   0.00000  Uiso   1.00
H356   H     0.06200   0.72263   0.77419   0.00000  Uiso   1.00
H357   H     0.93134   0.11344   0.58727   0.00000  Uiso   1.00
H358   H     0.02672   0.38353   0.52302   0.00000  Uiso   1.00
H359   H     0.13413   0.72477   0.87890   0.00000  Uiso   1.00
O360   O     0.97686   0.27492   0.52587   0.00000  Uiso   1.00
O361   O     0.10200   0.31730   0.44158   0.00000  Uiso   1.00
O362   O     0.24292   0.76501   0.90850   0.00000  Uiso   1.00
N363   N     0.05553   0.15868   0.53417   0.00000  Uiso   1.00
N364   N     0.14469   0.47627   0.47408   0.00000  Uiso   1.00
N365   N     0.24512   0.79527   0.80681   0.00000  Uiso   1.00
N366   N     0.97316   0.11006   0.57478   0.00000  Uiso   1.00
N367   N     0.06233   0.42765   0.51470   0.00000  Uiso   1.00
N368   N     0.16276   0.74665   0.84742   0.00000  Uiso   1.00
