data_job_02303
_audit_creation_date              2018-12-19
_audit_creation_method            'Materials Studio'
_symmetry_space_group_name_H-M    'P1'
_symmetry_Int_Tables_number       1
_symmetry_cell_setting            triclinic
loop_
_symmetry_equiv_pos_as_xyz
  x,y,z
_cell_length_a                    9.3463
_cell_length_b                    9.8268
_cell_length_c                    23.0129
_cell_angle_alpha                 101.2862
_cell_angle_beta                  87.0637
_cell_angle_gamma                 98.7957
loop_
_atom_site_label
_atom_site_type_symbol
_atom_site_fract_x
_atom_site_fract_y
_atom_site_fract_z
_atom_site_U_iso_or_equiv
_atom_site_adp_type
_atom_site_occupancy
C1     C     0.26577   0.37163   0.25650   0.00000  Uiso   1.00
C2     C     0.20730   0.29466   0.30617   0.00000  Uiso   1.00
C3     C     0.06218   0.25359   0.31887   0.00000  Uiso   1.00
C4     C     0.03094   0.18437   0.36614   0.00000  Uiso   1.00
C5     C     0.92340   0.06903   0.43821   0.00000  Uiso   1.00
C6     C     0.36052   0.50503   0.28618   0.00000  Uiso   1.00
C7     C     0.34424   0.64083   0.28206   0.00000  Uiso   1.00
C8     C     0.44199   0.74871   0.31250   0.00000  Uiso   1.00
C9     C     0.57239   0.95997   0.35349   0.00000  Uiso   1.00
C10    C     0.36832   0.28104   0.21921   0.00000  Uiso   1.00
C11    C     0.35863   0.22853   0.15878   0.00000  Uiso   1.00
C12    C     0.46297   0.14785   0.13283   0.00000  Uiso   1.00
C13    C     0.60549   0.01132   0.06985   0.00000  Uiso   1.00
C14    C     0.46833   0.32174   0.31786   0.00000  Uiso   1.00
C15    C     0.31732   0.26756   0.33950   0.00000  Uiso   1.00
C16    C     0.28629   0.19838   0.38676   0.00000  Uiso   1.00
C17    C     0.14116   0.15722   0.39953   0.00000  Uiso   1.00
C18    C     0.47053   0.47793   0.31951   0.00000  Uiso   1.00
C19    C     0.56834   0.58563   0.34995   0.00000  Uiso   1.00
C20    C     0.55221   0.72156   0.34589   0.00000  Uiso   1.00
C21    C     0.47834   0.25393   0.25254   0.00000  Uiso   1.00
C22    C     0.58273   0.17332   0.22668   0.00000  Uiso   1.00
C23    C     0.57319   0.12070   0.16622   0.00000  Uiso   1.00
H24    H     0.18012   0.39274   0.23055   0.00000  Uiso   1.00
H25    H     0.97707   0.27459   0.29307   0.00000  Uiso   1.00
H26    H     0.25909   0.66177   0.25626   0.00000  Uiso   1.00
H27    H     0.27347   0.24953   0.13300   0.00000  Uiso   1.00
H28    H     0.80047   0.13170   0.37709   0.00000  Uiso   1.00
H29    H     0.39515   0.94808   0.29946   0.00000  Uiso   1.00
H30    H     0.42549   0.07879   0.03955   0.00000  Uiso   1.00
H31    H     0.55399   0.30064   0.34382   0.00000  Uiso   1.00
H32    H     0.37146   0.17743   0.41255   0.00000  Uiso   1.00
H33    H     0.65347   0.56462   0.37574   0.00000  Uiso   1.00
H34    H     0.66785   0.15237   0.25248   0.00000  Uiso   1.00
H35    H     0.12057   0.05284   0.47407   0.00000  Uiso   1.00
H36    H     0.71526   0.86923   0.39644   0.00000  Uiso   1.00
H37    H     0.74558   0.99994   0.13653   0.00000  Uiso   1.00
O38    O     0.83369   0.01292   0.46877   0.00000  Uiso   1.00
O39    O     0.61391   0.08399   0.36690   0.00000  Uiso   1.00
O40    O     0.65369   0.94349   0.02591   0.00000  Uiso   1.00
N41    N     0.90086   0.13002   0.39048   0.00000  Uiso   1.00
N42    N     0.45684   0.89330   0.31790   0.00000  Uiso   1.00
N43    N     0.48522   0.08061   0.07490   0.00000  Uiso   1.00
N44    N     0.07310   0.08759   0.44266   0.00000  Uiso   1.00
N45    N     0.62908   0.85087   0.37008   0.00000  Uiso   1.00
N46    N     0.65746   0.03818   0.12709   0.00000  Uiso   1.00
C47    C     0.73423   0.62837   0.74350   0.00000  Uiso   1.00
C48    C     0.79270   0.70534   0.69383   0.00000  Uiso   1.00
C49    C     0.93782   0.74641   0.68113   0.00000  Uiso   1.00
C50    C     0.96906   0.81563   0.63386   0.00000  Uiso   1.00
C51    C     0.07660   0.93097   0.56179   0.00000  Uiso   1.00
C52    C     0.63948   0.49497   0.71382   0.00000  Uiso   1.00
C53    C     0.65576   0.35917   0.71794   0.00000  Uiso   1.00
C54    C     0.55801   0.25129   0.68750   0.00000  Uiso   1.00
C55    C     0.42761   0.04003   0.64651   0.00000  Uiso   1.00
C56    C     0.63168   0.71896   0.78079   0.00000  Uiso   1.00
C57    C     0.64137   0.77147   0.84122   0.00000  Uiso   1.00
C58    C     0.53703   0.85215   0.86717   0.00000  Uiso   1.00
C59    C     0.39451   0.98868   0.93015   0.00000  Uiso   1.00
C60    C     0.53167   0.67826   0.68214   0.00000  Uiso   1.00
C61    C     0.68268   0.73244   0.66050   0.00000  Uiso   1.00
C62    C     0.71371   0.80162   0.61324   0.00000  Uiso   1.00
C63    C     0.85884   0.84278   0.60047   0.00000  Uiso   1.00
C64    C     0.52947   0.52207   0.68049   0.00000  Uiso   1.00
C65    C     0.43166   0.41437   0.65005   0.00000  Uiso   1.00
C66    C     0.44779   0.27844   0.65411   0.00000  Uiso   1.00
C67    C     0.52166   0.74607   0.74746   0.00000  Uiso   1.00
C68    C     0.41727   0.82668   0.77332   0.00000  Uiso   1.00
C69    C     0.42681   0.87930   0.83378   0.00000  Uiso   1.00
H70    H     0.81988   0.60726   0.76945   0.00000  Uiso   1.00
H71    H     0.02293   0.72541   0.70693   0.00000  Uiso   1.00
H72    H     0.74091   0.33823   0.74374   0.00000  Uiso   1.00
H73    H     0.72653   0.75047   0.86700   0.00000  Uiso   1.00
H74    H     0.19953   0.86830   0.62291   0.00000  Uiso   1.00
H75    H     0.60485   0.05192   0.70054   0.00000  Uiso   1.00
H76    H     0.57451   0.92121   0.96045   0.00000  Uiso   1.00
H77    H     0.44601   0.69936   0.65618   0.00000  Uiso   1.00
H78    H     0.62854   0.82257   0.58745   0.00000  Uiso   1.00
H79    H     0.34653   0.43538   0.62426   0.00000  Uiso   1.00
H80    H     0.33215   0.84763   0.74752   0.00000  Uiso   1.00
H81    H     0.87943   0.94716   0.52593   0.00000  Uiso   1.00
H82    H     0.28474   0.13077   0.60356   0.00000  Uiso   1.00
H83    H     0.25442   0.00006   0.86347   0.00000  Uiso   1.00
O84    O     0.16631   0.98708   0.53123   0.00000  Uiso   1.00
O85    O     0.38609   0.91601   0.63310   0.00000  Uiso   1.00
O86    O     0.34631   0.05651   0.97409   0.00000  Uiso   1.00
N87    N     0.09914   0.86998   0.60952   0.00000  Uiso   1.00
N88    N     0.54316   0.10670   0.68210   0.00000  Uiso   1.00
N89    N     0.51478   0.91939   0.92510   0.00000  Uiso   1.00
N90    N     0.92690   0.91241   0.55734   0.00000  Uiso   1.00
N91    N     0.37092   0.14913   0.62992   0.00000  Uiso   1.00
N92    N     0.34254   0.96182   0.87291   0.00000  Uiso   1.00
