data_job_02819
_audit_creation_date              2018-12-19
_audit_creation_method            'Materials Studio'
_symmetry_space_group_name_H-M    'P1'
_symmetry_Int_Tables_number       1
_symmetry_cell_setting            triclinic
loop_
_symmetry_equiv_pos_as_xyz
  x,y,z
_cell_length_a                    16.6156
_cell_length_b                    17.1067
_cell_length_c                    20.3875
_cell_angle_alpha                 90.0000
_cell_angle_beta                  90.0000
_cell_angle_gamma                 90.0000
loop_
_atom_site_label
_atom_site_type_symbol
_atom_site_fract_x
_atom_site_fract_y
_atom_site_fract_z
_atom_site_U_iso_or_equiv
_atom_site_adp_type
_atom_site_occupancy
C1     C     0.79167   0.61215   0.01058   0.00000  Uiso   1.00
C2     C     0.70048   0.61856   0.01715   0.00000  Uiso   1.00
C3     C     0.65971   0.66423   0.06254   0.00000  Uiso   1.00
C4     C     0.57622   0.66206   0.06061   0.00000  Uiso   1.00
C5     C     0.44089   0.67900   0.07779   0.00000  Uiso   1.00
C6     C     0.81143   0.52545   0.01707   0.00000  Uiso   1.00
C7     C     0.86395   0.49284   0.06238   0.00000  Uiso   1.00
C8     C     0.87386   0.41229   0.06037   0.00000  Uiso   1.00
C9     C     0.91083   0.28468   0.07738   0.00000  Uiso   1.00
C10    C     0.81116   0.63414   0.93986   0.00000  Uiso   1.00
C11    C     0.86347   0.69292   0.92025   0.00000  Uiso   1.00
C12    C     0.87316   0.70386   0.85323   0.00000  Uiso   1.00
C13    C     0.90970   0.74502   0.75037   0.00000  Uiso   1.00
C14    C     0.71589   0.52707   0.92643   0.00000  Uiso   1.00
C15    C     0.65933   0.57234   0.97144   0.00000  Uiso   1.00
C16    C     0.57587   0.57010   0.96944   0.00000  Uiso   1.00
C17    C     0.53498   0.61576   0.01482   0.00000  Uiso   1.00
C18    C     0.77027   0.47923   0.97136   0.00000  Uiso   1.00
C19    C     0.78011   0.39870   0.96928   0.00000  Uiso   1.00
C20    C     0.83263   0.36599   0.01458   0.00000  Uiso   1.00
C21    C     0.76999   0.58793   0.89415   0.00000  Uiso   1.00
C22    C     0.77961   0.59878   0.82715   0.00000  Uiso   1.00
C23    C     0.83192   0.65756   0.80744   0.00000  Uiso   1.00
H24    H     0.82372   0.64813   0.04617   0.00000  Uiso   1.00
H25    H     0.69159   0.69999   0.09791   0.00000  Uiso   1.00
H26    H     0.89580   0.52862   0.09774   0.00000  Uiso   1.00
H27    H     0.89531   0.72867   0.95564   0.00000  Uiso   1.00
H28    H     0.52695   0.73708   0.13514   0.00000  Uiso   1.00
H29    H     0.95757   0.37575   0.13477   0.00000  Uiso   1.00
H30    H     0.95653   0.79758   0.83511   0.00000  Uiso   1.00
H31    H     0.68384   0.49108   0.89084   0.00000  Uiso   1.00
H32    H     0.54403   0.53433   0.93406   0.00000  Uiso   1.00
H33    H     0.74825   0.36296   0.93390   0.00000  Uiso   1.00
H34    H     0.74775   0.56300   0.79179   0.00000  Uiso   1.00
H35    H     0.40719   0.60262   0.00216   0.00000  Uiso   1.00
H36    H     0.83781   0.24129   0.00178   0.00000  Uiso   1.00
H37    H     0.83676   0.66312   0.70213   0.00000  Uiso   1.00
O38    O     0.37762   0.70111   0.09990   0.00000  Uiso   1.00
O39    O     0.94259   0.22706   0.09940   0.00000  Uiso   1.00
O40    O     0.94122   0.78050   0.70626   0.00000  Uiso   1.00
N41    N     0.51795   0.69951   0.09790   0.00000  Uiso   1.00
N42    N     0.92054   0.36169   0.09756   0.00000  Uiso   1.00
N43    N     0.91958   0.75605   0.81741   0.00000  Uiso   1.00
N44    N     0.45351   0.62716   0.02634   0.00000  Uiso   1.00
N45    N     0.85610   0.28934   0.02600   0.00000  Uiso   1.00
N46    N     0.85514   0.68370   0.74585   0.00000  Uiso   1.00
C47    C     0.70833   0.88785   0.01058   0.00000  Uiso   1.00
C48    C     0.79952   0.88144   0.01715   0.00000  Uiso   1.00
C49    C     0.84029   0.83577   0.06254   0.00000  Uiso   1.00
C50    C     0.92378   0.83794   0.06061   0.00000  Uiso   1.00
C51    C     0.05911   0.82100   0.07779   0.00000  Uiso   1.00
C52    C     0.68857   0.97455   0.01707   0.00000  Uiso   1.00
C53    C     0.63605   0.00716   0.06238   0.00000  Uiso   1.00
C54    C     0.62614   0.08771   0.06037   0.00000  Uiso   1.00
C55    C     0.58917   0.21532   0.07738   0.00000  Uiso   1.00
C56    C     0.68884   0.86586   0.93986   0.00000  Uiso   1.00
C57    C     0.63653   0.80708   0.92025   0.00000  Uiso   1.00
C58    C     0.62684   0.79614   0.85323   0.00000  Uiso   1.00
C59    C     0.59030   0.75498   0.75037   0.00000  Uiso   1.00
C60    C     0.78411   0.97293   0.92643   0.00000  Uiso   1.00
C61    C     0.84067   0.92766   0.97144   0.00000  Uiso   1.00
C62    C     0.92413   0.92990   0.96944   0.00000  Uiso   1.00
C63    C     0.96502   0.88424   0.01482   0.00000  Uiso   1.00
C64    C     0.72973   0.02077   0.97136   0.00000  Uiso   1.00
C65    C     0.71989   0.10130   0.96928   0.00000  Uiso   1.00
C66    C     0.66737   0.13401   0.01458   0.00000  Uiso   1.00
C67    C     0.73001   0.91207   0.89415   0.00000  Uiso   1.00
C68    C     0.72039   0.90122   0.82715   0.00000  Uiso   1.00
C69    C     0.66808   0.84244   0.80744   0.00000  Uiso   1.00
H70    H     0.67628   0.85187   0.04617   0.00000  Uiso   1.00
H71    H     0.80841   0.80001   0.09791   0.00000  Uiso   1.00
H72    H     0.60420   0.97138   0.09774   0.00000  Uiso   1.00
H73    H     0.60469   0.77133   0.95564   0.00000  Uiso   1.00
H74    H     0.97305   0.76292   0.13514   0.00000  Uiso   1.00
H75    H     0.54243   0.12425   0.13477   0.00000  Uiso   1.00
H76    H     0.54347   0.70242   0.83511   0.00000  Uiso   1.00
H77    H     0.81616   0.00892   0.89084   0.00000  Uiso   1.00
H78    H     0.95597   0.96567   0.93406   0.00000  Uiso   1.00
H79    H     0.75175   0.13704   0.93390   0.00000  Uiso   1.00
H80    H     0.75225   0.93700   0.79179   0.00000  Uiso   1.00
H81    H     0.09281   0.89738   0.00216   0.00000  Uiso   1.00
H82    H     0.66219   0.25871   0.00178   0.00000  Uiso   1.00
H83    H     0.66324   0.83688   0.70213   0.00000  Uiso   1.00
O84    O     0.12238   0.79889   0.09990   0.00000  Uiso   1.00
O85    O     0.55741   0.27294   0.09940   0.00000  Uiso   1.00
O86    O     0.55878   0.71950   0.70626   0.00000  Uiso   1.00
N87    N     0.98205   0.80049   0.09790   0.00000  Uiso   1.00
N88    N     0.57946   0.13831   0.09756   0.00000  Uiso   1.00
N89    N     0.58042   0.74395   0.81741   0.00000  Uiso   1.00
N90    N     0.04649   0.87284   0.02634   0.00000  Uiso   1.00
N91    N     0.64390   0.21066   0.02600   0.00000  Uiso   1.00
N92    N     0.64486   0.81630   0.74585   0.00000  Uiso   1.00
C93    C     0.20833   0.11215   0.48942   0.00000  Uiso   1.00
C94    C     0.29952   0.11856   0.48285   0.00000  Uiso   1.00
C95    C     0.34029   0.16423   0.43746   0.00000  Uiso   1.00
C96    C     0.42378   0.16206   0.43939   0.00000  Uiso   1.00
C97    C     0.55911   0.17900   0.42221   0.00000  Uiso   1.00
C98    C     0.18857   0.02545   0.48293   0.00000  Uiso   1.00
C99    C     0.13605   0.99284   0.43762   0.00000  Uiso   1.00
C100   C     0.12614   0.91229   0.43963   0.00000  Uiso   1.00
C101   C     0.08917   0.78468   0.42262   0.00000  Uiso   1.00
C102   C     0.18884   0.13414   0.56014   0.00000  Uiso   1.00
C103   C     0.13653   0.19292   0.57975   0.00000  Uiso   1.00
C104   C     0.12684   0.20386   0.64677   0.00000  Uiso   1.00
C105   C     0.09030   0.24502   0.74963   0.00000  Uiso   1.00
C106   C     0.28411   0.02707   0.57357   0.00000  Uiso   1.00
C107   C     0.34067   0.07234   0.52856   0.00000  Uiso   1.00
C108   C     0.42413   0.07010   0.53056   0.00000  Uiso   1.00
C109   C     0.46502   0.11576   0.48518   0.00000  Uiso   1.00
C110   C     0.22973   0.97923   0.52864   0.00000  Uiso   1.00
C111   C     0.21989   0.89870   0.53072   0.00000  Uiso   1.00
C112   C     0.16737   0.86599   0.48542   0.00000  Uiso   1.00
C113   C     0.23001   0.08793   0.60585   0.00000  Uiso   1.00
C114   C     0.22039   0.09878   0.67285   0.00000  Uiso   1.00
C115   C     0.16808   0.15756   0.69256   0.00000  Uiso   1.00
H116   H     0.17628   0.14813   0.45383   0.00000  Uiso   1.00
H117   H     0.30841   0.19999   0.40209   0.00000  Uiso   1.00
H118   H     0.10420   0.02862   0.40226   0.00000  Uiso   1.00
H119   H     0.10469   0.22867   0.54436   0.00000  Uiso   1.00
H120   H     0.47305   0.23708   0.36486   0.00000  Uiso   1.00
H121   H     0.04243   0.87575   0.36523   0.00000  Uiso   1.00
H122   H     0.04347   0.29758   0.66489   0.00000  Uiso   1.00
H123   H     0.31616   0.99108   0.60916   0.00000  Uiso   1.00
H124   H     0.45597   0.03433   0.56594   0.00000  Uiso   1.00
H125   H     0.25175   0.86296   0.56610   0.00000  Uiso   1.00
H126   H     0.25225   0.06300   0.70821   0.00000  Uiso   1.00
H127   H     0.59281   0.10262   0.49784   0.00000  Uiso   1.00
H128   H     0.16219   0.74129   0.49822   0.00000  Uiso   1.00
H129   H     0.16324   0.16312   0.79787   0.00000  Uiso   1.00
O130   O     0.62238   0.20111   0.40010   0.00000  Uiso   1.00
O131   O     0.05741   0.72706   0.40060   0.00000  Uiso   1.00
O132   O     0.05878   0.28050   0.79374   0.00000  Uiso   1.00
N133   N     0.48205   0.19951   0.40210   0.00000  Uiso   1.00
N134   N     0.07946   0.86169   0.40244   0.00000  Uiso   1.00
N135   N     0.08042   0.25605   0.68259   0.00000  Uiso   1.00
N136   N     0.54649   0.12716   0.47366   0.00000  Uiso   1.00
N137   N     0.14390   0.78934   0.47400   0.00000  Uiso   1.00
N138   N     0.14486   0.18370   0.75415   0.00000  Uiso   1.00
C139   C     0.29167   0.38785   0.48942   0.00000  Uiso   1.00
C140   C     0.20048   0.38144   0.48285   0.00000  Uiso   1.00
C141   C     0.15971   0.33577   0.43746   0.00000  Uiso   1.00
C142   C     0.07622   0.33794   0.43939   0.00000  Uiso   1.00
C143   C     0.94089   0.32100   0.42221   0.00000  Uiso   1.00
C144   C     0.31143   0.47455   0.48293   0.00000  Uiso   1.00
C145   C     0.36395   0.50716   0.43762   0.00000  Uiso   1.00
C146   C     0.37386   0.58771   0.43963   0.00000  Uiso   1.00
C147   C     0.41083   0.71532   0.42262   0.00000  Uiso   1.00
C148   C     0.31116   0.36586   0.56014   0.00000  Uiso   1.00
C149   C     0.36347   0.30708   0.57975   0.00000  Uiso   1.00
C150   C     0.37316   0.29614   0.64677   0.00000  Uiso   1.00
C151   C     0.40970   0.25498   0.74963   0.00000  Uiso   1.00
C152   C     0.21589   0.47293   0.57357   0.00000  Uiso   1.00
C153   C     0.15933   0.42766   0.52856   0.00000  Uiso   1.00
C154   C     0.07587   0.42990   0.53056   0.00000  Uiso   1.00
C155   C     0.03498   0.38424   0.48518   0.00000  Uiso   1.00
C156   C     0.27027   0.52077   0.52864   0.00000  Uiso   1.00
C157   C     0.28011   0.60130   0.53072   0.00000  Uiso   1.00
C158   C     0.33263   0.63401   0.48542   0.00000  Uiso   1.00
C159   C     0.26999   0.41207   0.60585   0.00000  Uiso   1.00
C160   C     0.27961   0.40122   0.67285   0.00000  Uiso   1.00
C161   C     0.33192   0.34244   0.69256   0.00000  Uiso   1.00
H162   H     0.32372   0.35187   0.45383   0.00000  Uiso   1.00
H163   H     0.19159   0.30001   0.40209   0.00000  Uiso   1.00
H164   H     0.39580   0.47138   0.40226   0.00000  Uiso   1.00
H165   H     0.39531   0.27133   0.54436   0.00000  Uiso   1.00
H166   H     0.02695   0.26292   0.36486   0.00000  Uiso   1.00
H167   H     0.45757   0.62425   0.36523   0.00000  Uiso   1.00
H168   H     0.45653   0.20242   0.66489   0.00000  Uiso   1.00
H169   H     0.18384   0.50892   0.60916   0.00000  Uiso   1.00
H170   H     0.04403   0.46567   0.56594   0.00000  Uiso   1.00
H171   H     0.24825   0.63704   0.56610   0.00000  Uiso   1.00
H172   H     0.24775   0.43700   0.70821   0.00000  Uiso   1.00
H173   H     0.90719   0.39738   0.49784   0.00000  Uiso   1.00
H174   H     0.33781   0.75871   0.49822   0.00000  Uiso   1.00
H175   H     0.33676   0.33688   0.79787   0.00000  Uiso   1.00
O176   O     0.87762   0.29889   0.40010   0.00000  Uiso   1.00
O177   O     0.44259   0.77294   0.40060   0.00000  Uiso   1.00
O178   O     0.44122   0.21950   0.79374   0.00000  Uiso   1.00
N179   N     0.01795   0.30049   0.40210   0.00000  Uiso   1.00
N180   N     0.42054   0.63831   0.40244   0.00000  Uiso   1.00
N181   N     0.41958   0.24395   0.68259   0.00000  Uiso   1.00
N182   N     0.95351   0.37284   0.47366   0.00000  Uiso   1.00
N183   N     0.35610   0.71066   0.47400   0.00000  Uiso   1.00
N184   N     0.35514   0.31630   0.75415   0.00000  Uiso   1.00
C185   C     0.20833   0.38785   0.98942   0.00000  Uiso   1.00
C186   C     0.29952   0.38144   0.98285   0.00000  Uiso   1.00
C187   C     0.34029   0.33577   0.93746   0.00000  Uiso   1.00
C188   C     0.42378   0.33794   0.93939   0.00000  Uiso   1.00
C189   C     0.55911   0.32100   0.92221   0.00000  Uiso   1.00
C190   C     0.18857   0.47455   0.98293   0.00000  Uiso   1.00
C191   C     0.13605   0.50716   0.93762   0.00000  Uiso   1.00
C192   C     0.12614   0.58771   0.93963   0.00000  Uiso   1.00
C193   C     0.08917   0.71532   0.92262   0.00000  Uiso   1.00
C194   C     0.18884   0.36586   0.06014   0.00000  Uiso   1.00
C195   C     0.13653   0.30708   0.07975   0.00000  Uiso   1.00
C196   C     0.12684   0.29614   0.14677   0.00000  Uiso   1.00
C197   C     0.09030   0.25498   0.24963   0.00000  Uiso   1.00
C198   C     0.28411   0.47293   0.07357   0.00000  Uiso   1.00
C199   C     0.34067   0.42766   0.02856   0.00000  Uiso   1.00
C200   C     0.42413   0.42990   0.03056   0.00000  Uiso   1.00
C201   C     0.46502   0.38424   0.98518   0.00000  Uiso   1.00
C202   C     0.22973   0.52077   0.02864   0.00000  Uiso   1.00
C203   C     0.21989   0.60130   0.03072   0.00000  Uiso   1.00
C204   C     0.16737   0.63401   0.98542   0.00000  Uiso   1.00
C205   C     0.23001   0.41207   0.10585   0.00000  Uiso   1.00
C206   C     0.22039   0.40122   0.17285   0.00000  Uiso   1.00
C207   C     0.16808   0.34244   0.19256   0.00000  Uiso   1.00
H208   H     0.17628   0.35187   0.95383   0.00000  Uiso   1.00
H209   H     0.30841   0.30001   0.90209   0.00000  Uiso   1.00
H210   H     0.10420   0.47138   0.90226   0.00000  Uiso   1.00
H211   H     0.10469   0.27133   0.04436   0.00000  Uiso   1.00
H212   H     0.47305   0.26292   0.86486   0.00000  Uiso   1.00
H213   H     0.04243   0.62425   0.86523   0.00000  Uiso   1.00
H214   H     0.04347   0.20242   0.16489   0.00000  Uiso   1.00
H215   H     0.31616   0.50892   0.10916   0.00000  Uiso   1.00
H216   H     0.45597   0.46567   0.06594   0.00000  Uiso   1.00
H217   H     0.25175   0.63704   0.06610   0.00000  Uiso   1.00
H218   H     0.25225   0.43700   0.20821   0.00000  Uiso   1.00
H219   H     0.59281   0.39738   0.99784   0.00000  Uiso   1.00
H220   H     0.16219   0.75871   0.99822   0.00000  Uiso   1.00
H221   H     0.16324   0.33688   0.29787   0.00000  Uiso   1.00
O222   O     0.62238   0.29889   0.90010   0.00000  Uiso   1.00
O223   O     0.05741   0.77294   0.90060   0.00000  Uiso   1.00
O224   O     0.05878   0.21950   0.29374   0.00000  Uiso   1.00
N225   N     0.48205   0.30049   0.90210   0.00000  Uiso   1.00
N226   N     0.07946   0.63831   0.90244   0.00000  Uiso   1.00
N227   N     0.08042   0.24395   0.18259   0.00000  Uiso   1.00
N228   N     0.54649   0.37284   0.97366   0.00000  Uiso   1.00
N229   N     0.14390   0.71066   0.97400   0.00000  Uiso   1.00
N230   N     0.14486   0.31630   0.25415   0.00000  Uiso   1.00
C231   C     0.29167   0.11215   0.98942   0.00000  Uiso   1.00
C232   C     0.20048   0.11856   0.98285   0.00000  Uiso   1.00
C233   C     0.15971   0.16423   0.93746   0.00000  Uiso   1.00
C234   C     0.07622   0.16206   0.93939   0.00000  Uiso   1.00
C235   C     0.94089   0.17900   0.92221   0.00000  Uiso   1.00
C236   C     0.31143   0.02545   0.98293   0.00000  Uiso   1.00
C237   C     0.36395   0.99284   0.93762   0.00000  Uiso   1.00
C238   C     0.37386   0.91229   0.93963   0.00000  Uiso   1.00
C239   C     0.41083   0.78468   0.92262   0.00000  Uiso   1.00
C240   C     0.31116   0.13414   0.06014   0.00000  Uiso   1.00
C241   C     0.36347   0.19292   0.07975   0.00000  Uiso   1.00
C242   C     0.37316   0.20386   0.14677   0.00000  Uiso   1.00
C243   C     0.40970   0.24502   0.24963   0.00000  Uiso   1.00
C244   C     0.21589   0.02707   0.07357   0.00000  Uiso   1.00
C245   C     0.15933   0.07234   0.02856   0.00000  Uiso   1.00
C246   C     0.07587   0.07010   0.03056   0.00000  Uiso   1.00
C247   C     0.03498   0.11576   0.98518   0.00000  Uiso   1.00
C248   C     0.27027   0.97923   0.02864   0.00000  Uiso   1.00
C249   C     0.28011   0.89870   0.03072   0.00000  Uiso   1.00
C250   C     0.33263   0.86599   0.98542   0.00000  Uiso   1.00
C251   C     0.26999   0.08793   0.10585   0.00000  Uiso   1.00
C252   C     0.27961   0.09878   0.17285   0.00000  Uiso   1.00
C253   C     0.33192   0.15756   0.19256   0.00000  Uiso   1.00
H254   H     0.32372   0.14813   0.95383   0.00000  Uiso   1.00
H255   H     0.19159   0.19999   0.90209   0.00000  Uiso   1.00
H256   H     0.39580   0.02862   0.90226   0.00000  Uiso   1.00
H257   H     0.39531   0.22867   0.04436   0.00000  Uiso   1.00
H258   H     0.02695   0.23708   0.86486   0.00000  Uiso   1.00
H259   H     0.45757   0.87575   0.86523   0.00000  Uiso   1.00
H260   H     0.45653   0.29758   0.16489   0.00000  Uiso   1.00
H261   H     0.18384   0.99108   0.10916   0.00000  Uiso   1.00
H262   H     0.04403   0.03433   0.06594   0.00000  Uiso   1.00
H263   H     0.24825   0.86296   0.06610   0.00000  Uiso   1.00
H264   H     0.24775   0.06300   0.20821   0.00000  Uiso   1.00
H265   H     0.90719   0.10262   0.99784   0.00000  Uiso   1.00
H266   H     0.33781   0.74129   0.99822   0.00000  Uiso   1.00
H267   H     0.33676   0.16312   0.29787   0.00000  Uiso   1.00
O268   O     0.87762   0.20111   0.90010   0.00000  Uiso   1.00
O269   O     0.44259   0.72706   0.90060   0.00000  Uiso   1.00
O270   O     0.44122   0.28050   0.29374   0.00000  Uiso   1.00
N271   N     0.01795   0.19951   0.90210   0.00000  Uiso   1.00
N272   N     0.42054   0.86169   0.90244   0.00000  Uiso   1.00
N273   N     0.41958   0.25605   0.18259   0.00000  Uiso   1.00
N274   N     0.95351   0.12716   0.97366   0.00000  Uiso   1.00
N275   N     0.35610   0.78934   0.97400   0.00000  Uiso   1.00
N276   N     0.35514   0.18370   0.25415   0.00000  Uiso   1.00
C277   C     0.79167   0.88785   0.51058   0.00000  Uiso   1.00
C278   C     0.70048   0.88144   0.51715   0.00000  Uiso   1.00
C279   C     0.65971   0.83577   0.56254   0.00000  Uiso   1.00
C280   C     0.57622   0.83794   0.56061   0.00000  Uiso   1.00
C281   C     0.44089   0.82100   0.57779   0.00000  Uiso   1.00
C282   C     0.81143   0.97455   0.51707   0.00000  Uiso   1.00
C283   C     0.86395   0.00716   0.56238   0.00000  Uiso   1.00
C284   C     0.87386   0.08771   0.56037   0.00000  Uiso   1.00
C285   C     0.91083   0.21532   0.57738   0.00000  Uiso   1.00
C286   C     0.81116   0.86586   0.43986   0.00000  Uiso   1.00
C287   C     0.86347   0.80708   0.42025   0.00000  Uiso   1.00
C288   C     0.87316   0.79614   0.35323   0.00000  Uiso   1.00
C289   C     0.90970   0.75498   0.25037   0.00000  Uiso   1.00
C290   C     0.71589   0.97293   0.42643   0.00000  Uiso   1.00
C291   C     0.65933   0.92766   0.47144   0.00000  Uiso   1.00
C292   C     0.57587   0.92990   0.46944   0.00000  Uiso   1.00
C293   C     0.53498   0.88424   0.51482   0.00000  Uiso   1.00
C294   C     0.77027   0.02077   0.47136   0.00000  Uiso   1.00
C295   C     0.78011   0.10130   0.46928   0.00000  Uiso   1.00
C296   C     0.83263   0.13401   0.51458   0.00000  Uiso   1.00
C297   C     0.76999   0.91207   0.39415   0.00000  Uiso   1.00
C298   C     0.77961   0.90122   0.32715   0.00000  Uiso   1.00
C299   C     0.83192   0.84244   0.30744   0.00000  Uiso   1.00
H300   H     0.82372   0.85187   0.54617   0.00000  Uiso   1.00
H301   H     0.69159   0.80001   0.59791   0.00000  Uiso   1.00
H302   H     0.89580   0.97138   0.59774   0.00000  Uiso   1.00
H303   H     0.89531   0.77133   0.45564   0.00000  Uiso   1.00
H304   H     0.52695   0.76292   0.63514   0.00000  Uiso   1.00
H305   H     0.95757   0.12425   0.63477   0.00000  Uiso   1.00
H306   H     0.95653   0.70242   0.33511   0.00000  Uiso   1.00
H307   H     0.68384   0.00892   0.39084   0.00000  Uiso   1.00
H308   H     0.54403   0.96567   0.43406   0.00000  Uiso   1.00
H309   H     0.74825   0.13704   0.43390   0.00000  Uiso   1.00
H310   H     0.74775   0.93700   0.29179   0.00000  Uiso   1.00
H311   H     0.40719   0.89738   0.50216   0.00000  Uiso   1.00
H312   H     0.83781   0.25871   0.50178   0.00000  Uiso   1.00
H313   H     0.83676   0.83688   0.20213   0.00000  Uiso   1.00
O314   O     0.37762   0.79889   0.59990   0.00000  Uiso   1.00
O315   O     0.94259   0.27294   0.59940   0.00000  Uiso   1.00
O316   O     0.94122   0.71950   0.20626   0.00000  Uiso   1.00
N317   N     0.51795   0.80049   0.59790   0.00000  Uiso   1.00
N318   N     0.92054   0.13831   0.59756   0.00000  Uiso   1.00
N319   N     0.91958   0.74395   0.31741   0.00000  Uiso   1.00
N320   N     0.45351   0.87284   0.52634   0.00000  Uiso   1.00
N321   N     0.85610   0.21066   0.52600   0.00000  Uiso   1.00
N322   N     0.85514   0.81630   0.24585   0.00000  Uiso   1.00
C323   C     0.70833   0.61215   0.51058   0.00000  Uiso   1.00
C324   C     0.79952   0.61856   0.51715   0.00000  Uiso   1.00
C325   C     0.84029   0.66423   0.56254   0.00000  Uiso   1.00
C326   C     0.92378   0.66206   0.56061   0.00000  Uiso   1.00
C327   C     0.05911   0.67900   0.57779   0.00000  Uiso   1.00
C328   C     0.68857   0.52545   0.51707   0.00000  Uiso   1.00
C329   C     0.63605   0.49284   0.56238   0.00000  Uiso   1.00
C330   C     0.62614   0.41229   0.56037   0.00000  Uiso   1.00
C331   C     0.58917   0.28468   0.57738   0.00000  Uiso   1.00
C332   C     0.68884   0.63414   0.43986   0.00000  Uiso   1.00
C333   C     0.63653   0.69292   0.42025   0.00000  Uiso   1.00
C334   C     0.62684   0.70386   0.35323   0.00000  Uiso   1.00
C335   C     0.59030   0.74502   0.25037   0.00000  Uiso   1.00
C336   C     0.78411   0.52707   0.42643   0.00000  Uiso   1.00
C337   C     0.84067   0.57234   0.47144   0.00000  Uiso   1.00
C338   C     0.92413   0.57010   0.46944   0.00000  Uiso   1.00
C339   C     0.96502   0.61576   0.51482   0.00000  Uiso   1.00
C340   C     0.72973   0.47923   0.47136   0.00000  Uiso   1.00
C341   C     0.71989   0.39870   0.46928   0.00000  Uiso   1.00
C342   C     0.66737   0.36599   0.51458   0.00000  Uiso   1.00
C343   C     0.73001   0.58793   0.39415   0.00000  Uiso   1.00
C344   C     0.72039   0.59878   0.32715   0.00000  Uiso   1.00
C345   C     0.66808   0.65756   0.30744   0.00000  Uiso   1.00
H346   H     0.67628   0.64813   0.54617   0.00000  Uiso   1.00
H347   H     0.80841   0.69999   0.59791   0.00000  Uiso   1.00
H348   H     0.60420   0.52862   0.59774   0.00000  Uiso   1.00
H349   H     0.60469   0.72867   0.45564   0.00000  Uiso   1.00
H350   H     0.97305   0.73708   0.63514   0.00000  Uiso   1.00
H351   H     0.54243   0.37575   0.63477   0.00000  Uiso   1.00
H352   H     0.54347   0.79758   0.33511   0.00000  Uiso   1.00
H353   H     0.81616   0.49108   0.39084   0.00000  Uiso   1.00
H354   H     0.95597   0.53433   0.43406   0.00000  Uiso   1.00
H355   H     0.75175   0.36296   0.43390   0.00000  Uiso   1.00
H356   H     0.75225   0.56300   0.29179   0.00000  Uiso   1.00
H357   H     0.09281   0.60262   0.50216   0.00000  Uiso   1.00
H358   H     0.66219   0.24129   0.50178   0.00000  Uiso   1.00
H359   H     0.66324   0.66312   0.20213   0.00000  Uiso   1.00
O360   O     0.12238   0.70111   0.59990   0.00000  Uiso   1.00
O361   O     0.55741   0.22706   0.59940   0.00000  Uiso   1.00
O362   O     0.55878   0.78050   0.20626   0.00000  Uiso   1.00
N363   N     0.98205   0.69951   0.59790   0.00000  Uiso   1.00
N364   N     0.57946   0.36169   0.59756   0.00000  Uiso   1.00
N365   N     0.58042   0.75605   0.31741   0.00000  Uiso   1.00
N366   N     0.04649   0.62716   0.52634   0.00000  Uiso   1.00
N367   N     0.64390   0.28934   0.52600   0.00000  Uiso   1.00
N368   N     0.64486   0.68370   0.24585   0.00000  Uiso   1.00
