data_job_01451
_audit_creation_date              2018-12-19
_audit_creation_method            'Materials Studio'
_symmetry_space_group_name_H-M    'P1'
_symmetry_Int_Tables_number       1
_symmetry_cell_setting            triclinic
loop_
_symmetry_equiv_pos_as_xyz
  x,y,z
_cell_length_a                    14.1301
_cell_length_b                    8.6269
_cell_length_c                    24.8978
_cell_angle_alpha                 90.0000
_cell_angle_beta                  57.8477
_cell_angle_gamma                 90.0000
loop_
_atom_site_label
_atom_site_type_symbol
_atom_site_fract_x
_atom_site_fract_y
_atom_site_fract_z
_atom_site_U_iso_or_equiv
_atom_site_adp_type
_atom_site_occupancy
C1     C     0.77130   0.08148   0.97429   0.00000  Uiso   1.00
C2     C     0.89484   0.09786   0.92299   0.00000  Uiso   1.00
C3     C     0.97367   0.97994   0.90081   0.00000  Uiso   1.00
C4     C     0.08237   0.01842   0.85370   0.00000  Uiso   1.00
C5     C     0.26984   0.02089   0.77772   0.00000  Uiso   1.00
C6     C     0.74832   0.20046   0.02517   0.00000  Uiso   1.00
C7     C     0.70394   0.16880   0.08889   0.00000  Uiso   1.00
C8     C     0.68929   0.29365   0.12779   0.00000  Uiso   1.00
C9     C     0.64921   0.45542   0.21045   0.00000  Uiso   1.00
C10    C     0.70697   0.13667   0.94443   0.00000  Uiso   1.00
C11    C     0.62781   0.05140   0.94028   0.00000  Uiso   1.00
C12    C     0.57833   0.12256   0.91122   0.00000  Uiso   1.00
C13    C     0.47405   0.18530   0.86851   0.00000  Uiso   1.00
C14    C     0.82417   0.35951   0.93008   0.00000  Uiso   1.00
C15    C     0.92355   0.24888   0.89898   0.00000  Uiso   1.00
C16    C     0.03216   0.28754   0.85189   0.00000  Uiso   1.00
C17    C     0.11114   0.16970   0.82964   0.00000  Uiso   1.00
C18    C     0.77703   0.35147   0.00115   0.00000  Uiso   1.00
C19    C     0.76243   0.47640   0.03997   0.00000  Uiso   1.00
C20    C     0.71806   0.44494   0.10373   0.00000  Uiso   1.00
C21    C     0.73569   0.28768   0.92041   0.00000  Uiso   1.00
C22    C     0.68631   0.35900   0.89135   0.00000  Uiso   1.00
C23    C     0.60709   0.27385   0.88716   0.00000  Uiso   1.00
H24    H     0.74894   0.96392   0.99300   0.00000  Uiso   1.00
H25    H     0.95142   0.86309   0.91941   0.00000  Uiso   1.00
H26    H     0.68172   0.05192   0.10746   0.00000  Uiso   1.00
H27    H     0.60561   0.93454   0.95887   0.00000  Uiso   1.00
H28    H     0.18857   0.81791   0.82726   0.00000  Uiso   1.00
H29    H     0.61987   0.21608   0.22377   0.00000  Uiso   1.00
H30    H     0.45937   0.96856   0.91044   0.00000  Uiso   1.00
H31    H     0.84652   0.47709   0.91138   0.00000  Uiso   1.00
H32    H     0.05436   0.40442   0.83332   0.00000  Uiso   1.00
H33    H     0.78466   0.59325   0.02137   0.00000  Uiso   1.00
H34    H     0.70855   0.47587   0.87278   0.00000  Uiso   1.00
H35    H     0.27212   0.25728   0.75738   0.00000  Uiso   1.00
H36    H     0.70341   0.65545   0.15390   0.00000  Uiso   1.00
H37    H     0.54292   0.40792   0.84056   0.00000  Uiso   1.00
O38    O     0.36531   0.98054   0.74246   0.00000  Uiso   1.00
O39    O     0.61918   0.50293   0.26267   0.00000  Uiso   1.00
O40    O     0.40861   0.17818   0.85158   0.00000  Uiso   1.00
N41    N     0.17971   0.93128   0.82152   0.00000  Uiso   1.00
N42    N     0.64802   0.30355   0.19224   0.00000  Uiso   1.00
N43    N     0.49794   0.07214   0.89931   0.00000  Uiso   1.00
N44    N     0.22467   0.16770   0.78392   0.00000  Uiso   1.00
N45    N     0.69298   0.53996   0.15463   0.00000  Uiso   1.00
N46    N     0.54290   0.30856   0.86171   0.00000  Uiso   1.00
C47    C     0.22870   0.08148   0.52571   0.00000  Uiso   1.00
C48    C     0.10516   0.09786   0.57701   0.00000  Uiso   1.00
C49    C     0.02633   0.97994   0.59919   0.00000  Uiso   1.00
C50    C     0.91763   0.01842   0.64630   0.00000  Uiso   1.00
C51    C     0.73016   0.02089   0.72228   0.00000  Uiso   1.00
C52    C     0.25168   0.20046   0.47483   0.00000  Uiso   1.00
C53    C     0.29606   0.16880   0.41111   0.00000  Uiso   1.00
C54    C     0.31071   0.29365   0.37221   0.00000  Uiso   1.00
C55    C     0.35079   0.45542   0.28955   0.00000  Uiso   1.00
C56    C     0.29303   0.13667   0.55557   0.00000  Uiso   1.00
C57    C     0.37219   0.05140   0.55972   0.00000  Uiso   1.00
C58    C     0.42167   0.12256   0.58878   0.00000  Uiso   1.00
C59    C     0.52595   0.18530   0.63149   0.00000  Uiso   1.00
C60    C     0.17583   0.35951   0.56992   0.00000  Uiso   1.00
C61    C     0.07645   0.24888   0.60102   0.00000  Uiso   1.00
C62    C     0.96784   0.28754   0.64811   0.00000  Uiso   1.00
C63    C     0.88886   0.16970   0.67036   0.00000  Uiso   1.00
C64    C     0.22297   0.35147   0.49885   0.00000  Uiso   1.00
C65    C     0.23757   0.47640   0.46003   0.00000  Uiso   1.00
C66    C     0.28194   0.44494   0.39627   0.00000  Uiso   1.00
C67    C     0.26431   0.28768   0.57959   0.00000  Uiso   1.00
C68    C     0.31369   0.35900   0.60865   0.00000  Uiso   1.00
C69    C     0.39291   0.27385   0.61284   0.00000  Uiso   1.00
H70    H     0.25106   0.96392   0.50700   0.00000  Uiso   1.00
H71    H     0.04858   0.86309   0.58059   0.00000  Uiso   1.00
H72    H     0.31828   0.05192   0.39254   0.00000  Uiso   1.00
H73    H     0.39439   0.93454   0.54113   0.00000  Uiso   1.00
H74    H     0.81143   0.81791   0.67274   0.00000  Uiso   1.00
H75    H     0.38013   0.21608   0.27623   0.00000  Uiso   1.00
H76    H     0.54063   0.96856   0.58956   0.00000  Uiso   1.00
H77    H     0.15348   0.47709   0.58862   0.00000  Uiso   1.00
H78    H     0.94564   0.40442   0.66668   0.00000  Uiso   1.00
H79    H     0.21534   0.59325   0.47863   0.00000  Uiso   1.00
H80    H     0.29145   0.47587   0.62722   0.00000  Uiso   1.00
H81    H     0.72788   0.25728   0.74262   0.00000  Uiso   1.00
H82    H     0.29659   0.65545   0.34610   0.00000  Uiso   1.00
H83    H     0.45708   0.40792   0.65944   0.00000  Uiso   1.00
O84    O     0.63469   0.98054   0.75754   0.00000  Uiso   1.00
O85    O     0.38082   0.50293   0.23733   0.00000  Uiso   1.00
O86    O     0.59139   0.17818   0.64842   0.00000  Uiso   1.00
N87    N     0.82029   0.93128   0.67848   0.00000  Uiso   1.00
N88    N     0.35198   0.30355   0.30776   0.00000  Uiso   1.00
N89    N     0.50206   0.07214   0.60069   0.00000  Uiso   1.00
N90    N     0.77533   0.16770   0.71608   0.00000  Uiso   1.00
N91    N     0.30702   0.53996   0.34537   0.00000  Uiso   1.00
N92    N     0.45710   0.30856   0.63829   0.00000  Uiso   1.00
C93    C     0.22870   0.91852   0.02571   0.00000  Uiso   1.00
C94    C     0.10516   0.90214   0.07701   0.00000  Uiso   1.00
C95    C     0.02633   0.02006   0.09919   0.00000  Uiso   1.00
C96    C     0.91763   0.98158   0.14630   0.00000  Uiso   1.00
C97    C     0.73016   0.97911   0.22228   0.00000  Uiso   1.00
C98    C     0.25168   0.79954   0.97483   0.00000  Uiso   1.00
C99    C     0.29606   0.83120   0.91111   0.00000  Uiso   1.00
C100   C     0.31071   0.70635   0.87221   0.00000  Uiso   1.00
C101   C     0.35079   0.54458   0.78955   0.00000  Uiso   1.00
C102   C     0.29303   0.86333   0.05557   0.00000  Uiso   1.00
C103   C     0.37219   0.94860   0.05972   0.00000  Uiso   1.00
C104   C     0.42167   0.87744   0.08878   0.00000  Uiso   1.00
C105   C     0.52595   0.81470   0.13149   0.00000  Uiso   1.00
C106   C     0.17583   0.64049   0.06992   0.00000  Uiso   1.00
C107   C     0.07645   0.75112   0.10102   0.00000  Uiso   1.00
C108   C     0.96784   0.71246   0.14811   0.00000  Uiso   1.00
C109   C     0.88886   0.83030   0.17036   0.00000  Uiso   1.00
C110   C     0.22297   0.64853   0.99885   0.00000  Uiso   1.00
C111   C     0.23757   0.52360   0.96003   0.00000  Uiso   1.00
C112   C     0.28194   0.55506   0.89627   0.00000  Uiso   1.00
C113   C     0.26431   0.71232   0.07959   0.00000  Uiso   1.00
C114   C     0.31369   0.64100   0.10865   0.00000  Uiso   1.00
C115   C     0.39291   0.72615   0.11284   0.00000  Uiso   1.00
H116   H     0.25106   0.03608   0.00700   0.00000  Uiso   1.00
H117   H     0.04858   0.13691   0.08059   0.00000  Uiso   1.00
H118   H     0.31828   0.94808   0.89254   0.00000  Uiso   1.00
H119   H     0.39439   0.06546   0.04113   0.00000  Uiso   1.00
H120   H     0.81143   0.18209   0.17274   0.00000  Uiso   1.00
H121   H     0.38013   0.78392   0.77623   0.00000  Uiso   1.00
H122   H     0.54063   0.03144   0.08956   0.00000  Uiso   1.00
H123   H     0.15348   0.52291   0.08862   0.00000  Uiso   1.00
H124   H     0.94564   0.59558   0.16668   0.00000  Uiso   1.00
H125   H     0.21534   0.40675   0.97863   0.00000  Uiso   1.00
H126   H     0.29145   0.52413   0.12722   0.00000  Uiso   1.00
H127   H     0.72788   0.74272   0.24262   0.00000  Uiso   1.00
H128   H     0.29659   0.34455   0.84610   0.00000  Uiso   1.00
H129   H     0.45708   0.59208   0.15944   0.00000  Uiso   1.00
O130   O     0.63469   0.01946   0.25754   0.00000  Uiso   1.00
O131   O     0.38082   0.49707   0.73733   0.00000  Uiso   1.00
O132   O     0.59139   0.82182   0.14842   0.00000  Uiso   1.00
N133   N     0.82029   0.06872   0.17848   0.00000  Uiso   1.00
N134   N     0.35198   0.69645   0.80776   0.00000  Uiso   1.00
N135   N     0.50206   0.92786   0.10069   0.00000  Uiso   1.00
N136   N     0.77533   0.83230   0.21608   0.00000  Uiso   1.00
N137   N     0.30702   0.46004   0.84537   0.00000  Uiso   1.00
N138   N     0.45710   0.69144   0.13829   0.00000  Uiso   1.00
C139   C     0.77130   0.91852   0.47429   0.00000  Uiso   1.00
C140   C     0.89484   0.90214   0.42299   0.00000  Uiso   1.00
C141   C     0.97367   0.02006   0.40081   0.00000  Uiso   1.00
C142   C     0.08237   0.98158   0.35370   0.00000  Uiso   1.00
C143   C     0.26984   0.97911   0.27772   0.00000  Uiso   1.00
C144   C     0.74832   0.79954   0.52517   0.00000  Uiso   1.00
C145   C     0.70394   0.83120   0.58889   0.00000  Uiso   1.00
C146   C     0.68929   0.70635   0.62779   0.00000  Uiso   1.00
C147   C     0.64921   0.54458   0.71045   0.00000  Uiso   1.00
C148   C     0.70697   0.86333   0.44443   0.00000  Uiso   1.00
C149   C     0.62781   0.94860   0.44028   0.00000  Uiso   1.00
C150   C     0.57833   0.87744   0.41122   0.00000  Uiso   1.00
C151   C     0.47405   0.81470   0.36851   0.00000  Uiso   1.00
C152   C     0.82417   0.64049   0.43008   0.00000  Uiso   1.00
C153   C     0.92355   0.75112   0.39898   0.00000  Uiso   1.00
C154   C     0.03216   0.71246   0.35189   0.00000  Uiso   1.00
C155   C     0.11114   0.83030   0.32964   0.00000  Uiso   1.00
C156   C     0.77703   0.64853   0.50115   0.00000  Uiso   1.00
C157   C     0.76243   0.52360   0.53997   0.00000  Uiso   1.00
C158   C     0.71806   0.55506   0.60373   0.00000  Uiso   1.00
C159   C     0.73569   0.71232   0.42041   0.00000  Uiso   1.00
C160   C     0.68631   0.64100   0.39135   0.00000  Uiso   1.00
C161   C     0.60709   0.72615   0.38716   0.00000  Uiso   1.00
H162   H     0.74894   0.03608   0.49300   0.00000  Uiso   1.00
H163   H     0.95142   0.13691   0.41941   0.00000  Uiso   1.00
H164   H     0.68172   0.94808   0.60746   0.00000  Uiso   1.00
H165   H     0.60561   0.06546   0.45887   0.00000  Uiso   1.00
H166   H     0.18857   0.18209   0.32726   0.00000  Uiso   1.00
H167   H     0.61987   0.78392   0.72377   0.00000  Uiso   1.00
H168   H     0.45937   0.03144   0.41044   0.00000  Uiso   1.00
H169   H     0.84652   0.52291   0.41138   0.00000  Uiso   1.00
H170   H     0.05436   0.59558   0.33332   0.00000  Uiso   1.00
H171   H     0.78466   0.40675   0.52137   0.00000  Uiso   1.00
H172   H     0.70855   0.52413   0.37278   0.00000  Uiso   1.00
H173   H     0.27212   0.74272   0.25738   0.00000  Uiso   1.00
H174   H     0.70341   0.34455   0.65390   0.00000  Uiso   1.00
H175   H     0.54292   0.59208   0.34056   0.00000  Uiso   1.00
O176   O     0.36531   0.01946   0.24246   0.00000  Uiso   1.00
O177   O     0.61918   0.49707   0.76267   0.00000  Uiso   1.00
O178   O     0.40861   0.82182   0.35158   0.00000  Uiso   1.00
N179   N     0.17971   0.06872   0.32152   0.00000  Uiso   1.00
N180   N     0.64802   0.69645   0.69224   0.00000  Uiso   1.00
N181   N     0.49794   0.92786   0.39931   0.00000  Uiso   1.00
N182   N     0.22467   0.83230   0.28392   0.00000  Uiso   1.00
N183   N     0.69298   0.46004   0.65463   0.00000  Uiso   1.00
N184   N     0.54290   0.69144   0.36171   0.00000  Uiso   1.00
