data_job_00670
_audit_creation_date              2018-12-19
_audit_creation_method            'Materials Studio'
_symmetry_space_group_name_H-M    'P1'
_symmetry_Int_Tables_number       1
_symmetry_cell_setting            triclinic
loop_
_symmetry_equiv_pos_as_xyz
  x,y,z
_cell_length_a                    12.1851
_cell_length_b                    18.0203
_cell_length_c                    22.4131
_cell_angle_alpha                 90.0000
_cell_angle_beta                  90.0000
_cell_angle_gamma                 90.0000
loop_
_atom_site_label
_atom_site_type_symbol
_atom_site_fract_x
_atom_site_fract_y
_atom_site_fract_z
_atom_site_U_iso_or_equiv
_atom_site_adp_type
_atom_site_occupancy
C1     C     0.25095   0.91468   0.31735   0.00000  Uiso   1.00
C2     C     0.22135   0.83353   0.30676   0.00000  Uiso   1.00
C3     C     0.22554   0.79692   0.25233   0.00000  Uiso   1.00
C4     C     0.19518   0.72266   0.25195   0.00000  Uiso   1.00
C5     C     0.15434   0.60215   0.22756   0.00000  Uiso   1.00
C6     C     0.33945   0.91458   0.36546   0.00000  Uiso   1.00
C7     C     0.44292   0.94614   0.36039   0.00000  Uiso   1.00
C8     C     0.51198   0.94012   0.40943   0.00000  Uiso   1.00
C9     C     0.65445   0.94550   0.47619   0.00000  Uiso   1.00
C10    C     0.15002   0.95017   0.34570   0.00000  Uiso   1.00
C11    C     0.09424   0.01167   0.32402   0.00000  Uiso   1.00
C12    C     0.00383   0.03563   0.35643   0.00000  Uiso   1.00
C13    C     0.85219   0.09627   0.39252   0.00000  Uiso   1.00
C14    C     0.18959   0.84790   0.41346   0.00000  Uiso   1.00
C15    C     0.18802   0.79725   0.35896   0.00000  Uiso   1.00
C16    C     0.15764   0.72303   0.35866   0.00000  Uiso   1.00
C17    C     0.16179   0.68632   0.30424   0.00000  Uiso   1.00
C18    C     0.30612   0.87831   0.41766   0.00000  Uiso   1.00
C19    C     0.37503   0.87224   0.46672   0.00000  Uiso   1.00
C20    C     0.47859   0.90378   0.46172   0.00000  Uiso   1.00
C21    C     0.11669   0.91390   0.39790   0.00000  Uiso   1.00
C22    C     0.02635   0.93777   0.43035   0.00000  Uiso   1.00
C23    C     0.97044   0.99929   0.40873   0.00000  Uiso   1.00
H24    H     0.27691   0.94293   0.27671   0.00000  Uiso   1.00
H25    H     0.25135   0.82501   0.21194   0.00000  Uiso   1.00
H26    H     0.46869   0.97421   0.31999   0.00000  Uiso   1.00
H27    H     0.12006   0.03973   0.28363   0.00000  Uiso   1.00
H28    H     0.20835   0.67828   0.16316   0.00000  Uiso   1.00
H29    H     0.66662   0.99289   0.39099   0.00000  Uiso   1.00
H30    H     0.93146   0.13105   0.31431   0.00000  Uiso   1.00
H31    H     0.16364   0.81965   0.45410   0.00000  Uiso   1.00
H32    H     0.13186   0.69497   0.39906   0.00000  Uiso   1.00
H33    H     0.34921   0.84417   0.50711   0.00000  Uiso   1.00
H34    H     0.00058   0.90969   0.47075   0.00000  Uiso   1.00
H35    H     0.11137   0.57273   0.31503   0.00000  Uiso   1.00
H36    H     0.56964   0.88735   0.54286   0.00000  Uiso   1.00
H37    H     0.83449   0.02550   0.46619   0.00000  Uiso   1.00
O38    O     0.14103   0.54570   0.19969   0.00000  Uiso   1.00
O39    O     0.74225   0.95848   0.49860   0.00000  Uiso   1.00
O40    O     0.77775   0.13974   0.39800   0.00000  Uiso   1.00
N41    N     0.18986   0.67055   0.20645   0.00000  Uiso   1.00
N42    N     0.61833   0.96469   0.41945   0.00000  Uiso   1.00
N43    N     0.93104   0.09387   0.34778   0.00000  Uiso   1.00
N44    N     0.13768   0.61376   0.28817   0.00000  Uiso   1.00
N45    N     0.56614   0.90789   0.50118   0.00000  Uiso   1.00
N46    N     0.87885   0.03707   0.42950   0.00000  Uiso   1.00
C47    C     0.24905   0.58532   0.81735   0.00000  Uiso   1.00
C48    C     0.27865   0.66647   0.80676   0.00000  Uiso   1.00
C49    C     0.27446   0.70308   0.75233   0.00000  Uiso   1.00
C50    C     0.30482   0.77734   0.75195   0.00000  Uiso   1.00
C51    C     0.34566   0.89785   0.72756   0.00000  Uiso   1.00
C52    C     0.16055   0.58542   0.86546   0.00000  Uiso   1.00
C53    C     0.05708   0.55386   0.86039   0.00000  Uiso   1.00
C54    C     0.98802   0.55988   0.90943   0.00000  Uiso   1.00
C55    C     0.84555   0.55450   0.97619   0.00000  Uiso   1.00
C56    C     0.34998   0.54983   0.84570   0.00000  Uiso   1.00
C57    C     0.40576   0.48833   0.82402   0.00000  Uiso   1.00
C58    C     0.49617   0.46437   0.85643   0.00000  Uiso   1.00
C59    C     0.64781   0.40373   0.89252   0.00000  Uiso   1.00
C60    C     0.31041   0.65210   0.91346   0.00000  Uiso   1.00
C61    C     0.31198   0.70275   0.85896   0.00000  Uiso   1.00
C62    C     0.34236   0.77697   0.85866   0.00000  Uiso   1.00
C63    C     0.33821   0.81368   0.80424   0.00000  Uiso   1.00
C64    C     0.19388   0.62169   0.91766   0.00000  Uiso   1.00
C65    C     0.12497   0.62776   0.96672   0.00000  Uiso   1.00
C66    C     0.02141   0.59622   0.96172   0.00000  Uiso   1.00
C67    C     0.38331   0.58610   0.89790   0.00000  Uiso   1.00
C68    C     0.47365   0.56223   0.93035   0.00000  Uiso   1.00
C69    C     0.52956   0.50071   0.90873   0.00000  Uiso   1.00
H70    H     0.22309   0.55707   0.77671   0.00000  Uiso   1.00
H71    H     0.24865   0.67499   0.71194   0.00000  Uiso   1.00
H72    H     0.03131   0.52579   0.81999   0.00000  Uiso   1.00
H73    H     0.37994   0.46027   0.78363   0.00000  Uiso   1.00
H74    H     0.29165   0.82172   0.66316   0.00000  Uiso   1.00
H75    H     0.83338   0.50711   0.89099   0.00000  Uiso   1.00
H76    H     0.56854   0.36895   0.81431   0.00000  Uiso   1.00
H77    H     0.33636   0.68035   0.95410   0.00000  Uiso   1.00
H78    H     0.36814   0.80503   0.89906   0.00000  Uiso   1.00
H79    H     0.15079   0.65583   0.00711   0.00000  Uiso   1.00
H80    H     0.49942   0.59031   0.97075   0.00000  Uiso   1.00
H81    H     0.38863   0.92727   0.81503   0.00000  Uiso   1.00
H82    H     0.93036   0.61265   0.04286   0.00000  Uiso   1.00
H83    H     0.66551   0.47450   0.96619   0.00000  Uiso   1.00
O84    O     0.35897   0.95430   0.69969   0.00000  Uiso   1.00
O85    O     0.75775   0.54152   0.99860   0.00000  Uiso   1.00
O86    O     0.72225   0.36026   0.89800   0.00000  Uiso   1.00
N87    N     0.31014   0.82945   0.70645   0.00000  Uiso   1.00
N88    N     0.88167   0.53531   0.91945   0.00000  Uiso   1.00
N89    N     0.56896   0.40613   0.84778   0.00000  Uiso   1.00
N90    N     0.36232   0.88624   0.78817   0.00000  Uiso   1.00
N91    N     0.93386   0.59211   0.00118   0.00000  Uiso   1.00
N92    N     0.62115   0.46293   0.92950   0.00000  Uiso   1.00
C93    C     0.74905   0.91468   0.18265   0.00000  Uiso   1.00
C94    C     0.77865   0.83353   0.19324   0.00000  Uiso   1.00
C95    C     0.77446   0.79692   0.24767   0.00000  Uiso   1.00
C96    C     0.80482   0.72266   0.24805   0.00000  Uiso   1.00
C97    C     0.84566   0.60215   0.27244   0.00000  Uiso   1.00
C98    C     0.66055   0.91458   0.13454   0.00000  Uiso   1.00
C99    C     0.55708   0.94614   0.13961   0.00000  Uiso   1.00
C100   C     0.48802   0.94012   0.09057   0.00000  Uiso   1.00
C101   C     0.34555   0.94550   0.02381   0.00000  Uiso   1.00
C102   C     0.84998   0.95017   0.15430   0.00000  Uiso   1.00
C103   C     0.90576   0.01167   0.17598   0.00000  Uiso   1.00
C104   C     0.99617   0.03563   0.14357   0.00000  Uiso   1.00
C105   C     0.14781   0.09627   0.10748   0.00000  Uiso   1.00
C106   C     0.81041   0.84790   0.08654   0.00000  Uiso   1.00
C107   C     0.81198   0.79725   0.14104   0.00000  Uiso   1.00
C108   C     0.84236   0.72303   0.14134   0.00000  Uiso   1.00
C109   C     0.83821   0.68632   0.19576   0.00000  Uiso   1.00
C110   C     0.69388   0.87831   0.08234   0.00000  Uiso   1.00
C111   C     0.62497   0.87224   0.03328   0.00000  Uiso   1.00
C112   C     0.52141   0.90378   0.03828   0.00000  Uiso   1.00
C113   C     0.88331   0.91390   0.10210   0.00000  Uiso   1.00
C114   C     0.97365   0.93777   0.06965   0.00000  Uiso   1.00
C115   C     0.02956   0.99929   0.09127   0.00000  Uiso   1.00
H116   H     0.72309   0.94293   0.22329   0.00000  Uiso   1.00
H117   H     0.74865   0.82501   0.28806   0.00000  Uiso   1.00
H118   H     0.53131   0.97421   0.18001   0.00000  Uiso   1.00
H119   H     0.87994   0.03973   0.21637   0.00000  Uiso   1.00
H120   H     0.79165   0.67828   0.33684   0.00000  Uiso   1.00
H121   H     0.33338   0.99289   0.10901   0.00000  Uiso   1.00
H122   H     0.06854   0.13105   0.18569   0.00000  Uiso   1.00
H123   H     0.83636   0.81965   0.04590   0.00000  Uiso   1.00
H124   H     0.86814   0.69497   0.10094   0.00000  Uiso   1.00
H125   H     0.65079   0.84417   0.99289   0.00000  Uiso   1.00
H126   H     0.99942   0.90969   0.02925   0.00000  Uiso   1.00
H127   H     0.88863   0.57273   0.18497   0.00000  Uiso   1.00
H128   H     0.43036   0.88735   0.95714   0.00000  Uiso   1.00
H129   H     0.16551   0.02550   0.03381   0.00000  Uiso   1.00
O130   O     0.85897   0.54570   0.30031   0.00000  Uiso   1.00
O131   O     0.25775   0.95848   0.00140   0.00000  Uiso   1.00
O132   O     0.22225   0.13974   0.10200   0.00000  Uiso   1.00
N133   N     0.81014   0.67055   0.29355   0.00000  Uiso   1.00
N134   N     0.38167   0.96469   0.08055   0.00000  Uiso   1.00
N135   N     0.06896   0.09387   0.15222   0.00000  Uiso   1.00
N136   N     0.86232   0.61376   0.21183   0.00000  Uiso   1.00
N137   N     0.43386   0.90789   0.99882   0.00000  Uiso   1.00
N138   N     0.12115   0.03707   0.07050   0.00000  Uiso   1.00
C139   C     0.75095   0.58532   0.68265   0.00000  Uiso   1.00
C140   C     0.72135   0.66647   0.69324   0.00000  Uiso   1.00
C141   C     0.72554   0.70308   0.74767   0.00000  Uiso   1.00
C142   C     0.69518   0.77734   0.74805   0.00000  Uiso   1.00
C143   C     0.65434   0.89785   0.77244   0.00000  Uiso   1.00
C144   C     0.83945   0.58542   0.63454   0.00000  Uiso   1.00
C145   C     0.94292   0.55386   0.63961   0.00000  Uiso   1.00
C146   C     0.01198   0.55988   0.59057   0.00000  Uiso   1.00
C147   C     0.15445   0.55450   0.52381   0.00000  Uiso   1.00
C148   C     0.65002   0.54983   0.65430   0.00000  Uiso   1.00
C149   C     0.59424   0.48833   0.67598   0.00000  Uiso   1.00
C150   C     0.50383   0.46437   0.64357   0.00000  Uiso   1.00
C151   C     0.35219   0.40373   0.60748   0.00000  Uiso   1.00
C152   C     0.68959   0.65210   0.58654   0.00000  Uiso   1.00
C153   C     0.68802   0.70275   0.64104   0.00000  Uiso   1.00
C154   C     0.65764   0.77697   0.64134   0.00000  Uiso   1.00
C155   C     0.66179   0.81368   0.69576   0.00000  Uiso   1.00
C156   C     0.80612   0.62169   0.58234   0.00000  Uiso   1.00
C157   C     0.87503   0.62776   0.53328   0.00000  Uiso   1.00
C158   C     0.97859   0.59622   0.53828   0.00000  Uiso   1.00
C159   C     0.61669   0.58610   0.60210   0.00000  Uiso   1.00
C160   C     0.52635   0.56223   0.56965   0.00000  Uiso   1.00
C161   C     0.47044   0.50071   0.59127   0.00000  Uiso   1.00
H162   H     0.77691   0.55707   0.72329   0.00000  Uiso   1.00
H163   H     0.75135   0.67499   0.78806   0.00000  Uiso   1.00
H164   H     0.96869   0.52579   0.68001   0.00000  Uiso   1.00
H165   H     0.62006   0.46027   0.71637   0.00000  Uiso   1.00
H166   H     0.70835   0.82172   0.83684   0.00000  Uiso   1.00
H167   H     0.16662   0.50711   0.60901   0.00000  Uiso   1.00
H168   H     0.43146   0.36895   0.68569   0.00000  Uiso   1.00
H169   H     0.66364   0.68035   0.54590   0.00000  Uiso   1.00
H170   H     0.63186   0.80503   0.60094   0.00000  Uiso   1.00
H171   H     0.84921   0.65583   0.49289   0.00000  Uiso   1.00
H172   H     0.50058   0.59031   0.52925   0.00000  Uiso   1.00
H173   H     0.61137   0.92727   0.68497   0.00000  Uiso   1.00
H174   H     0.06964   0.61265   0.45714   0.00000  Uiso   1.00
H175   H     0.33449   0.47450   0.53381   0.00000  Uiso   1.00
O176   O     0.64103   0.95430   0.80031   0.00000  Uiso   1.00
O177   O     0.24225   0.54152   0.50140   0.00000  Uiso   1.00
O178   O     0.27775   0.36026   0.60200   0.00000  Uiso   1.00
N179   N     0.68986   0.82945   0.79355   0.00000  Uiso   1.00
N180   N     0.11833   0.53531   0.58055   0.00000  Uiso   1.00
N181   N     0.43104   0.40613   0.65222   0.00000  Uiso   1.00
N182   N     0.63768   0.88624   0.71183   0.00000  Uiso   1.00
N183   N     0.06614   0.59211   0.49882   0.00000  Uiso   1.00
N184   N     0.37885   0.46293   0.57050   0.00000  Uiso   1.00
C185   C     0.74905   0.08532   0.68265   0.00000  Uiso   1.00
C186   C     0.77865   0.16647   0.69324   0.00000  Uiso   1.00
C187   C     0.77446   0.20308   0.74767   0.00000  Uiso   1.00
C188   C     0.80482   0.27734   0.74805   0.00000  Uiso   1.00
C189   C     0.84566   0.39785   0.77244   0.00000  Uiso   1.00
C190   C     0.66055   0.08542   0.63454   0.00000  Uiso   1.00
C191   C     0.55708   0.05386   0.63961   0.00000  Uiso   1.00
C192   C     0.48802   0.05988   0.59057   0.00000  Uiso   1.00
C193   C     0.34555   0.05450   0.52381   0.00000  Uiso   1.00
C194   C     0.84998   0.04983   0.65430   0.00000  Uiso   1.00
C195   C     0.90576   0.98833   0.67598   0.00000  Uiso   1.00
C196   C     0.99617   0.96437   0.64357   0.00000  Uiso   1.00
C197   C     0.14781   0.90373   0.60748   0.00000  Uiso   1.00
C198   C     0.81041   0.15210   0.58654   0.00000  Uiso   1.00
C199   C     0.81198   0.20275   0.64104   0.00000  Uiso   1.00
C200   C     0.84236   0.27697   0.64134   0.00000  Uiso   1.00
C201   C     0.83821   0.31368   0.69576   0.00000  Uiso   1.00
C202   C     0.69388   0.12169   0.58234   0.00000  Uiso   1.00
C203   C     0.62497   0.12776   0.53328   0.00000  Uiso   1.00
C204   C     0.52141   0.09622   0.53828   0.00000  Uiso   1.00
C205   C     0.88331   0.08610   0.60210   0.00000  Uiso   1.00
C206   C     0.97365   0.06223   0.56965   0.00000  Uiso   1.00
C207   C     0.02956   0.00071   0.59127   0.00000  Uiso   1.00
H208   H     0.72309   0.05707   0.72329   0.00000  Uiso   1.00
H209   H     0.74865   0.17499   0.78806   0.00000  Uiso   1.00
H210   H     0.53131   0.02579   0.68001   0.00000  Uiso   1.00
H211   H     0.87994   0.96027   0.71637   0.00000  Uiso   1.00
H212   H     0.79165   0.32172   0.83684   0.00000  Uiso   1.00
H213   H     0.33338   0.00711   0.60901   0.00000  Uiso   1.00
H214   H     0.06854   0.86895   0.68569   0.00000  Uiso   1.00
H215   H     0.83636   0.18035   0.54590   0.00000  Uiso   1.00
H216   H     0.86814   0.30503   0.60094   0.00000  Uiso   1.00
H217   H     0.65079   0.15583   0.49289   0.00000  Uiso   1.00
H218   H     0.99942   0.09031   0.52925   0.00000  Uiso   1.00
H219   H     0.88863   0.42727   0.68497   0.00000  Uiso   1.00
H220   H     0.43036   0.11265   0.45714   0.00000  Uiso   1.00
H221   H     0.16551   0.97450   0.53381   0.00000  Uiso   1.00
O222   O     0.85897   0.45430   0.80031   0.00000  Uiso   1.00
O223   O     0.25775   0.04152   0.50140   0.00000  Uiso   1.00
O224   O     0.22225   0.86026   0.60200   0.00000  Uiso   1.00
N225   N     0.81014   0.32945   0.79355   0.00000  Uiso   1.00
N226   N     0.38167   0.03531   0.58055   0.00000  Uiso   1.00
N227   N     0.06896   0.90613   0.65222   0.00000  Uiso   1.00
N228   N     0.86232   0.38624   0.71183   0.00000  Uiso   1.00
N229   N     0.43386   0.09211   0.49882   0.00000  Uiso   1.00
N230   N     0.12115   0.96293   0.57050   0.00000  Uiso   1.00
C231   C     0.75095   0.41468   0.18265   0.00000  Uiso   1.00
C232   C     0.72135   0.33353   0.19324   0.00000  Uiso   1.00
C233   C     0.72554   0.29692   0.24767   0.00000  Uiso   1.00
C234   C     0.69518   0.22266   0.24805   0.00000  Uiso   1.00
C235   C     0.65434   0.10215   0.27244   0.00000  Uiso   1.00
C236   C     0.83945   0.41458   0.13454   0.00000  Uiso   1.00
C237   C     0.94292   0.44614   0.13961   0.00000  Uiso   1.00
C238   C     0.01198   0.44012   0.09057   0.00000  Uiso   1.00
C239   C     0.15445   0.44550   0.02381   0.00000  Uiso   1.00
C240   C     0.65002   0.45017   0.15430   0.00000  Uiso   1.00
C241   C     0.59424   0.51167   0.17598   0.00000  Uiso   1.00
C242   C     0.50383   0.53563   0.14357   0.00000  Uiso   1.00
C243   C     0.35219   0.59627   0.10748   0.00000  Uiso   1.00
C244   C     0.68959   0.34790   0.08654   0.00000  Uiso   1.00
C245   C     0.68802   0.29725   0.14104   0.00000  Uiso   1.00
C246   C     0.65764   0.22303   0.14134   0.00000  Uiso   1.00
C247   C     0.66179   0.18632   0.19576   0.00000  Uiso   1.00
C248   C     0.80612   0.37831   0.08234   0.00000  Uiso   1.00
C249   C     0.87503   0.37224   0.03328   0.00000  Uiso   1.00
C250   C     0.97859   0.40378   0.03828   0.00000  Uiso   1.00
C251   C     0.61669   0.41390   0.10210   0.00000  Uiso   1.00
C252   C     0.52635   0.43777   0.06965   0.00000  Uiso   1.00
C253   C     0.47044   0.49929   0.09127   0.00000  Uiso   1.00
H254   H     0.77691   0.44293   0.22329   0.00000  Uiso   1.00
H255   H     0.75135   0.32501   0.28806   0.00000  Uiso   1.00
H256   H     0.96869   0.47421   0.18001   0.00000  Uiso   1.00
H257   H     0.62006   0.53973   0.21637   0.00000  Uiso   1.00
H258   H     0.70835   0.17828   0.33684   0.00000  Uiso   1.00
H259   H     0.16662   0.49289   0.10901   0.00000  Uiso   1.00
H260   H     0.43146   0.63105   0.18569   0.00000  Uiso   1.00
H261   H     0.66364   0.31965   0.04590   0.00000  Uiso   1.00
H262   H     0.63186   0.19497   0.10094   0.00000  Uiso   1.00
H263   H     0.84921   0.34417   0.99289   0.00000  Uiso   1.00
H264   H     0.50058   0.40969   0.02925   0.00000  Uiso   1.00
H265   H     0.61137   0.07273   0.18497   0.00000  Uiso   1.00
H266   H     0.06964   0.38735   0.95714   0.00000  Uiso   1.00
H267   H     0.33449   0.52550   0.03381   0.00000  Uiso   1.00
O268   O     0.64103   0.04570   0.30031   0.00000  Uiso   1.00
O269   O     0.24225   0.45848   0.00140   0.00000  Uiso   1.00
O270   O     0.27775   0.63974   0.10200   0.00000  Uiso   1.00
N271   N     0.68986   0.17055   0.29355   0.00000  Uiso   1.00
N272   N     0.11833   0.46469   0.08055   0.00000  Uiso   1.00
N273   N     0.43104   0.59387   0.15222   0.00000  Uiso   1.00
N274   N     0.63768   0.11376   0.21183   0.00000  Uiso   1.00
N275   N     0.06614   0.40789   0.99882   0.00000  Uiso   1.00
N276   N     0.37885   0.53707   0.07050   0.00000  Uiso   1.00
C277   C     0.25095   0.08532   0.81735   0.00000  Uiso   1.00
C278   C     0.22135   0.16647   0.80676   0.00000  Uiso   1.00
C279   C     0.22554   0.20308   0.75233   0.00000  Uiso   1.00
C280   C     0.19518   0.27734   0.75195   0.00000  Uiso   1.00
C281   C     0.15434   0.39785   0.72756   0.00000  Uiso   1.00
C282   C     0.33945   0.08542   0.86546   0.00000  Uiso   1.00
C283   C     0.44292   0.05386   0.86039   0.00000  Uiso   1.00
C284   C     0.51198   0.05988   0.90943   0.00000  Uiso   1.00
C285   C     0.65445   0.05450   0.97619   0.00000  Uiso   1.00
C286   C     0.15002   0.04983   0.84570   0.00000  Uiso   1.00
C287   C     0.09424   0.98833   0.82402   0.00000  Uiso   1.00
C288   C     0.00383   0.96437   0.85643   0.00000  Uiso   1.00
C289   C     0.85219   0.90373   0.89252   0.00000  Uiso   1.00
C290   C     0.18959   0.15210   0.91346   0.00000  Uiso   1.00
C291   C     0.18802   0.20275   0.85896   0.00000  Uiso   1.00
C292   C     0.15764   0.27697   0.85866   0.00000  Uiso   1.00
C293   C     0.16179   0.31368   0.80424   0.00000  Uiso   1.00
C294   C     0.30612   0.12169   0.91766   0.00000  Uiso   1.00
C295   C     0.37503   0.12776   0.96672   0.00000  Uiso   1.00
C296   C     0.47859   0.09622   0.96172   0.00000  Uiso   1.00
C297   C     0.11669   0.08610   0.89790   0.00000  Uiso   1.00
C298   C     0.02635   0.06223   0.93035   0.00000  Uiso   1.00
C299   C     0.97044   0.00071   0.90873   0.00000  Uiso   1.00
H300   H     0.27691   0.05707   0.77671   0.00000  Uiso   1.00
H301   H     0.25135   0.17499   0.71194   0.00000  Uiso   1.00
H302   H     0.46869   0.02579   0.81999   0.00000  Uiso   1.00
H303   H     0.12006   0.96027   0.78363   0.00000  Uiso   1.00
H304   H     0.20835   0.32172   0.66316   0.00000  Uiso   1.00
H305   H     0.66662   0.00711   0.89099   0.00000  Uiso   1.00
H306   H     0.93146   0.86895   0.81431   0.00000  Uiso   1.00
H307   H     0.16364   0.18035   0.95410   0.00000  Uiso   1.00
H308   H     0.13186   0.30503   0.89906   0.00000  Uiso   1.00
H309   H     0.34921   0.15583   0.00711   0.00000  Uiso   1.00
H310   H     0.00058   0.09031   0.97075   0.00000  Uiso   1.00
H311   H     0.11137   0.42727   0.81503   0.00000  Uiso   1.00
H312   H     0.56964   0.11265   0.04286   0.00000  Uiso   1.00
H313   H     0.83449   0.97450   0.96619   0.00000  Uiso   1.00
O314   O     0.14103   0.45430   0.69969   0.00000  Uiso   1.00
O315   O     0.74225   0.04152   0.99860   0.00000  Uiso   1.00
O316   O     0.77775   0.86026   0.89800   0.00000  Uiso   1.00
N317   N     0.18986   0.32945   0.70645   0.00000  Uiso   1.00
N318   N     0.61833   0.03531   0.91945   0.00000  Uiso   1.00
N319   N     0.93104   0.90613   0.84778   0.00000  Uiso   1.00
N320   N     0.13768   0.38624   0.78817   0.00000  Uiso   1.00
N321   N     0.56614   0.09211   0.00118   0.00000  Uiso   1.00
N322   N     0.87885   0.96293   0.92950   0.00000  Uiso   1.00
C323   C     0.24905   0.41468   0.31735   0.00000  Uiso   1.00
C324   C     0.27865   0.33353   0.30676   0.00000  Uiso   1.00
C325   C     0.27446   0.29692   0.25233   0.00000  Uiso   1.00
C326   C     0.30482   0.22266   0.25195   0.00000  Uiso   1.00
C327   C     0.34566   0.10215   0.22756   0.00000  Uiso   1.00
C328   C     0.16055   0.41458   0.36546   0.00000  Uiso   1.00
C329   C     0.05708   0.44614   0.36039   0.00000  Uiso   1.00
C330   C     0.98802   0.44012   0.40943   0.00000  Uiso   1.00
C331   C     0.84555   0.44550   0.47619   0.00000  Uiso   1.00
C332   C     0.34998   0.45017   0.34570   0.00000  Uiso   1.00
C333   C     0.40576   0.51167   0.32402   0.00000  Uiso   1.00
C334   C     0.49617   0.53563   0.35643   0.00000  Uiso   1.00
C335   C     0.64781   0.59627   0.39252   0.00000  Uiso   1.00
C336   C     0.31041   0.34790   0.41346   0.00000  Uiso   1.00
C337   C     0.31198   0.29725   0.35896   0.00000  Uiso   1.00
C338   C     0.34236   0.22303   0.35866   0.00000  Uiso   1.00
C339   C     0.33821   0.18632   0.30424   0.00000  Uiso   1.00
C340   C     0.19388   0.37831   0.41766   0.00000  Uiso   1.00
C341   C     0.12497   0.37224   0.46672   0.00000  Uiso   1.00
C342   C     0.02141   0.40378   0.46172   0.00000  Uiso   1.00
C343   C     0.38331   0.41390   0.39790   0.00000  Uiso   1.00
C344   C     0.47365   0.43777   0.43035   0.00000  Uiso   1.00
C345   C     0.52956   0.49929   0.40873   0.00000  Uiso   1.00
H346   H     0.22309   0.44293   0.27671   0.00000  Uiso   1.00
H347   H     0.24865   0.32501   0.21194   0.00000  Uiso   1.00
H348   H     0.03131   0.47421   0.31999   0.00000  Uiso   1.00
H349   H     0.37994   0.53973   0.28363   0.00000  Uiso   1.00
H350   H     0.29165   0.17828   0.16316   0.00000  Uiso   1.00
H351   H     0.83338   0.49289   0.39099   0.00000  Uiso   1.00
H352   H     0.56854   0.63105   0.31431   0.00000  Uiso   1.00
H353   H     0.33636   0.31965   0.45410   0.00000  Uiso   1.00
H354   H     0.36814   0.19497   0.39906   0.00000  Uiso   1.00
H355   H     0.15079   0.34417   0.50711   0.00000  Uiso   1.00
H356   H     0.49942   0.40969   0.47075   0.00000  Uiso   1.00
H357   H     0.38863   0.07273   0.31503   0.00000  Uiso   1.00
H358   H     0.93036   0.38735   0.54286   0.00000  Uiso   1.00
H359   H     0.66551   0.52550   0.46619   0.00000  Uiso   1.00
O360   O     0.35897   0.04570   0.19969   0.00000  Uiso   1.00
O361   O     0.75775   0.45848   0.49860   0.00000  Uiso   1.00
O362   O     0.72225   0.63974   0.39800   0.00000  Uiso   1.00
N363   N     0.31014   0.17055   0.20645   0.00000  Uiso   1.00
N364   N     0.88167   0.46469   0.41945   0.00000  Uiso   1.00
N365   N     0.56896   0.59387   0.34778   0.00000  Uiso   1.00
N366   N     0.36232   0.11376   0.28817   0.00000  Uiso   1.00
N367   N     0.93386   0.40789   0.50118   0.00000  Uiso   1.00
N368   N     0.62115   0.53707   0.42950   0.00000  Uiso   1.00
