data_job_05548
_audit_creation_date              2018-12-19
_audit_creation_method            'Materials Studio'
_symmetry_space_group_name_H-M    'P1'
_symmetry_Int_Tables_number       1
_symmetry_cell_setting            triclinic
loop_
_symmetry_equiv_pos_as_xyz
  x,y,z
_cell_length_a                    16.6801
_cell_length_b                    16.6801
_cell_length_c                    18.9038
_cell_angle_alpha                 90.0000
_cell_angle_beta                  90.0000
_cell_angle_gamma                 90.0000
loop_
_atom_site_label
_atom_site_type_symbol
_atom_site_fract_x
_atom_site_fract_y
_atom_site_fract_z
_atom_site_U_iso_or_equiv
_atom_site_adp_type
_atom_site_occupancy
C1     C     0.75222   0.04479   0.63371   0.00000  Uiso   1.00
C2     C     0.72914   0.05338   0.71140   0.00000  Uiso   1.00
C3     C     0.68493   0.11577   0.74033   0.00000  Uiso   1.00
C4     C     0.67016   0.11266   0.81255   0.00000  Uiso   1.00
C5     C     0.63003   0.13563   0.92684   0.00000  Uiso   1.00
C6     C     0.84335   0.03770   0.63227   0.00000  Uiso   1.00
C7     C     0.89517   0.08690   0.59465   0.00000  Uiso   1.00
C8     C     0.97655   0.07058   0.60026   0.00000  Uiso   1.00
C9     C     0.11373   0.06917   0.59165   0.00000  Uiso   1.00
C10    C     0.72008   0.96350   0.61012   0.00000  Uiso   1.00
C11    C     0.66826   0.95030   0.55388   0.00000  Uiso   1.00
C12    C     0.64586   0.87150   0.54083   0.00000  Uiso   1.00
C13    C     0.59164   0.75489   0.49784   0.00000  Uiso   1.00
C14    C     0.80461   0.92832   0.71054   0.00000  Uiso   1.00
C15    C     0.75760   0.99011   0.75313   0.00000  Uiso   1.00
C16    C     0.74289   0.98690   0.82533   0.00000  Uiso   1.00
C17    C     0.69867   0.04928   0.85436   0.00000  Uiso   1.00
C18    C     0.87181   0.97444   0.67400   0.00000  Uiso   1.00
C19    C     0.95313   0.95803   0.67966   0.00000  Uiso   1.00
C20    C     0.00505   0.00720   0.64207   0.00000  Uiso   1.00
C21    C     0.74853   0.90023   0.65186   0.00000  Uiso   1.00
C22    C     0.72622   0.82144   0.63889   0.00000  Uiso   1.00
C23    C     0.67437   0.80813   0.58264   0.00000  Uiso   1.00
H24    H     0.73007   0.09405   0.60122   0.00000  Uiso   1.00
H25    H     0.66293   0.16472   0.70801   0.00000  Uiso   1.00
H26    H     0.87313   0.13585   0.56236   0.00000  Uiso   1.00
H27    H     0.64625   0.99927   0.52160   0.00000  Uiso   1.00
H28    H     0.60105   0.21519   0.84482   0.00000  Uiso   1.00
H29    H     0.04428   0.15430   0.53768   0.00000  Uiso   1.00
H30    H     0.56587   0.86630   0.45172   0.00000  Uiso   1.00
H31    H     0.82677   0.87906   0.74303   0.00000  Uiso   1.00
H32    H     0.76492   0.93794   0.85761   0.00000  Uiso   1.00
H33    H     0.97513   0.90907   0.71195   0.00000  Uiso   1.00
H34    H     0.74825   0.77249   0.67119   0.00000  Uiso   1.00
H35    H     0.68384   0.03113   0.96624   0.00000  Uiso   1.00
H36    H     0.12707   0.97023   0.65909   0.00000  Uiso   1.00
H37    H     0.64865   0.68223   0.57314   0.00000  Uiso   1.00
O38    O     0.60004   0.16578   0.97835   0.00000  Uiso   1.00
O39    O     0.18153   0.08588   0.57538   0.00000  Uiso   1.00
O40    O     0.55387   0.70804   0.46261   0.00000  Uiso   1.00
N41    N     0.62901   0.16378   0.85767   0.00000  Uiso   1.00
N42    N     0.04340   0.10686   0.57052   0.00000  Uiso   1.00
N43    N     0.59614   0.83760   0.49014   0.00000  Uiso   1.00
N44    N     0.67356   0.06474   0.92301   0.00000  Uiso   1.00
N45    N     0.08795   0.00782   0.63585   0.00000  Uiso   1.00
N46    N     0.64069   0.73856   0.55548   0.00000  Uiso   1.00
C47    C     0.24778   0.95521   0.13371   0.00000  Uiso   1.00
C48    C     0.27086   0.94662   0.21140   0.00000  Uiso   1.00
C49    C     0.31507   0.88423   0.24033   0.00000  Uiso   1.00
C50    C     0.32984   0.88734   0.31255   0.00000  Uiso   1.00
C51    C     0.36997   0.86437   0.42684   0.00000  Uiso   1.00
C52    C     0.15665   0.96230   0.13227   0.00000  Uiso   1.00
C53    C     0.10483   0.91310   0.09465   0.00000  Uiso   1.00
C54    C     0.02345   0.92942   0.10026   0.00000  Uiso   1.00
C55    C     0.88627   0.93083   0.09165   0.00000  Uiso   1.00
C56    C     0.27992   0.03650   0.11012   0.00000  Uiso   1.00
C57    C     0.33174   0.04970   0.05388   0.00000  Uiso   1.00
C58    C     0.35414   0.12850   0.04083   0.00000  Uiso   1.00
C59    C     0.40836   0.24511   0.99784   0.00000  Uiso   1.00
C60    C     0.19539   0.07168   0.21054   0.00000  Uiso   1.00
C61    C     0.24240   0.00989   0.25313   0.00000  Uiso   1.00
C62    C     0.25711   0.01310   0.32533   0.00000  Uiso   1.00
C63    C     0.30133   0.95072   0.35436   0.00000  Uiso   1.00
C64    C     0.12819   0.02556   0.17400   0.00000  Uiso   1.00
C65    C     0.04687   0.04197   0.17966   0.00000  Uiso   1.00
C66    C     0.99495   0.99280   0.14207   0.00000  Uiso   1.00
C67    C     0.25147   0.09977   0.15186   0.00000  Uiso   1.00
C68    C     0.27378   0.17856   0.13889   0.00000  Uiso   1.00
C69    C     0.32563   0.19187   0.08264   0.00000  Uiso   1.00
H70    H     0.26993   0.90595   0.10122   0.00000  Uiso   1.00
H71    H     0.33707   0.83528   0.20801   0.00000  Uiso   1.00
H72    H     0.12687   0.86415   0.06236   0.00000  Uiso   1.00
H73    H     0.35375   0.00073   0.02160   0.00000  Uiso   1.00
H74    H     0.39895   0.78481   0.34482   0.00000  Uiso   1.00
H75    H     0.95572   0.84570   0.03768   0.00000  Uiso   1.00
H76    H     0.43413   0.13370   0.95172   0.00000  Uiso   1.00
H77    H     0.17323   0.12094   0.24303   0.00000  Uiso   1.00
H78    H     0.23508   0.06206   0.35761   0.00000  Uiso   1.00
H79    H     0.02487   0.09093   0.21195   0.00000  Uiso   1.00
H80    H     0.25175   0.22751   0.17119   0.00000  Uiso   1.00
H81    H     0.31616   0.96887   0.46624   0.00000  Uiso   1.00
H82    H     0.87293   0.02977   0.15909   0.00000  Uiso   1.00
H83    H     0.35135   0.31777   0.07314   0.00000  Uiso   1.00
O84    O     0.39996   0.83422   0.47835   0.00000  Uiso   1.00
O85    O     0.81847   0.91412   0.07538   0.00000  Uiso   1.00
O86    O     0.44613   0.29196   0.96261   0.00000  Uiso   1.00
N87    N     0.37099   0.83622   0.35767   0.00000  Uiso   1.00
N88    N     0.95660   0.89314   0.07052   0.00000  Uiso   1.00
N89    N     0.40386   0.16240   0.99014   0.00000  Uiso   1.00
N90    N     0.32644   0.93526   0.42301   0.00000  Uiso   1.00
N91    N     0.91205   0.99218   0.13585   0.00000  Uiso   1.00
N92    N     0.35931   0.26144   0.05548   0.00000  Uiso   1.00
C93    C     0.45521   0.25222   0.38371   0.00000  Uiso   1.00
C94    C     0.44662   0.22914   0.46140   0.00000  Uiso   1.00
C95    C     0.38423   0.18493   0.49033   0.00000  Uiso   1.00
C96    C     0.38734   0.17016   0.56255   0.00000  Uiso   1.00
C97    C     0.36437   0.13003   0.67684   0.00000  Uiso   1.00
C98    C     0.46230   0.34335   0.38227   0.00000  Uiso   1.00
C99    C     0.41310   0.39517   0.34465   0.00000  Uiso   1.00
C100   C     0.42942   0.47655   0.35026   0.00000  Uiso   1.00
C101   C     0.43083   0.61373   0.34165   0.00000  Uiso   1.00
C102   C     0.53650   0.22008   0.36012   0.00000  Uiso   1.00
C103   C     0.54970   0.16826   0.30388   0.00000  Uiso   1.00
C104   C     0.62850   0.14586   0.29083   0.00000  Uiso   1.00
C105   C     0.74511   0.09164   0.24784   0.00000  Uiso   1.00
C106   C     0.57168   0.30461   0.46054   0.00000  Uiso   1.00
C107   C     0.50989   0.25760   0.50313   0.00000  Uiso   1.00
C108   C     0.51310   0.24289   0.57533   0.00000  Uiso   1.00
C109   C     0.45072   0.19867   0.60436   0.00000  Uiso   1.00
C110   C     0.52556   0.37181   0.42400   0.00000  Uiso   1.00
C111   C     0.54197   0.45313   0.42966   0.00000  Uiso   1.00
C112   C     0.49280   0.50505   0.39207   0.00000  Uiso   1.00
C113   C     0.59977   0.24853   0.40186   0.00000  Uiso   1.00
C114   C     0.67856   0.22622   0.38889   0.00000  Uiso   1.00
C115   C     0.69187   0.17437   0.33264   0.00000  Uiso   1.00
H116   H     0.40595   0.23007   0.35122   0.00000  Uiso   1.00
H117   H     0.33528   0.16293   0.45801   0.00000  Uiso   1.00
H118   H     0.36415   0.37313   0.31236   0.00000  Uiso   1.00
H119   H     0.50073   0.14625   0.27160   0.00000  Uiso   1.00
H120   H     0.28481   0.10105   0.59482   0.00000  Uiso   1.00
H121   H     0.34570   0.54428   0.28768   0.00000  Uiso   1.00
H122   H     0.63370   0.06587   0.20172   0.00000  Uiso   1.00
H123   H     0.62094   0.32677   0.49303   0.00000  Uiso   1.00
H124   H     0.56206   0.26492   0.60761   0.00000  Uiso   1.00
H125   H     0.59093   0.47513   0.46195   0.00000  Uiso   1.00
H126   H     0.72751   0.24825   0.42119   0.00000  Uiso   1.00
H127   H     0.46887   0.18384   0.71624   0.00000  Uiso   1.00
H128   H     0.52977   0.62707   0.40909   0.00000  Uiso   1.00
H129   H     0.81777   0.14865   0.32314   0.00000  Uiso   1.00
O130   O     0.33422   0.10004   0.72835   0.00000  Uiso   1.00
O131   O     0.41412   0.68153   0.32538   0.00000  Uiso   1.00
O132   O     0.79196   0.05387   0.21261   0.00000  Uiso   1.00
N133   N     0.33622   0.12901   0.60767   0.00000  Uiso   1.00
N134   N     0.39314   0.54340   0.32052   0.00000  Uiso   1.00
N135   N     0.66240   0.09614   0.24014   0.00000  Uiso   1.00
N136   N     0.43526   0.17356   0.67301   0.00000  Uiso   1.00
N137   N     0.49218   0.58795   0.38585   0.00000  Uiso   1.00
N138   N     0.76144   0.14069   0.30548   0.00000  Uiso   1.00
C139   C     0.54479   0.74778   0.88371   0.00000  Uiso   1.00
C140   C     0.55338   0.77086   0.96140   0.00000  Uiso   1.00
C141   C     0.61577   0.81507   0.99033   0.00000  Uiso   1.00
C142   C     0.61266   0.82984   0.06255   0.00000  Uiso   1.00
C143   C     0.63563   0.86997   0.17684   0.00000  Uiso   1.00
C144   C     0.53770   0.65665   0.88227   0.00000  Uiso   1.00
C145   C     0.58690   0.60483   0.84465   0.00000  Uiso   1.00
C146   C     0.57058   0.52345   0.85026   0.00000  Uiso   1.00
C147   C     0.56917   0.38627   0.84165   0.00000  Uiso   1.00
C148   C     0.46350   0.77992   0.86012   0.00000  Uiso   1.00
C149   C     0.45030   0.83174   0.80388   0.00000  Uiso   1.00
C150   C     0.37150   0.85414   0.79083   0.00000  Uiso   1.00
C151   C     0.25489   0.90836   0.74784   0.00000  Uiso   1.00
C152   C     0.42832   0.69539   0.96054   0.00000  Uiso   1.00
C153   C     0.49011   0.74240   0.00313   0.00000  Uiso   1.00
C154   C     0.48690   0.75711   0.07533   0.00000  Uiso   1.00
C155   C     0.54928   0.80133   0.10436   0.00000  Uiso   1.00
C156   C     0.47444   0.62819   0.92400   0.00000  Uiso   1.00
C157   C     0.45803   0.54687   0.92966   0.00000  Uiso   1.00
C158   C     0.50720   0.49495   0.89207   0.00000  Uiso   1.00
C159   C     0.40023   0.75147   0.90186   0.00000  Uiso   1.00
C160   C     0.32144   0.77378   0.88889   0.00000  Uiso   1.00
C161   C     0.30813   0.82563   0.83264   0.00000  Uiso   1.00
H162   H     0.59405   0.76993   0.85122   0.00000  Uiso   1.00
H163   H     0.66472   0.83707   0.95801   0.00000  Uiso   1.00
H164   H     0.63585   0.62687   0.81236   0.00000  Uiso   1.00
H165   H     0.49927   0.85375   0.77160   0.00000  Uiso   1.00
H166   H     0.71519   0.89895   0.09482   0.00000  Uiso   1.00
H167   H     0.65430   0.45572   0.78768   0.00000  Uiso   1.00
H168   H     0.36630   0.93413   0.70172   0.00000  Uiso   1.00
H169   H     0.37906   0.67323   0.99303   0.00000  Uiso   1.00
H170   H     0.43794   0.73508   0.10761   0.00000  Uiso   1.00
H171   H     0.40907   0.52487   0.96195   0.00000  Uiso   1.00
H172   H     0.27249   0.75175   0.92119   0.00000  Uiso   1.00
H173   H     0.53113   0.81616   0.21624   0.00000  Uiso   1.00
H174   H     0.47023   0.37293   0.90909   0.00000  Uiso   1.00
H175   H     0.18223   0.85135   0.82314   0.00000  Uiso   1.00
O176   O     0.66578   0.89996   0.22835   0.00000  Uiso   1.00
O177   O     0.58588   0.31847   0.82538   0.00000  Uiso   1.00
O178   O     0.20804   0.94613   0.71261   0.00000  Uiso   1.00
N179   N     0.66378   0.87099   0.10767   0.00000  Uiso   1.00
N180   N     0.60686   0.45660   0.82052   0.00000  Uiso   1.00
N181   N     0.33760   0.90386   0.74014   0.00000  Uiso   1.00
N182   N     0.56474   0.82644   0.17301   0.00000  Uiso   1.00
N183   N     0.50782   0.41205   0.88585   0.00000  Uiso   1.00
N184   N     0.23856   0.85931   0.80548   0.00000  Uiso   1.00
C185   C     0.74778   0.54479   0.11629   0.00000  Uiso   1.00
C186   C     0.77086   0.55338   0.03860   0.00000  Uiso   1.00
C187   C     0.81507   0.61577   0.00967   0.00000  Uiso   1.00
C188   C     0.82984   0.61266   0.93745   0.00000  Uiso   1.00
C189   C     0.86997   0.63563   0.82316   0.00000  Uiso   1.00
C190   C     0.65665   0.53770   0.11773   0.00000  Uiso   1.00
C191   C     0.60483   0.58690   0.15535   0.00000  Uiso   1.00
C192   C     0.52345   0.57058   0.14974   0.00000  Uiso   1.00
C193   C     0.38627   0.56917   0.15835   0.00000  Uiso   1.00
C194   C     0.77992   0.46350   0.13988   0.00000  Uiso   1.00
C195   C     0.83174   0.45030   0.19612   0.00000  Uiso   1.00
C196   C     0.85414   0.37150   0.20917   0.00000  Uiso   1.00
C197   C     0.90836   0.25489   0.25216   0.00000  Uiso   1.00
C198   C     0.69539   0.42832   0.03946   0.00000  Uiso   1.00
C199   C     0.74240   0.49011   0.99687   0.00000  Uiso   1.00
C200   C     0.75711   0.48690   0.92467   0.00000  Uiso   1.00
C201   C     0.80133   0.54928   0.89564   0.00000  Uiso   1.00
C202   C     0.62819   0.47444   0.07600   0.00000  Uiso   1.00
C203   C     0.54687   0.45803   0.07034   0.00000  Uiso   1.00
C204   C     0.49495   0.50720   0.10793   0.00000  Uiso   1.00
C205   C     0.75147   0.40023   0.09814   0.00000  Uiso   1.00
C206   C     0.77378   0.32144   0.11111   0.00000  Uiso   1.00
C207   C     0.82563   0.30813   0.16736   0.00000  Uiso   1.00
H208   H     0.76993   0.59405   0.14878   0.00000  Uiso   1.00
H209   H     0.83707   0.66472   0.04199   0.00000  Uiso   1.00
H210   H     0.62687   0.63585   0.18764   0.00000  Uiso   1.00
H211   H     0.85375   0.49927   0.22840   0.00000  Uiso   1.00
H212   H     0.89895   0.71519   0.90518   0.00000  Uiso   1.00
H213   H     0.45572   0.65430   0.21232   0.00000  Uiso   1.00
H214   H     0.93413   0.36630   0.29828   0.00000  Uiso   1.00
H215   H     0.67323   0.37906   0.00697   0.00000  Uiso   1.00
H216   H     0.73508   0.43794   0.89239   0.00000  Uiso   1.00
H217   H     0.52487   0.40907   0.03805   0.00000  Uiso   1.00
H218   H     0.75175   0.27249   0.07881   0.00000  Uiso   1.00
H219   H     0.81616   0.53113   0.78376   0.00000  Uiso   1.00
H220   H     0.37293   0.47023   0.09091   0.00000  Uiso   1.00
H221   H     0.85135   0.18223   0.17686   0.00000  Uiso   1.00
O222   O     0.89996   0.66578   0.77165   0.00000  Uiso   1.00
O223   O     0.31847   0.58588   0.17462   0.00000  Uiso   1.00
O224   O     0.94613   0.20804   0.28739   0.00000  Uiso   1.00
N225   N     0.87099   0.66378   0.89233   0.00000  Uiso   1.00
N226   N     0.45660   0.60686   0.17948   0.00000  Uiso   1.00
N227   N     0.90386   0.33760   0.25986   0.00000  Uiso   1.00
N228   N     0.82644   0.56474   0.82699   0.00000  Uiso   1.00
N229   N     0.41205   0.50782   0.11415   0.00000  Uiso   1.00
N230   N     0.85931   0.23856   0.19452   0.00000  Uiso   1.00
C231   C     0.25222   0.45521   0.61629   0.00000  Uiso   1.00
C232   C     0.22914   0.44662   0.53860   0.00000  Uiso   1.00
C233   C     0.18493   0.38423   0.50967   0.00000  Uiso   1.00
C234   C     0.17016   0.38734   0.43745   0.00000  Uiso   1.00
C235   C     0.13003   0.36437   0.32316   0.00000  Uiso   1.00
C236   C     0.34335   0.46230   0.61773   0.00000  Uiso   1.00
C237   C     0.39517   0.41310   0.65535   0.00000  Uiso   1.00
C238   C     0.47655   0.42942   0.64974   0.00000  Uiso   1.00
C239   C     0.61373   0.43083   0.65835   0.00000  Uiso   1.00
C240   C     0.22008   0.53650   0.63988   0.00000  Uiso   1.00
C241   C     0.16826   0.54970   0.69612   0.00000  Uiso   1.00
C242   C     0.14586   0.62850   0.70917   0.00000  Uiso   1.00
C243   C     0.09164   0.74511   0.75216   0.00000  Uiso   1.00
C244   C     0.30461   0.57168   0.53946   0.00000  Uiso   1.00
C245   C     0.25760   0.50989   0.49687   0.00000  Uiso   1.00
C246   C     0.24289   0.51310   0.42467   0.00000  Uiso   1.00
C247   C     0.19867   0.45072   0.39564   0.00000  Uiso   1.00
C248   C     0.37181   0.52556   0.57600   0.00000  Uiso   1.00
C249   C     0.45313   0.54197   0.57034   0.00000  Uiso   1.00
C250   C     0.50505   0.49280   0.60793   0.00000  Uiso   1.00
C251   C     0.24853   0.59977   0.59814   0.00000  Uiso   1.00
C252   C     0.22622   0.67856   0.61111   0.00000  Uiso   1.00
C253   C     0.17437   0.69187   0.66736   0.00000  Uiso   1.00
H254   H     0.23007   0.40595   0.64878   0.00000  Uiso   1.00
H255   H     0.16293   0.33528   0.54199   0.00000  Uiso   1.00
H256   H     0.37313   0.36415   0.68764   0.00000  Uiso   1.00
H257   H     0.14625   0.50073   0.72840   0.00000  Uiso   1.00
H258   H     0.10105   0.28481   0.40518   0.00000  Uiso   1.00
H259   H     0.54428   0.34570   0.71232   0.00000  Uiso   1.00
H260   H     0.06587   0.63370   0.79828   0.00000  Uiso   1.00
H261   H     0.32677   0.62094   0.50697   0.00000  Uiso   1.00
H262   H     0.26492   0.56206   0.39239   0.00000  Uiso   1.00
H263   H     0.47513   0.59093   0.53805   0.00000  Uiso   1.00
H264   H     0.24825   0.72751   0.57881   0.00000  Uiso   1.00
H265   H     0.18384   0.46887   0.28376   0.00000  Uiso   1.00
H266   H     0.62707   0.52977   0.59091   0.00000  Uiso   1.00
H267   H     0.14865   0.81777   0.67686   0.00000  Uiso   1.00
O268   O     0.10004   0.33422   0.27165   0.00000  Uiso   1.00
O269   O     0.68153   0.41412   0.67462   0.00000  Uiso   1.00
O270   O     0.05387   0.79196   0.78739   0.00000  Uiso   1.00
N271   N     0.12901   0.33622   0.39233   0.00000  Uiso   1.00
N272   N     0.54340   0.39314   0.67948   0.00000  Uiso   1.00
N273   N     0.09614   0.66240   0.75986   0.00000  Uiso   1.00
N274   N     0.17356   0.43526   0.32699   0.00000  Uiso   1.00
N275   N     0.58795   0.49218   0.61415   0.00000  Uiso   1.00
N276   N     0.14069   0.76144   0.69452   0.00000  Uiso   1.00
C277   C     0.04479   0.75222   0.36629   0.00000  Uiso   1.00
C278   C     0.05338   0.72914   0.28860   0.00000  Uiso   1.00
C279   C     0.11577   0.68493   0.25967   0.00000  Uiso   1.00
C280   C     0.11266   0.67016   0.18745   0.00000  Uiso   1.00
C281   C     0.13563   0.63003   0.07316   0.00000  Uiso   1.00
C282   C     0.03770   0.84335   0.36773   0.00000  Uiso   1.00
C283   C     0.08690   0.89517   0.40535   0.00000  Uiso   1.00
C284   C     0.07058   0.97655   0.39974   0.00000  Uiso   1.00
C285   C     0.06917   0.11373   0.40835   0.00000  Uiso   1.00
C286   C     0.96350   0.72008   0.38988   0.00000  Uiso   1.00
C287   C     0.95030   0.66826   0.44612   0.00000  Uiso   1.00
C288   C     0.87150   0.64586   0.45917   0.00000  Uiso   1.00
C289   C     0.75489   0.59164   0.50216   0.00000  Uiso   1.00
C290   C     0.92832   0.80461   0.28946   0.00000  Uiso   1.00
C291   C     0.99011   0.75760   0.24687   0.00000  Uiso   1.00
C292   C     0.98690   0.74289   0.17467   0.00000  Uiso   1.00
C293   C     0.04928   0.69867   0.14564   0.00000  Uiso   1.00
C294   C     0.97444   0.87181   0.32600   0.00000  Uiso   1.00
C295   C     0.95803   0.95313   0.32034   0.00000  Uiso   1.00
C296   C     0.00720   0.00505   0.35793   0.00000  Uiso   1.00
C297   C     0.90023   0.74853   0.34814   0.00000  Uiso   1.00
C298   C     0.82144   0.72622   0.36111   0.00000  Uiso   1.00
C299   C     0.80813   0.67437   0.41736   0.00000  Uiso   1.00
H300   H     0.09405   0.73007   0.39878   0.00000  Uiso   1.00
H301   H     0.16472   0.66293   0.29199   0.00000  Uiso   1.00
H302   H     0.13585   0.87313   0.43764   0.00000  Uiso   1.00
H303   H     0.99927   0.64625   0.47840   0.00000  Uiso   1.00
H304   H     0.21519   0.60105   0.15518   0.00000  Uiso   1.00
H305   H     0.15430   0.04428   0.46232   0.00000  Uiso   1.00
H306   H     0.86630   0.56587   0.54828   0.00000  Uiso   1.00
H307   H     0.87906   0.82677   0.25697   0.00000  Uiso   1.00
H308   H     0.93794   0.76492   0.14239   0.00000  Uiso   1.00
H309   H     0.90907   0.97513   0.28805   0.00000  Uiso   1.00
H310   H     0.77249   0.74825   0.32881   0.00000  Uiso   1.00
H311   H     0.03113   0.68384   0.03376   0.00000  Uiso   1.00
H312   H     0.97023   0.12707   0.34091   0.00000  Uiso   1.00
H313   H     0.68223   0.64865   0.42686   0.00000  Uiso   1.00
O314   O     0.16578   0.60004   0.02165   0.00000  Uiso   1.00
O315   O     0.08588   0.18153   0.42462   0.00000  Uiso   1.00
O316   O     0.70804   0.55387   0.53739   0.00000  Uiso   1.00
N317   N     0.16378   0.62901   0.14233   0.00000  Uiso   1.00
N318   N     0.10686   0.04340   0.42948   0.00000  Uiso   1.00
N319   N     0.83760   0.59614   0.50986   0.00000  Uiso   1.00
N320   N     0.06474   0.67356   0.07699   0.00000  Uiso   1.00
N321   N     0.00782   0.08795   0.36415   0.00000  Uiso   1.00
N322   N     0.73856   0.64069   0.44452   0.00000  Uiso   1.00
C323   C     0.95521   0.24778   0.86629   0.00000  Uiso   1.00
C324   C     0.94662   0.27086   0.78860   0.00000  Uiso   1.00
C325   C     0.88423   0.31507   0.75967   0.00000  Uiso   1.00
C326   C     0.88734   0.32984   0.68745   0.00000  Uiso   1.00
C327   C     0.86437   0.36997   0.57316   0.00000  Uiso   1.00
C328   C     0.96230   0.15665   0.86773   0.00000  Uiso   1.00
C329   C     0.91310   0.10483   0.90535   0.00000  Uiso   1.00
C330   C     0.92942   0.02345   0.89974   0.00000  Uiso   1.00
C331   C     0.93083   0.88627   0.90835   0.00000  Uiso   1.00
C332   C     0.03650   0.27992   0.88988   0.00000  Uiso   1.00
C333   C     0.04970   0.33174   0.94612   0.00000  Uiso   1.00
C334   C     0.12850   0.35414   0.95917   0.00000  Uiso   1.00
C335   C     0.24511   0.40836   0.00216   0.00000  Uiso   1.00
C336   C     0.07168   0.19539   0.78946   0.00000  Uiso   1.00
C337   C     0.00989   0.24240   0.74687   0.00000  Uiso   1.00
C338   C     0.01310   0.25711   0.67467   0.00000  Uiso   1.00
C339   C     0.95072   0.30133   0.64564   0.00000  Uiso   1.00
C340   C     0.02556   0.12819   0.82600   0.00000  Uiso   1.00
C341   C     0.04197   0.04687   0.82034   0.00000  Uiso   1.00
C342   C     0.99280   0.99495   0.85793   0.00000  Uiso   1.00
C343   C     0.09977   0.25147   0.84814   0.00000  Uiso   1.00
C344   C     0.17856   0.27378   0.86111   0.00000  Uiso   1.00
C345   C     0.19187   0.32563   0.91736   0.00000  Uiso   1.00
H346   H     0.90595   0.26993   0.89878   0.00000  Uiso   1.00
H347   H     0.83528   0.33707   0.79199   0.00000  Uiso   1.00
H348   H     0.86415   0.12687   0.93764   0.00000  Uiso   1.00
H349   H     0.00073   0.35375   0.97840   0.00000  Uiso   1.00
H350   H     0.78481   0.39895   0.65518   0.00000  Uiso   1.00
H351   H     0.84570   0.95572   0.96232   0.00000  Uiso   1.00
H352   H     0.13370   0.43413   0.04828   0.00000  Uiso   1.00
H353   H     0.12094   0.17323   0.75697   0.00000  Uiso   1.00
H354   H     0.06206   0.23508   0.64239   0.00000  Uiso   1.00
H355   H     0.09093   0.02487   0.78805   0.00000  Uiso   1.00
H356   H     0.22751   0.25175   0.82881   0.00000  Uiso   1.00
H357   H     0.96887   0.31616   0.53376   0.00000  Uiso   1.00
H358   H     0.02977   0.87293   0.84091   0.00000  Uiso   1.00
H359   H     0.31777   0.35135   0.92686   0.00000  Uiso   1.00
O360   O     0.83422   0.39996   0.52165   0.00000  Uiso   1.00
O361   O     0.91412   0.81847   0.92462   0.00000  Uiso   1.00
O362   O     0.29196   0.44613   0.03739   0.00000  Uiso   1.00
N363   N     0.83622   0.37099   0.64233   0.00000  Uiso   1.00
N364   N     0.89314   0.95660   0.92948   0.00000  Uiso   1.00
N365   N     0.16240   0.40386   0.00986   0.00000  Uiso   1.00
N366   N     0.93526   0.32644   0.57699   0.00000  Uiso   1.00
N367   N     0.99218   0.91205   0.86415   0.00000  Uiso   1.00
N368   N     0.26144   0.35931   0.94452   0.00000  Uiso   1.00
