data_job_06032
_audit_creation_date              2018-12-19
_audit_creation_method            'Materials Studio'
_symmetry_space_group_name_H-M    'P1'
_symmetry_Int_Tables_number       1
_symmetry_cell_setting            triclinic
loop_
_symmetry_equiv_pos_as_xyz
  x,y,z
_cell_length_a                    16.3688
_cell_length_b                    16.0740
_cell_length_c                    15.6329
_cell_angle_alpha                 103.9220
_cell_angle_beta                  103.9710
_cell_angle_gamma                 103.5500
loop_
_atom_site_label
_atom_site_type_symbol
_atom_site_fract_x
_atom_site_fract_y
_atom_site_fract_z
_atom_site_U_iso_or_equiv
_atom_site_adp_type
_atom_site_occupancy
C1     C     0.47481   0.16649   0.68246   0.00000  Uiso   1.00
C2     C     0.43559   0.17495   0.76208   0.00000  Uiso   1.00
C3     C     0.35088   0.17924   0.75674   0.00000  Uiso   1.00
C4     C     0.32756   0.18690   0.83733   0.00000  Uiso   1.00
C5     C     0.25765   0.19958   0.94836   0.00000  Uiso   1.00
C6     C     0.55936   0.24618   0.71629   0.00000  Uiso   1.00
C7     C     0.57872   0.31034   0.67244   0.00000  Uiso   1.00
C8     C     0.65960   0.37796   0.71448   0.00000  Uiso   1.00
C9     C     0.78187   0.50118   0.75440   0.00000  Uiso   1.00
C10    C     0.50433   0.08247   0.67359   0.00000  Uiso   1.00
C11    C     0.47745   0.00899   0.59383   0.00000  Uiso   1.00
C12    C     0.51203   0.93879   0.59991   0.00000  Uiso   1.00
C13    C     0.54887   0.80782   0.57352   0.00000  Uiso   1.00
C14    C     0.58403   0.17247   0.83508   0.00000  Uiso   1.00
C15    C     0.49492   0.17820   0.84498   0.00000  Uiso   1.00
C16    C     0.47172   0.18585   0.92560   0.00000  Uiso   1.00
C17    C     0.38699   0.19015   0.92037   0.00000  Uiso   1.00
C18    C     0.61868   0.24942   0.79919   0.00000  Uiso   1.00
C19    C     0.69955   0.31695   0.84130   0.00000  Uiso   1.00
C20    C     0.71903   0.38121   0.79753   0.00000  Uiso   1.00
C21    C     0.56366   0.08571   0.75649   0.00000  Uiso   1.00
C22    C     0.59829   0.01560   0.76269   0.00000  Uiso   1.00
C23    C     0.57146   0.94204   0.68296   0.00000  Uiso   1.00
H24    H     0.42863   0.16397   0.61792   0.00000  Uiso   1.00
H25    H     0.30499   0.17673   0.69257   0.00000  Uiso   1.00
H26    H     0.53280   0.30781   0.60829   0.00000  Uiso   1.00
H27    H     0.43154   0.00651   0.52969   0.00000  Uiso   1.00
H28    H     0.19409   0.19234   0.81191   0.00000  Uiso   1.00
H29    H     0.67444   0.46871   0.63417   0.00000  Uiso   1.00
H30    H     0.46093   0.83336   0.46843   0.00000  Uiso   1.00
H31    H     0.63022   0.17500   0.89962   0.00000  Uiso   1.00
H32    H     0.51764   0.18836   0.98974   0.00000  Uiso   1.00
H33    H     0.74545   0.31944   0.90545   0.00000  Uiso   1.00
H34    H     0.64419   0.01814   0.82685   0.00000  Uiso   1.00
H35    H     0.36669   0.20178   0.05310   0.00000  Uiso   1.00
H36    H     0.84704   0.47815   0.87536   0.00000  Uiso   1.00
H37    H     0.63353   0.84280   0.70962   0.00000  Uiso   1.00
O38    O     0.20271   0.20568   0.98671   0.00000  Uiso   1.00
O39    O     0.83291   0.56825   0.75351   0.00000  Uiso   1.00
O40    O     0.55279   0.73469   0.53607   0.00000  Uiso   1.00
N41    N     0.25016   0.19271   0.85630   0.00000  Uiso   1.00
N42    N     0.69925   0.45111   0.69013   0.00000  Uiso   1.00
N43    N     0.49965   0.85712   0.53517   0.00000  Uiso   1.00
N44    N     0.34303   0.19779   0.98608   0.00000  Uiso   1.00
N45    N     0.79212   0.45619   0.81992   0.00000  Uiso   1.00
N46    N     0.59253   0.86219   0.66495   0.00000  Uiso   1.00
C47    C     0.69441   0.47428   0.16432   0.00000  Uiso   1.00
C48    C     0.77036   0.43388   0.17266   0.00000  Uiso   1.00
C49    C     0.76539   0.34763   0.17682   0.00000  Uiso   1.00
C50    C     0.84224   0.32341   0.18440   0.00000  Uiso   1.00
C51    C     0.94818   0.25156   0.19690   0.00000  Uiso   1.00
C52    C     0.72680   0.56055   0.24656   0.00000  Uiso   1.00
C53    C     0.68519   0.58081   0.31285   0.00000  Uiso   1.00
C54    C     0.72536   0.66324   0.38263   0.00000  Uiso   1.00
C55    C     0.76363   0.78808   0.50983   0.00000  Uiso   1.00
C56    C     0.68566   0.50407   0.07789   0.00000  Uiso   1.00
C57    C     0.60945   0.47686   0.00235   0.00000  Uiso   1.00
C58    C     0.61499   0.51174   0.93013   0.00000  Uiso   1.00
C59    C     0.58938   0.54889   0.79543   0.00000  Uiso   1.00
C60    C     0.83973   0.58465   0.17037   0.00000  Uiso   1.00
C61    C     0.84929   0.49383   0.17595   0.00000  Uiso   1.00
C62    C     0.92617   0.46973   0.18352   0.00000  Uiso   1.00
C63    C     0.92131   0.38346   0.18769   0.00000  Uiso   1.00
C64    C     0.80573   0.62050   0.24985   0.00000  Uiso   1.00
C65    C     0.84597   0.70292   0.31955   0.00000  Uiso   1.00
C66    C     0.80444   0.72329   0.38593   0.00000  Uiso   1.00
C67    C     0.76459   0.56401   0.08117   0.00000  Uiso   1.00
C68    C     0.77024   0.59896   0.00905   0.00000  Uiso   1.00
C69    C     0.69406   0.57180   0.93342   0.00000  Uiso   1.00
H70    H     0.63296   0.42762   0.16176   0.00000  Uiso   1.00
H71    H     0.70429   0.30126   0.17428   0.00000  Uiso   1.00
H72    H     0.62410   0.53441   0.31028   0.00000  Uiso   1.00
H73    H     0.54839   0.43047   0.99983   0.00000  Uiso   1.00
H74    H     0.81820   0.18761   0.18965   0.00000  Uiso   1.00
H75    H     0.64910   0.67924   0.47640   0.00000  Uiso   1.00
H76    H     0.48943   0.46005   0.82176   0.00000  Uiso   1.00
H77    H     0.90119   0.63133   0.17293   0.00000  Uiso   1.00
H78    H     0.98725   0.51614   0.18606   0.00000  Uiso   1.00
H79    H     0.90705   0.74929   0.32207   0.00000  Uiso   1.00
H80    H     0.83133   0.64535   0.01162   0.00000  Uiso   1.00
H81    H     0.04786   0.36202   0.19921   0.00000  Uiso   1.00
H82    H     0.87875   0.85365   0.48596   0.00000  Uiso   1.00
H83    H     0.71908   0.63446   0.83132   0.00000  Uiso   1.00
O84    O     0.98481   0.19538   0.20290   0.00000  Uiso   1.00
O85    O     0.76294   0.84038   0.57909   0.00000  Uiso   1.00
O86    O     0.55346   0.55281   0.72022   0.00000  Uiso   1.00
N87    N     0.86044   0.24446   0.19008   0.00000  Uiso   1.00
N88    N     0.70234   0.70410   0.45818   0.00000  Uiso   1.00
N89    N     0.55306   0.49919   0.84616   0.00000  Uiso   1.00
N90    N     0.98401   0.33831   0.19522   0.00000  Uiso   1.00
N91    N     0.82592   0.79794   0.46333   0.00000  Uiso   1.00
N92    N     0.67663   0.59304   0.85130   0.00000  Uiso   1.00
C93    C     0.16859   0.68998   0.47101   0.00000  Uiso   1.00
C94    C     0.17632   0.76714   0.42961   0.00000  Uiso   1.00
C95    C     0.18002   0.76168   0.34074   0.00000  Uiso   1.00
C96    C     0.18707   0.83983   0.31603   0.00000  Uiso   1.00
C97    C     0.19863   0.94738   0.24232   0.00000  Uiso   1.00
C98    C     0.24720   0.72284   0.55973   0.00000  Uiso   1.00
C99    C     0.31048   0.68013   0.58027   0.00000  Uiso   1.00
C100   C     0.37719   0.72098   0.66510   0.00000  Uiso   1.00
C101   C     0.49874   0.75972   0.79344   0.00000  Uiso   1.00
C102   C     0.08633   0.68172   0.50192   0.00000  Uiso   1.00
C103   C     0.01437   0.60443   0.47387   0.00000  Uiso   1.00
C104   C     0.94564   0.61065   0.51004   0.00000  Uiso   1.00
C105   C     0.81743   0.58555   0.54861   0.00000  Uiso   1.00
C106   C     0.17452   0.83846   0.58515   0.00000  Uiso   1.00
C107   C     0.17954   0.84779   0.49161   0.00000  Uiso   1.00
C108   C     0.18658   0.92596   0.46702   0.00000  Uiso   1.00
C109   C     0.19029   0.92062   0.37813   0.00000  Uiso   1.00
C110   C     0.25042   0.80348   0.62172   0.00000  Uiso   1.00
C111   C     0.31704   0.84440   0.70654   0.00000  Uiso   1.00
C112   C     0.38042   0.80177   0.72720   0.00000  Uiso   1.00
C113   C     0.08955   0.76237   0.56391   0.00000  Uiso   1.00
C114   C     0.02093   0.76871   0.60014   0.00000  Uiso   1.00
C115   C     0.94887   0.69145   0.57214   0.00000  Uiso   1.00
H116   H     0.16608   0.62719   0.42275   0.00000  Uiso   1.00
H117   H     0.17753   0.69926   0.29279   0.00000  Uiso   1.00
H118   H     0.30796   0.61771   0.53228   0.00000  Uiso   1.00
H119   H     0.01190   0.54203   0.42589   0.00000  Uiso   1.00
H120   H     0.19168   0.81474   0.17605   0.00000  Uiso   1.00
H121   H     0.46668   0.64277   0.68105   0.00000  Uiso   1.00
H122   H     0.84236   0.48318   0.45671   0.00000  Uiso   1.00
H123   H     0.17704   0.90125   0.63341   0.00000  Uiso   1.00
H124   H     0.18908   0.98836   0.51501   0.00000  Uiso   1.00
H125   H     0.31952   0.90681   0.75450   0.00000  Uiso   1.00
H126   H     0.02345   0.83113   0.64811   0.00000  Uiso   1.00
H127   H     0.20105   0.04938   0.35641   0.00000  Uiso   1.00
H128   H     0.47606   0.87742   0.86141   0.00000  Uiso   1.00
H129   H     0.85174   0.71782   0.63707   0.00000  Uiso   1.00
O130   O     0.20412   0.98443   0.18455   0.00000  Uiso   1.00
O131   O     0.56491   0.75881   0.84709   0.00000  Uiso   1.00
O132   O     0.74582   0.54942   0.55275   0.00000  Uiso   1.00
N133   N     0.19221   0.85800   0.23474   0.00000  Uiso   1.00
N134   N     0.44934   0.69723   0.70688   0.00000  Uiso   1.00
N135   N     0.86566   0.54802   0.49716   0.00000  Uiso   1.00
N136   N     0.19726   0.98426   0.33179   0.00000  Uiso   1.00
N137   N     0.45438   0.82349   0.80393   0.00000  Uiso   1.00
N138   N     0.87070   0.67428   0.59421   0.00000  Uiso   1.00
C139   C     0.52519   0.83351   0.31754   0.00000  Uiso   1.00
C140   C     0.56441   0.82505   0.23792   0.00000  Uiso   1.00
C141   C     0.64912   0.82076   0.24326   0.00000  Uiso   1.00
C142   C     0.67244   0.81310   0.16267   0.00000  Uiso   1.00
C143   C     0.74235   0.80043   0.05164   0.00000  Uiso   1.00
C144   C     0.44064   0.75382   0.28371   0.00000  Uiso   1.00
C145   C     0.42128   0.68966   0.32756   0.00000  Uiso   1.00
C146   C     0.34040   0.62204   0.28552   0.00000  Uiso   1.00
C147   C     0.21813   0.49882   0.24560   0.00000  Uiso   1.00
C148   C     0.49567   0.91753   0.32641   0.00000  Uiso   1.00
C149   C     0.52255   0.99101   0.40617   0.00000  Uiso   1.00
C150   C     0.48797   0.06121   0.40009   0.00000  Uiso   1.00
C151   C     0.45113   0.19218   0.42648   0.00000  Uiso   1.00
C152   C     0.41597   0.82753   0.16492   0.00000  Uiso   1.00
C153   C     0.50508   0.82181   0.15502   0.00000  Uiso   1.00
C154   C     0.52828   0.81415   0.07440   0.00000  Uiso   1.00
C155   C     0.61301   0.80985   0.07963   0.00000  Uiso   1.00
C156   C     0.38132   0.75058   0.20081   0.00000  Uiso   1.00
C157   C     0.30045   0.68305   0.15870   0.00000  Uiso   1.00
C158   C     0.28097   0.61879   0.20247   0.00000  Uiso   1.00
C159   C     0.43634   0.91429   0.24351   0.00000  Uiso   1.00
C160   C     0.40171   0.98440   0.23731   0.00000  Uiso   1.00
C161   C     0.42854   0.05796   0.31704   0.00000  Uiso   1.00
H162   H     0.57137   0.83603   0.38208   0.00000  Uiso   1.00
H163   H     0.69501   0.82327   0.30743   0.00000  Uiso   1.00
H164   H     0.46720   0.69219   0.39171   0.00000  Uiso   1.00
H165   H     0.56846   0.99349   0.47031   0.00000  Uiso   1.00
H166   H     0.80591   0.80766   0.18809   0.00000  Uiso   1.00
H167   H     0.32556   0.53129   0.36583   0.00000  Uiso   1.00
H168   H     0.53907   0.16664   0.53157   0.00000  Uiso   1.00
H169   H     0.36978   0.82500   0.10038   0.00000  Uiso   1.00
H170   H     0.48236   0.81164   0.01026   0.00000  Uiso   1.00
H171   H     0.25455   0.68056   0.09455   0.00000  Uiso   1.00
H172   H     0.35581   0.98186   0.17315   0.00000  Uiso   1.00
H173   H     0.63331   0.79822   0.94690   0.00000  Uiso   1.00
H174   H     0.15296   0.52185   0.12464   0.00000  Uiso   1.00
H175   H     0.36647   0.15720   0.29038   0.00000  Uiso   1.00
O176   O     0.79729   0.79432   0.01329   0.00000  Uiso   1.00
O177   O     0.16709   0.43175   0.24649   0.00000  Uiso   1.00
O178   O     0.44721   0.26531   0.46393   0.00000  Uiso   1.00
N179   N     0.74984   0.80729   0.14370   0.00000  Uiso   1.00
N180   N     0.30075   0.54889   0.30987   0.00000  Uiso   1.00
N181   N     0.50035   0.14288   0.46483   0.00000  Uiso   1.00
N182   N     0.65697   0.80221   0.01392   0.00000  Uiso   1.00
N183   N     0.20788   0.54381   0.18008   0.00000  Uiso   1.00
N184   N     0.40747   0.13781   0.33505   0.00000  Uiso   1.00
C185   C     0.30559   0.52572   0.83569   0.00000  Uiso   1.00
C186   C     0.22964   0.56612   0.82734   0.00000  Uiso   1.00
C187   C     0.23461   0.65237   0.82318   0.00000  Uiso   1.00
C188   C     0.15776   0.67659   0.81560   0.00000  Uiso   1.00
C189   C     0.05182   0.74844   0.80310   0.00000  Uiso   1.00
C190   C     0.27320   0.43945   0.75344   0.00000  Uiso   1.00
C191   C     0.31481   0.41919   0.68715   0.00000  Uiso   1.00
C192   C     0.27464   0.33676   0.61737   0.00000  Uiso   1.00
C193   C     0.23637   0.21192   0.49017   0.00000  Uiso   1.00
C194   C     0.31434   0.49593   0.92212   0.00000  Uiso   1.00
C195   C     0.39055   0.52314   0.99765   0.00000  Uiso   1.00
C196   C     0.38501   0.48826   0.06987   0.00000  Uiso   1.00
C197   C     0.41062   0.45111   0.20457   0.00000  Uiso   1.00
C198   C     0.16027   0.41535   0.82963   0.00000  Uiso   1.00
C199   C     0.15071   0.50617   0.82405   0.00000  Uiso   1.00
C200   C     0.07383   0.53027   0.81648   0.00000  Uiso   1.00
C201   C     0.07869   0.61654   0.81232   0.00000  Uiso   1.00
C202   C     0.19427   0.37950   0.75015   0.00000  Uiso   1.00
C203   C     0.15403   0.29708   0.68045   0.00000  Uiso   1.00
C204   C     0.19556   0.27671   0.61407   0.00000  Uiso   1.00
C205   C     0.23541   0.43599   0.91883   0.00000  Uiso   1.00
C206   C     0.22976   0.40104   0.99095   0.00000  Uiso   1.00
C207   C     0.30594   0.42820   0.06658   0.00000  Uiso   1.00
H208   H     0.36704   0.57238   0.83824   0.00000  Uiso   1.00
H209   H     0.29571   0.69874   0.82572   0.00000  Uiso   1.00
H210   H     0.37590   0.46559   0.68972   0.00000  Uiso   1.00
H211   H     0.45161   0.56953   0.00017   0.00000  Uiso   1.00
H212   H     0.18180   0.81239   0.81035   0.00000  Uiso   1.00
H213   H     0.35090   0.32076   0.52360   0.00000  Uiso   1.00
H214   H     0.51057   0.53995   0.17824   0.00000  Uiso   1.00
H215   H     0.09881   0.36867   0.82707   0.00000  Uiso   1.00
H216   H     0.01275   0.48386   0.81394   0.00000  Uiso   1.00
H217   H     0.09295   0.25071   0.67793   0.00000  Uiso   1.00
H218   H     0.16867   0.35465   0.98838   0.00000  Uiso   1.00
H219   H     0.95214   0.63798   0.80079   0.00000  Uiso   1.00
H220   H     0.12125   0.14635   0.51404   0.00000  Uiso   1.00
H221   H     0.28092   0.36554   0.16868   0.00000  Uiso   1.00
O222   O     0.01519   0.80462   0.79710   0.00000  Uiso   1.00
O223   O     0.23706   0.15962   0.42091   0.00000  Uiso   1.00
O224   O     0.44654   0.44719   0.27978   0.00000  Uiso   1.00
N225   N     0.13956   0.75554   0.80992   0.00000  Uiso   1.00
N226   N     0.29766   0.29590   0.54182   0.00000  Uiso   1.00
N227   N     0.44694   0.50081   0.15384   0.00000  Uiso   1.00
N228   N     0.01599   0.66169   0.80478   0.00000  Uiso   1.00
N229   N     0.17409   0.20206   0.53667   0.00000  Uiso   1.00
N230   N     0.32337   0.40696   0.14870   0.00000  Uiso   1.00
C231   C     0.83141   0.31002   0.52899   0.00000  Uiso   1.00
C232   C     0.82368   0.23286   0.57039   0.00000  Uiso   1.00
C233   C     0.81998   0.23832   0.65926   0.00000  Uiso   1.00
C234   C     0.81293   0.16017   0.68397   0.00000  Uiso   1.00
C235   C     0.80137   0.05262   0.75768   0.00000  Uiso   1.00
C236   C     0.75280   0.27716   0.44027   0.00000  Uiso   1.00
C237   C     0.68952   0.31987   0.41973   0.00000  Uiso   1.00
C238   C     0.62281   0.27902   0.33490   0.00000  Uiso   1.00
C239   C     0.50126   0.24028   0.20656   0.00000  Uiso   1.00
C240   C     0.91367   0.31828   0.49808   0.00000  Uiso   1.00
C241   C     0.98564   0.39557   0.52613   0.00000  Uiso   1.00
C242   C     0.05436   0.38935   0.48996   0.00000  Uiso   1.00
C243   C     0.18257   0.41445   0.45139   0.00000  Uiso   1.00
C244   C     0.82548   0.16154   0.41485   0.00000  Uiso   1.00
C245   C     0.82046   0.15221   0.50839   0.00000  Uiso   1.00
C246   C     0.81342   0.07404   0.53298   0.00000  Uiso   1.00
C247   C     0.80971   0.07938   0.62187   0.00000  Uiso   1.00
C248   C     0.74958   0.19652   0.37828   0.00000  Uiso   1.00
C249   C     0.68296   0.15560   0.29346   0.00000  Uiso   1.00
C250   C     0.61958   0.19823   0.27280   0.00000  Uiso   1.00
C251   C     0.91045   0.23763   0.43609   0.00000  Uiso   1.00
C252   C     0.97907   0.23129   0.39986   0.00000  Uiso   1.00
C253   C     0.05113   0.30855   0.42786   0.00000  Uiso   1.00
H254   H     0.83392   0.37281   0.57725   0.00000  Uiso   1.00
H255   H     0.82247   0.30074   0.70721   0.00000  Uiso   1.00
H256   H     0.69204   0.38229   0.46772   0.00000  Uiso   1.00
H257   H     0.98811   0.45797   0.57411   0.00000  Uiso   1.00
H258   H     0.80832   0.18526   0.82395   0.00000  Uiso   1.00
H259   H     0.53332   0.35723   0.31895   0.00000  Uiso   1.00
H260   H     0.15764   0.51682   0.54329   0.00000  Uiso   1.00
H261   H     0.82296   0.09875   0.36659   0.00000  Uiso   1.00
H262   H     0.81092   0.01164   0.48499   0.00000  Uiso   1.00
H263   H     0.68049   0.09319   0.24550   0.00000  Uiso   1.00
H264   H     0.97655   0.16887   0.35189   0.00000  Uiso   1.00
H265   H     0.79895   0.95062   0.64359   0.00000  Uiso   1.00
H266   H     0.52394   0.12258   0.13859   0.00000  Uiso   1.00
H267   H     0.14826   0.28218   0.36293   0.00000  Uiso   1.00
O268   O     0.79588   0.01557   0.81545   0.00000  Uiso   1.00
O269   O     0.43509   0.24119   0.15291   0.00000  Uiso   1.00
O270   O     0.25418   0.45058   0.44725   0.00000  Uiso   1.00
N271   N     0.80779   0.14200   0.76526   0.00000  Uiso   1.00
N272   N     0.55066   0.30277   0.29312   0.00000  Uiso   1.00
N273   N     0.13434   0.45198   0.50284   0.00000  Uiso   1.00
N274   N     0.80274   0.01574   0.66821   0.00000  Uiso   1.00
N275   N     0.54562   0.17651   0.19607   0.00000  Uiso   1.00
N276   N     0.12930   0.32572   0.40579   0.00000  Uiso   1.00
