data_job_00673
_audit_creation_date              2018-12-19
_audit_creation_method            'Materials Studio'
_symmetry_space_group_name_H-M    'P1'
_symmetry_Int_Tables_number       1
_symmetry_cell_setting            triclinic
loop_
_symmetry_equiv_pos_as_xyz
  x,y,z
_cell_length_a                    9.6739
_cell_length_b                    18.7555
_cell_length_c                    15.0871
_cell_angle_alpha                 90.0000
_cell_angle_beta                  124.5929
_cell_angle_gamma                 90.0000
loop_
_atom_site_label
_atom_site_type_symbol
_atom_site_fract_x
_atom_site_fract_y
_atom_site_fract_z
_atom_site_U_iso_or_equiv
_atom_site_adp_type
_atom_site_occupancy
C1     C     0.39816   0.24246   0.10317   0.00000  Uiso   1.00
C2     C     0.35104   0.18513   0.15324   0.00000  Uiso   1.00
C3     C     0.42348   0.17600   0.26250   0.00000  Uiso   1.00
C4     C     0.36283   0.12041   0.29206   0.00000  Uiso   1.00
C5     C     0.30928   0.03819   0.38153   0.00000  Uiso   1.00
C6     C     0.44495   0.20299   0.03535   0.00000  Uiso   1.00
C7     C     0.59634   0.20889   0.04548   0.00000  Uiso   1.00
C8     C     0.61472   0.16834   0.97580   0.00000  Uiso   1.00
C9     C     0.70691   0.11389   0.88220   0.00000  Uiso   1.00
C10    C     0.23640   0.28271   0.02375   0.00000  Uiso   1.00
C11    C     0.21245   0.35564   0.02410   0.00000  Uiso   1.00
C12    C     0.05526   0.38221   0.94463   0.00000  Uiso   1.00
C13    C     0.82365   0.45153   0.83301   0.00000  Uiso   1.00
C14    C     0.16163   0.15996   0.96139   0.00000  Uiso   1.00
C15    C     0.22257   0.14032   0.07623   0.00000  Uiso   1.00
C16    C     0.16179   0.08473   0.10564   0.00000  Uiso   1.00
C17    C     0.23412   0.07552   0.21492   0.00000  Uiso   1.00
C18    C     0.31648   0.15818   0.95835   0.00000  Uiso   1.00
C19    C     0.33465   0.11762   0.88863   0.00000  Uiso   1.00
C20    C     0.48602   0.12345   0.89865   0.00000  Uiso   1.00
C21    C     0.10793   0.23790   0.94674   0.00000  Uiso   1.00
C22    C     0.95075   0.26436   0.86724   0.00000  Uiso   1.00
C23    C     0.92656   0.33731   0.86748   0.00000  Uiso   1.00
H24    H     0.49818   0.27734   0.16312   0.00000  Uiso   1.00
H25    H     0.52291   0.21069   0.32207   0.00000  Uiso   1.00
H26    H     0.69573   0.24358   0.10508   0.00000  Uiso   1.00
H27    H     0.31190   0.39030   0.08370   0.00000  Uiso   1.00
H28    H     0.49372   0.11701   0.46434   0.00000  Uiso   1.00
H29    H     0.85808   0.18637   0.00678   0.00000  Uiso   1.00
H30    H     0.04870   0.49577   0.96171   0.00000  Uiso   1.00
H31    H     0.06160   0.12507   0.90143   0.00000  Uiso   1.00
H32    H     0.06237   0.05006   0.04603   0.00000  Uiso   1.00
H33    H     0.23519   0.08295   0.82904   0.00000  Uiso   1.00
H34    H     0.85136   0.22967   0.80766   0.00000  Uiso   1.00
H35    H     0.11993   0.98664   0.24029   0.00000  Uiso   1.00
H36    H     0.48430   0.05600   0.78273   0.00000  Uiso   1.00
H37    H     0.67492   0.36540   0.73766   0.00000  Uiso   1.00
O38    O     0.31524   0.00522   0.45216   0.00000  Uiso   1.00
O39    O     0.79327   0.09623   0.85185   0.00000  Uiso   1.00
O40    O     0.73138   0.50214   0.79272   0.00000  Uiso   1.00
N41    N     0.40561   0.09663   0.39176   0.00000  Uiso   1.00
N42    N     0.74629   0.16147   0.96399   0.00000  Uiso   1.00
N43    N     0.98960   0.45074   0.92183   0.00000  Uiso   1.00
N44    N     0.20448   0.02648   0.27121   0.00000  Uiso   1.00
N45    N     0.54516   0.09132   0.84343   0.00000  Uiso   1.00
N46    N     0.78847   0.38058   0.80127   0.00000  Uiso   1.00
C47    C     0.60184   0.74246   0.39683   0.00000  Uiso   1.00
C48    C     0.64896   0.68513   0.34676   0.00000  Uiso   1.00
C49    C     0.57652   0.67600   0.23750   0.00000  Uiso   1.00
C50    C     0.63717   0.62041   0.20794   0.00000  Uiso   1.00
C51    C     0.69072   0.53819   0.11847   0.00000  Uiso   1.00
C52    C     0.55505   0.70299   0.46465   0.00000  Uiso   1.00
C53    C     0.40366   0.70889   0.45452   0.00000  Uiso   1.00
C54    C     0.38528   0.66834   0.52420   0.00000  Uiso   1.00
C55    C     0.29309   0.61389   0.61780   0.00000  Uiso   1.00
C56    C     0.76360   0.78271   0.47625   0.00000  Uiso   1.00
C57    C     0.78755   0.85564   0.47590   0.00000  Uiso   1.00
C58    C     0.94474   0.88221   0.55537   0.00000  Uiso   1.00
C59    C     0.17635   0.95153   0.66699   0.00000  Uiso   1.00
C60    C     0.83837   0.65996   0.53861   0.00000  Uiso   1.00
C61    C     0.77743   0.64032   0.42377   0.00000  Uiso   1.00
C62    C     0.83821   0.58473   0.39436   0.00000  Uiso   1.00
C63    C     0.76588   0.57552   0.28508   0.00000  Uiso   1.00
C64    C     0.68352   0.65818   0.54165   0.00000  Uiso   1.00
C65    C     0.66535   0.61762   0.61137   0.00000  Uiso   1.00
C66    C     0.51398   0.62345   0.60135   0.00000  Uiso   1.00
C67    C     0.89207   0.73790   0.55326   0.00000  Uiso   1.00
C68    C     0.04925   0.76436   0.63276   0.00000  Uiso   1.00
C69    C     0.07344   0.83731   0.63252   0.00000  Uiso   1.00
H70    H     0.50182   0.77734   0.33688   0.00000  Uiso   1.00
H71    H     0.47709   0.71069   0.17793   0.00000  Uiso   1.00
H72    H     0.30427   0.74358   0.39492   0.00000  Uiso   1.00
H73    H     0.68810   0.89030   0.41630   0.00000  Uiso   1.00
H74    H     0.50628   0.61701   0.03566   0.00000  Uiso   1.00
H75    H     0.14192   0.68637   0.49322   0.00000  Uiso   1.00
H76    H     0.95130   0.99577   0.53829   0.00000  Uiso   1.00
H77    H     0.93840   0.62507   0.59857   0.00000  Uiso   1.00
H78    H     0.93763   0.55006   0.45397   0.00000  Uiso   1.00
H79    H     0.76481   0.58295   0.67096   0.00000  Uiso   1.00
H80    H     0.14864   0.72967   0.69234   0.00000  Uiso   1.00
H81    H     0.88007   0.48664   0.25971   0.00000  Uiso   1.00
H82    H     0.51570   0.55600   0.71727   0.00000  Uiso   1.00
H83    H     0.32508   0.86540   0.76234   0.00000  Uiso   1.00
O84    O     0.68476   0.50522   0.04784   0.00000  Uiso   1.00
O85    O     0.20673   0.59623   0.64815   0.00000  Uiso   1.00
O86    O     0.26862   0.00214   0.70728   0.00000  Uiso   1.00
N87    N     0.59439   0.59663   0.10824   0.00000  Uiso   1.00
N88    N     0.25371   0.66147   0.53601   0.00000  Uiso   1.00
N89    N     0.01040   0.95074   0.57817   0.00000  Uiso   1.00
N90    N     0.79552   0.52648   0.22879   0.00000  Uiso   1.00
N91    N     0.45484   0.59132   0.65657   0.00000  Uiso   1.00
N92    N     0.21153   0.88058   0.69873   0.00000  Uiso   1.00
C93    C     0.60184   0.75754   0.89683   0.00000  Uiso   1.00
C94    C     0.64896   0.81487   0.84676   0.00000  Uiso   1.00
C95    C     0.57652   0.82400   0.73750   0.00000  Uiso   1.00
C96    C     0.63717   0.87959   0.70794   0.00000  Uiso   1.00
C97    C     0.69072   0.96181   0.61847   0.00000  Uiso   1.00
C98    C     0.55505   0.79701   0.96465   0.00000  Uiso   1.00
C99    C     0.40366   0.79111   0.95452   0.00000  Uiso   1.00
C100   C     0.38528   0.83166   0.02420   0.00000  Uiso   1.00
C101   C     0.29309   0.88611   0.11780   0.00000  Uiso   1.00
C102   C     0.76360   0.71729   0.97625   0.00000  Uiso   1.00
C103   C     0.78755   0.64436   0.97590   0.00000  Uiso   1.00
C104   C     0.94474   0.61779   0.05537   0.00000  Uiso   1.00
C105   C     0.17635   0.54847   0.16699   0.00000  Uiso   1.00
C106   C     0.83837   0.84004   0.03861   0.00000  Uiso   1.00
C107   C     0.77743   0.85968   0.92377   0.00000  Uiso   1.00
C108   C     0.83821   0.91527   0.89436   0.00000  Uiso   1.00
C109   C     0.76588   0.92448   0.78508   0.00000  Uiso   1.00
C110   C     0.68352   0.84182   0.04165   0.00000  Uiso   1.00
C111   C     0.66535   0.88238   0.11137   0.00000  Uiso   1.00
C112   C     0.51398   0.87655   0.10135   0.00000  Uiso   1.00
C113   C     0.89207   0.76210   0.05326   0.00000  Uiso   1.00
C114   C     0.04925   0.73564   0.13276   0.00000  Uiso   1.00
C115   C     0.07344   0.66269   0.13252   0.00000  Uiso   1.00
H116   H     0.50182   0.72266   0.83688   0.00000  Uiso   1.00
H117   H     0.47709   0.78931   0.67793   0.00000  Uiso   1.00
H118   H     0.30427   0.75642   0.89492   0.00000  Uiso   1.00
H119   H     0.68810   0.60970   0.91630   0.00000  Uiso   1.00
H120   H     0.50628   0.88299   0.53566   0.00000  Uiso   1.00
H121   H     0.14192   0.81363   0.99322   0.00000  Uiso   1.00
H122   H     0.95130   0.50423   0.03829   0.00000  Uiso   1.00
H123   H     0.93840   0.87493   0.09857   0.00000  Uiso   1.00
H124   H     0.93763   0.94994   0.95397   0.00000  Uiso   1.00
H125   H     0.76481   0.91705   0.17096   0.00000  Uiso   1.00
H126   H     0.14864   0.77033   0.19234   0.00000  Uiso   1.00
H127   H     0.88007   0.01336   0.75971   0.00000  Uiso   1.00
H128   H     0.51570   0.94400   0.21727   0.00000  Uiso   1.00
H129   H     0.32508   0.63460   0.26234   0.00000  Uiso   1.00
O130   O     0.68476   0.99478   0.54784   0.00000  Uiso   1.00
O131   O     0.20673   0.90377   0.14815   0.00000  Uiso   1.00
O132   O     0.26862   0.49786   0.20728   0.00000  Uiso   1.00
N133   N     0.59439   0.90337   0.60824   0.00000  Uiso   1.00
N134   N     0.25371   0.83853   0.03601   0.00000  Uiso   1.00
N135   N     0.01040   0.54926   0.07817   0.00000  Uiso   1.00
N136   N     0.79552   0.97352   0.72879   0.00000  Uiso   1.00
N137   N     0.45484   0.90868   0.15657   0.00000  Uiso   1.00
N138   N     0.21153   0.61942   0.19873   0.00000  Uiso   1.00
C139   C     0.39816   0.25754   0.60317   0.00000  Uiso   1.00
C140   C     0.35104   0.31487   0.65324   0.00000  Uiso   1.00
C141   C     0.42348   0.32400   0.76250   0.00000  Uiso   1.00
C142   C     0.36283   0.37959   0.79206   0.00000  Uiso   1.00
C143   C     0.30928   0.46181   0.88153   0.00000  Uiso   1.00
C144   C     0.44495   0.29701   0.53535   0.00000  Uiso   1.00
C145   C     0.59634   0.29111   0.54548   0.00000  Uiso   1.00
C146   C     0.61472   0.33166   0.47580   0.00000  Uiso   1.00
C147   C     0.70691   0.38611   0.38220   0.00000  Uiso   1.00
C148   C     0.23640   0.21729   0.52375   0.00000  Uiso   1.00
C149   C     0.21245   0.14436   0.52410   0.00000  Uiso   1.00
C150   C     0.05526   0.11779   0.44463   0.00000  Uiso   1.00
C151   C     0.82365   0.04847   0.33301   0.00000  Uiso   1.00
C152   C     0.16163   0.34004   0.46139   0.00000  Uiso   1.00
C153   C     0.22257   0.35968   0.57623   0.00000  Uiso   1.00
C154   C     0.16179   0.41527   0.60564   0.00000  Uiso   1.00
C155   C     0.23412   0.42448   0.71492   0.00000  Uiso   1.00
C156   C     0.31648   0.34182   0.45835   0.00000  Uiso   1.00
C157   C     0.33465   0.38238   0.38863   0.00000  Uiso   1.00
C158   C     0.48602   0.37655   0.39865   0.00000  Uiso   1.00
C159   C     0.10793   0.26210   0.44674   0.00000  Uiso   1.00
C160   C     0.95075   0.23564   0.36724   0.00000  Uiso   1.00
C161   C     0.92656   0.16269   0.36748   0.00000  Uiso   1.00
H162   H     0.49818   0.22266   0.66312   0.00000  Uiso   1.00
H163   H     0.52291   0.28931   0.82207   0.00000  Uiso   1.00
H164   H     0.69573   0.25642   0.60508   0.00000  Uiso   1.00
H165   H     0.31190   0.10970   0.58370   0.00000  Uiso   1.00
H166   H     0.49372   0.38299   0.96434   0.00000  Uiso   1.00
H167   H     0.85808   0.31363   0.50678   0.00000  Uiso   1.00
H168   H     0.04870   0.00423   0.46171   0.00000  Uiso   1.00
H169   H     0.06160   0.37493   0.40143   0.00000  Uiso   1.00
H170   H     0.06237   0.44994   0.54603   0.00000  Uiso   1.00
H171   H     0.23519   0.41705   0.32904   0.00000  Uiso   1.00
H172   H     0.85136   0.27033   0.30766   0.00000  Uiso   1.00
H173   H     0.11993   0.51336   0.74029   0.00000  Uiso   1.00
H174   H     0.48430   0.44400   0.28273   0.00000  Uiso   1.00
H175   H     0.67492   0.13460   0.23766   0.00000  Uiso   1.00
O176   O     0.31524   0.49478   0.95216   0.00000  Uiso   1.00
O177   O     0.79327   0.40377   0.35185   0.00000  Uiso   1.00
O178   O     0.73138   0.99786   0.29272   0.00000  Uiso   1.00
N179   N     0.40561   0.40337   0.89176   0.00000  Uiso   1.00
N180   N     0.74629   0.33853   0.46399   0.00000  Uiso   1.00
N181   N     0.98960   0.04926   0.42183   0.00000  Uiso   1.00
N182   N     0.20448   0.47352   0.77121   0.00000  Uiso   1.00
N183   N     0.54516   0.40868   0.34343   0.00000  Uiso   1.00
N184   N     0.78847   0.11942   0.30127   0.00000  Uiso   1.00
