data_job_01850
_audit_creation_date              2018-12-19
_audit_creation_method            'Materials Studio'
_symmetry_space_group_name_H-M    'P1'
_symmetry_Int_Tables_number       1
_symmetry_cell_setting            triclinic
loop_
_symmetry_equiv_pos_as_xyz
  x,y,z
_cell_length_a                    23.0807
_cell_length_b                    9.0181
_cell_length_c                    40.0409
_cell_angle_alpha                 90.0000
_cell_angle_beta                  135.2673
_cell_angle_gamma                 90.0000
loop_
_atom_site_label
_atom_site_type_symbol
_atom_site_fract_x
_atom_site_fract_y
_atom_site_fract_z
_atom_site_U_iso_or_equiv
_atom_site_adp_type
_atom_site_occupancy
C1     C     0.50419   0.43221   0.62282   0.00000  Uiso   1.00
C2     C     0.53824   0.45741   0.60172   0.00000  Uiso   1.00
C3     C     0.52823   0.58500   0.57868   0.00000  Uiso   1.00
C4     C     0.56411   0.58627   0.56191   0.00000  Uiso   1.00
C5     C     0.61020   0.64394   0.52820   0.00000  Uiso   1.00
C6     C     0.45217   0.29173   0.59951   0.00000  Uiso   1.00
C7     C     0.36981   0.28001   0.57460   0.00000  Uiso   1.00
C8     C     0.33325   0.14180   0.55597   0.00000  Uiso   1.00
C9     C     0.24574   0.94222   0.51886   0.00000  Uiso   1.00
C10    C     0.57804   0.39353   0.67490   0.00000  Uiso   1.00
C11    C     0.60150   0.46738   0.71338   0.00000  Uiso   1.00
C12    C     0.67091   0.41484   0.75823   0.00000  Uiso   1.00
C13    C     0.77883   0.37332   0.83817   0.00000  Uiso   1.00
C14    C     0.58573   0.20757   0.63402   0.00000  Uiso   1.00
C15    C     0.58252   0.33539   0.60781   0.00000  Uiso   1.00
C16    C     0.61844   0.33647   0.59107   0.00000  Uiso   1.00
C17    C     0.60848   0.46404   0.56800   0.00000  Uiso   1.00
C18    C     0.49646   0.16972   0.60559   0.00000  Uiso   1.00
C19    C     0.46002   0.03148   0.58699   0.00000  Uiso   1.00
C20    C     0.37762   0.01956   0.56206   0.00000  Uiso   1.00
C21    C     0.62233   0.27152   0.68098   0.00000  Uiso   1.00
C22    C     0.69171   0.21885   0.72577   0.00000  Uiso   1.00
C23    C     0.71527   0.29261   0.76432   0.00000  Uiso   1.00
H24    H     0.46971   0.52719   0.61808   0.00000  Uiso   1.00
H25    H     0.49394   0.67940   0.57397   0.00000  Uiso   1.00
H26    H     0.33555   0.37445   0.56991   0.00000  Uiso   1.00
H27    H     0.56721   0.56179   0.70866   0.00000  Uiso   1.00
H28    H     0.54031   0.79432   0.52774   0.00000  Uiso   1.00
H29    H     0.20635   0.15131   0.51917   0.00000  Uiso   1.00
H30    H     0.69484   0.54635   0.81177   0.00000  Uiso   1.00
H31    H     0.62021   0.11257   0.63875   0.00000  Uiso   1.00
H32    H     0.65270   0.24203   0.59578   0.00000  Uiso   1.00
H33    H     0.49431   0.93708   0.59171   0.00000  Uiso   1.00
H34    H     0.72597   0.12443   0.73046   0.00000  Uiso   1.00
H35    H     0.66916   0.43933   0.54543   0.00000  Uiso   1.00
H36    H     0.33520   0.79632   0.53687   0.00000  Uiso   1.00
H37    H     0.82370   0.19137   0.82946   0.00000  Uiso   1.00
O38    O     0.62337   0.70945   0.50793   0.00000  Uiso   1.00
O39    O     0.18523   0.86585   0.49670   0.00000  Uiso   1.00
O40    O     0.82613   0.38414   0.88058   0.00000  Uiso   1.00
N41    N     0.56619   0.69301   0.53781   0.00000  Uiso   1.00
N42    N     0.25395   0.09185   0.52979   0.00000  Uiso   1.00
N43    N     0.71064   0.46116   0.80335   0.00000  Uiso   1.00
N44    N     0.63553   0.50200   0.54733   0.00000  Uiso   1.00
N45    N     0.32329   0.90084   0.53931   0.00000  Uiso   1.00
N46    N     0.77998   0.27014   0.81287   0.00000  Uiso   1.00
C47    C     0.00419   0.93221   0.62282   0.00000  Uiso   1.00
C48    C     0.03824   0.95741   0.60172   0.00000  Uiso   1.00
C49    C     0.02823   0.08500   0.57868   0.00000  Uiso   1.00
C50    C     0.06411   0.08627   0.56191   0.00000  Uiso   1.00
C51    C     0.11020   0.14394   0.52820   0.00000  Uiso   1.00
C52    C     0.95217   0.79173   0.59951   0.00000  Uiso   1.00
C53    C     0.86981   0.78001   0.57460   0.00000  Uiso   1.00
C54    C     0.83325   0.64180   0.55597   0.00000  Uiso   1.00
C55    C     0.74574   0.44222   0.51886   0.00000  Uiso   1.00
C56    C     0.07804   0.89353   0.67490   0.00000  Uiso   1.00
C57    C     0.10150   0.96738   0.71338   0.00000  Uiso   1.00
C58    C     0.17091   0.91484   0.75823   0.00000  Uiso   1.00
C59    C     0.27883   0.87332   0.83817   0.00000  Uiso   1.00
C60    C     0.08573   0.70757   0.63402   0.00000  Uiso   1.00
C61    C     0.08252   0.83539   0.60781   0.00000  Uiso   1.00
C62    C     0.11844   0.83647   0.59107   0.00000  Uiso   1.00
C63    C     0.10848   0.96404   0.56800   0.00000  Uiso   1.00
C64    C     0.99646   0.66972   0.60559   0.00000  Uiso   1.00
C65    C     0.96002   0.53148   0.58699   0.00000  Uiso   1.00
C66    C     0.87762   0.51956   0.56206   0.00000  Uiso   1.00
C67    C     0.12233   0.77152   0.68098   0.00000  Uiso   1.00
C68    C     0.19171   0.71885   0.72577   0.00000  Uiso   1.00
C69    C     0.21527   0.79261   0.76432   0.00000  Uiso   1.00
H70    H     0.96971   0.02719   0.61808   0.00000  Uiso   1.00
H71    H     0.99394   0.17940   0.57397   0.00000  Uiso   1.00
H72    H     0.83555   0.87445   0.56991   0.00000  Uiso   1.00
H73    H     0.06721   0.06179   0.70866   0.00000  Uiso   1.00
H74    H     0.04031   0.29432   0.52774   0.00000  Uiso   1.00
H75    H     0.70635   0.65131   0.51917   0.00000  Uiso   1.00
H76    H     0.19484   0.04635   0.81177   0.00000  Uiso   1.00
H77    H     0.12021   0.61257   0.63875   0.00000  Uiso   1.00
H78    H     0.15270   0.74203   0.59578   0.00000  Uiso   1.00
H79    H     0.99431   0.43708   0.59171   0.00000  Uiso   1.00
H80    H     0.22597   0.62443   0.73046   0.00000  Uiso   1.00
H81    H     0.16916   0.93933   0.54543   0.00000  Uiso   1.00
H82    H     0.83520   0.29632   0.53687   0.00000  Uiso   1.00
H83    H     0.32370   0.69137   0.82946   0.00000  Uiso   1.00
O84    O     0.12337   0.20945   0.50793   0.00000  Uiso   1.00
O85    O     0.68523   0.36585   0.49670   0.00000  Uiso   1.00
O86    O     0.32613   0.88414   0.88058   0.00000  Uiso   1.00
N87    N     0.06619   0.19301   0.53781   0.00000  Uiso   1.00
N88    N     0.75395   0.59185   0.52979   0.00000  Uiso   1.00
N89    N     0.21064   0.96116   0.80335   0.00000  Uiso   1.00
N90    N     0.13553   0.00200   0.54733   0.00000  Uiso   1.00
N91    N     0.82329   0.40084   0.53931   0.00000  Uiso   1.00
N92    N     0.27998   0.77014   0.81287   0.00000  Uiso   1.00
C93    C     0.49581   0.43221   0.87718   0.00000  Uiso   1.00
C94    C     0.46176   0.45741   0.89828   0.00000  Uiso   1.00
C95    C     0.47177   0.58500   0.92132   0.00000  Uiso   1.00
C96    C     0.43589   0.58627   0.93809   0.00000  Uiso   1.00
C97    C     0.38980   0.64394   0.97180   0.00000  Uiso   1.00
C98    C     0.54783   0.29173   0.90049   0.00000  Uiso   1.00
C99    C     0.63019   0.28001   0.92540   0.00000  Uiso   1.00
C100   C     0.66675   0.14180   0.94403   0.00000  Uiso   1.00
C101   C     0.75426   0.94222   0.98114   0.00000  Uiso   1.00
C102   C     0.42196   0.39353   0.82510   0.00000  Uiso   1.00
C103   C     0.39850   0.46738   0.78662   0.00000  Uiso   1.00
C104   C     0.32909   0.41484   0.74177   0.00000  Uiso   1.00
C105   C     0.22117   0.37332   0.66183   0.00000  Uiso   1.00
C106   C     0.41427   0.20757   0.86598   0.00000  Uiso   1.00
C107   C     0.41748   0.33539   0.89219   0.00000  Uiso   1.00
C108   C     0.38156   0.33647   0.90893   0.00000  Uiso   1.00
C109   C     0.39152   0.46404   0.93200   0.00000  Uiso   1.00
C110   C     0.50354   0.16972   0.89441   0.00000  Uiso   1.00
C111   C     0.53998   0.03148   0.91301   0.00000  Uiso   1.00
C112   C     0.62238   0.01956   0.93794   0.00000  Uiso   1.00
C113   C     0.37767   0.27152   0.81902   0.00000  Uiso   1.00
C114   C     0.30829   0.21885   0.77423   0.00000  Uiso   1.00
C115   C     0.28473   0.29261   0.73568   0.00000  Uiso   1.00
H116   H     0.53029   0.52719   0.88192   0.00000  Uiso   1.00
H117   H     0.50606   0.67940   0.92603   0.00000  Uiso   1.00
H118   H     0.66445   0.37445   0.93009   0.00000  Uiso   1.00
H119   H     0.43279   0.56179   0.79134   0.00000  Uiso   1.00
H120   H     0.45969   0.79432   0.97226   0.00000  Uiso   1.00
H121   H     0.79365   0.15131   0.98083   0.00000  Uiso   1.00
H122   H     0.30516   0.54635   0.68823   0.00000  Uiso   1.00
H123   H     0.37979   0.11257   0.86125   0.00000  Uiso   1.00
H124   H     0.34730   0.24203   0.90422   0.00000  Uiso   1.00
H125   H     0.50569   0.93708   0.90829   0.00000  Uiso   1.00
H126   H     0.27403   0.12443   0.76954   0.00000  Uiso   1.00
H127   H     0.33084   0.43933   0.95457   0.00000  Uiso   1.00
H128   H     0.66480   0.79632   0.96313   0.00000  Uiso   1.00
H129   H     0.17630   0.19137   0.67054   0.00000  Uiso   1.00
O130   O     0.37663   0.70945   0.99207   0.00000  Uiso   1.00
O131   O     0.81477   0.86585   0.00330   0.00000  Uiso   1.00
O132   O     0.17387   0.38414   0.61942   0.00000  Uiso   1.00
N133   N     0.43381   0.69301   0.96219   0.00000  Uiso   1.00
N134   N     0.74605   0.09185   0.97021   0.00000  Uiso   1.00
N135   N     0.28936   0.46116   0.69665   0.00000  Uiso   1.00
N136   N     0.36447   0.50200   0.95267   0.00000  Uiso   1.00
N137   N     0.67671   0.90084   0.96069   0.00000  Uiso   1.00
N138   N     0.22002   0.27014   0.68713   0.00000  Uiso   1.00
C139   C     0.99581   0.93221   0.87718   0.00000  Uiso   1.00
C140   C     0.96176   0.95741   0.89828   0.00000  Uiso   1.00
C141   C     0.97177   0.08500   0.92132   0.00000  Uiso   1.00
C142   C     0.93589   0.08627   0.93809   0.00000  Uiso   1.00
C143   C     0.88980   0.14394   0.97180   0.00000  Uiso   1.00
C144   C     0.04783   0.79173   0.90049   0.00000  Uiso   1.00
C145   C     0.13019   0.78001   0.92540   0.00000  Uiso   1.00
C146   C     0.16675   0.64180   0.94403   0.00000  Uiso   1.00
C147   C     0.25426   0.44222   0.98114   0.00000  Uiso   1.00
C148   C     0.92196   0.89353   0.82510   0.00000  Uiso   1.00
C149   C     0.89850   0.96738   0.78662   0.00000  Uiso   1.00
C150   C     0.82909   0.91484   0.74177   0.00000  Uiso   1.00
C151   C     0.72117   0.87332   0.66183   0.00000  Uiso   1.00
C152   C     0.91427   0.70757   0.86598   0.00000  Uiso   1.00
C153   C     0.91748   0.83539   0.89219   0.00000  Uiso   1.00
C154   C     0.88156   0.83647   0.90893   0.00000  Uiso   1.00
C155   C     0.89152   0.96404   0.93200   0.00000  Uiso   1.00
C156   C     0.00354   0.66972   0.89441   0.00000  Uiso   1.00
C157   C     0.03998   0.53148   0.91301   0.00000  Uiso   1.00
C158   C     0.12238   0.51956   0.93794   0.00000  Uiso   1.00
C159   C     0.87767   0.77152   0.81902   0.00000  Uiso   1.00
C160   C     0.80829   0.71885   0.77423   0.00000  Uiso   1.00
C161   C     0.78473   0.79261   0.73568   0.00000  Uiso   1.00
H162   H     0.03029   0.02719   0.88192   0.00000  Uiso   1.00
H163   H     0.00606   0.17940   0.92603   0.00000  Uiso   1.00
H164   H     0.16445   0.87445   0.93009   0.00000  Uiso   1.00
H165   H     0.93279   0.06179   0.79134   0.00000  Uiso   1.00
H166   H     0.95969   0.29432   0.97226   0.00000  Uiso   1.00
H167   H     0.29365   0.65131   0.98083   0.00000  Uiso   1.00
H168   H     0.80516   0.04635   0.68823   0.00000  Uiso   1.00
H169   H     0.87979   0.61257   0.86125   0.00000  Uiso   1.00
H170   H     0.84730   0.74203   0.90422   0.00000  Uiso   1.00
H171   H     0.00569   0.43708   0.90829   0.00000  Uiso   1.00
H172   H     0.77403   0.62443   0.76954   0.00000  Uiso   1.00
H173   H     0.83084   0.93933   0.95457   0.00000  Uiso   1.00
H174   H     0.16480   0.29632   0.96313   0.00000  Uiso   1.00
H175   H     0.67630   0.69137   0.67054   0.00000  Uiso   1.00
O176   O     0.87663   0.20945   0.99207   0.00000  Uiso   1.00
O177   O     0.31477   0.36585   0.00330   0.00000  Uiso   1.00
O178   O     0.67387   0.88414   0.61942   0.00000  Uiso   1.00
N179   N     0.93381   0.19301   0.96219   0.00000  Uiso   1.00
N180   N     0.24605   0.59185   0.97021   0.00000  Uiso   1.00
N181   N     0.78936   0.96116   0.69665   0.00000  Uiso   1.00
N182   N     0.86447   0.00200   0.95267   0.00000  Uiso   1.00
N183   N     0.17671   0.40084   0.96069   0.00000  Uiso   1.00
N184   N     0.72002   0.77014   0.68713   0.00000  Uiso   1.00
C185   C     0.49581   0.56779   0.37718   0.00000  Uiso   1.00
C186   C     0.46176   0.54259   0.39828   0.00000  Uiso   1.00
C187   C     0.47177   0.41500   0.42132   0.00000  Uiso   1.00
C188   C     0.43589   0.41373   0.43809   0.00000  Uiso   1.00
C189   C     0.38980   0.35606   0.47180   0.00000  Uiso   1.00
C190   C     0.54783   0.70827   0.40049   0.00000  Uiso   1.00
C191   C     0.63019   0.71999   0.42540   0.00000  Uiso   1.00
C192   C     0.66675   0.85820   0.44403   0.00000  Uiso   1.00
C193   C     0.75426   0.05778   0.48114   0.00000  Uiso   1.00
C194   C     0.42196   0.60647   0.32510   0.00000  Uiso   1.00
C195   C     0.39850   0.53262   0.28662   0.00000  Uiso   1.00
C196   C     0.32909   0.58516   0.24177   0.00000  Uiso   1.00
C197   C     0.22117   0.62668   0.16183   0.00000  Uiso   1.00
C198   C     0.41427   0.79243   0.36598   0.00000  Uiso   1.00
C199   C     0.41748   0.66461   0.39219   0.00000  Uiso   1.00
C200   C     0.38156   0.66353   0.40893   0.00000  Uiso   1.00
C201   C     0.39152   0.53596   0.43200   0.00000  Uiso   1.00
C202   C     0.50354   0.83028   0.39441   0.00000  Uiso   1.00
C203   C     0.53998   0.96852   0.41301   0.00000  Uiso   1.00
C204   C     0.62238   0.98044   0.43794   0.00000  Uiso   1.00
C205   C     0.37767   0.72848   0.31902   0.00000  Uiso   1.00
C206   C     0.30829   0.78115   0.27423   0.00000  Uiso   1.00
C207   C     0.28473   0.70739   0.23568   0.00000  Uiso   1.00
H208   H     0.53029   0.47281   0.38192   0.00000  Uiso   1.00
H209   H     0.50606   0.32060   0.42603   0.00000  Uiso   1.00
H210   H     0.66445   0.62555   0.43009   0.00000  Uiso   1.00
H211   H     0.43279   0.43821   0.29134   0.00000  Uiso   1.00
H212   H     0.45969   0.20568   0.47226   0.00000  Uiso   1.00
H213   H     0.79365   0.84869   0.48083   0.00000  Uiso   1.00
H214   H     0.30516   0.45365   0.18823   0.00000  Uiso   1.00
H215   H     0.37979   0.88743   0.36125   0.00000  Uiso   1.00
H216   H     0.34730   0.75797   0.40422   0.00000  Uiso   1.00
H217   H     0.50569   0.06292   0.40829   0.00000  Uiso   1.00
H218   H     0.27403   0.87557   0.26954   0.00000  Uiso   1.00
H219   H     0.33084   0.56067   0.45457   0.00000  Uiso   1.00
H220   H     0.66480   0.20368   0.46313   0.00000  Uiso   1.00
H221   H     0.17630   0.80863   0.17054   0.00000  Uiso   1.00
O222   O     0.37663   0.29055   0.49207   0.00000  Uiso   1.00
O223   O     0.81477   0.13415   0.50330   0.00000  Uiso   1.00
O224   O     0.17387   0.61586   0.11942   0.00000  Uiso   1.00
N225   N     0.43381   0.30699   0.46219   0.00000  Uiso   1.00
N226   N     0.74605   0.90815   0.47021   0.00000  Uiso   1.00
N227   N     0.28936   0.53884   0.19665   0.00000  Uiso   1.00
N228   N     0.36447   0.49800   0.45267   0.00000  Uiso   1.00
N229   N     0.67671   0.09916   0.46069   0.00000  Uiso   1.00
N230   N     0.22002   0.72986   0.18713   0.00000  Uiso   1.00
C231   C     0.99581   0.06779   0.37718   0.00000  Uiso   1.00
C232   C     0.96176   0.04259   0.39828   0.00000  Uiso   1.00
C233   C     0.97177   0.91500   0.42132   0.00000  Uiso   1.00
C234   C     0.93589   0.91373   0.43809   0.00000  Uiso   1.00
C235   C     0.88980   0.85606   0.47180   0.00000  Uiso   1.00
C236   C     0.04783   0.20827   0.40049   0.00000  Uiso   1.00
C237   C     0.13019   0.21999   0.42540   0.00000  Uiso   1.00
C238   C     0.16675   0.35820   0.44403   0.00000  Uiso   1.00
C239   C     0.25426   0.55778   0.48114   0.00000  Uiso   1.00
C240   C     0.92196   0.10647   0.32510   0.00000  Uiso   1.00
C241   C     0.89850   0.03262   0.28662   0.00000  Uiso   1.00
C242   C     0.82909   0.08516   0.24177   0.00000  Uiso   1.00
C243   C     0.72117   0.12668   0.16183   0.00000  Uiso   1.00
C244   C     0.91427   0.29243   0.36598   0.00000  Uiso   1.00
C245   C     0.91748   0.16461   0.39219   0.00000  Uiso   1.00
C246   C     0.88156   0.16353   0.40893   0.00000  Uiso   1.00
C247   C     0.89152   0.03596   0.43200   0.00000  Uiso   1.00
C248   C     0.00354   0.33028   0.39441   0.00000  Uiso   1.00
C249   C     0.03998   0.46852   0.41301   0.00000  Uiso   1.00
C250   C     0.12238   0.48044   0.43794   0.00000  Uiso   1.00
C251   C     0.87767   0.22848   0.31902   0.00000  Uiso   1.00
C252   C     0.80829   0.28115   0.27423   0.00000  Uiso   1.00
C253   C     0.78473   0.20739   0.23568   0.00000  Uiso   1.00
H254   H     0.03029   0.97281   0.38192   0.00000  Uiso   1.00
H255   H     0.00606   0.82060   0.42603   0.00000  Uiso   1.00
H256   H     0.16445   0.12555   0.43009   0.00000  Uiso   1.00
H257   H     0.93279   0.93821   0.29134   0.00000  Uiso   1.00
H258   H     0.95969   0.70568   0.47226   0.00000  Uiso   1.00
H259   H     0.29365   0.34869   0.48083   0.00000  Uiso   1.00
H260   H     0.80516   0.95365   0.18823   0.00000  Uiso   1.00
H261   H     0.87979   0.38743   0.36125   0.00000  Uiso   1.00
H262   H     0.84730   0.25797   0.40422   0.00000  Uiso   1.00
H263   H     0.00569   0.56292   0.40829   0.00000  Uiso   1.00
H264   H     0.77403   0.37557   0.26954   0.00000  Uiso   1.00
H265   H     0.83084   0.06067   0.45457   0.00000  Uiso   1.00
H266   H     0.16480   0.70368   0.46313   0.00000  Uiso   1.00
H267   H     0.67630   0.30863   0.17054   0.00000  Uiso   1.00
O268   O     0.87663   0.79055   0.49207   0.00000  Uiso   1.00
O269   O     0.31477   0.63415   0.50330   0.00000  Uiso   1.00
O270   O     0.67387   0.11586   0.11942   0.00000  Uiso   1.00
N271   N     0.93381   0.80699   0.46219   0.00000  Uiso   1.00
N272   N     0.24605   0.40815   0.47021   0.00000  Uiso   1.00
N273   N     0.78936   0.03884   0.19665   0.00000  Uiso   1.00
N274   N     0.86447   0.99800   0.45267   0.00000  Uiso   1.00
N275   N     0.17671   0.59916   0.46069   0.00000  Uiso   1.00
N276   N     0.72002   0.22986   0.18713   0.00000  Uiso   1.00
C277   C     0.50419   0.56779   0.12282   0.00000  Uiso   1.00
C278   C     0.53824   0.54259   0.10172   0.00000  Uiso   1.00
C279   C     0.52823   0.41500   0.07868   0.00000  Uiso   1.00
C280   C     0.56411   0.41373   0.06191   0.00000  Uiso   1.00
C281   C     0.61020   0.35606   0.02820   0.00000  Uiso   1.00
C282   C     0.45217   0.70827   0.09951   0.00000  Uiso   1.00
C283   C     0.36981   0.71999   0.07460   0.00000  Uiso   1.00
C284   C     0.33325   0.85820   0.05597   0.00000  Uiso   1.00
C285   C     0.24574   0.05778   0.01886   0.00000  Uiso   1.00
C286   C     0.57804   0.60647   0.17490   0.00000  Uiso   1.00
C287   C     0.60150   0.53262   0.21338   0.00000  Uiso   1.00
C288   C     0.67091   0.58516   0.25823   0.00000  Uiso   1.00
C289   C     0.77883   0.62668   0.33817   0.00000  Uiso   1.00
C290   C     0.58573   0.79243   0.13402   0.00000  Uiso   1.00
C291   C     0.58252   0.66461   0.10781   0.00000  Uiso   1.00
C292   C     0.61844   0.66353   0.09107   0.00000  Uiso   1.00
C293   C     0.60848   0.53596   0.06800   0.00000  Uiso   1.00
C294   C     0.49646   0.83028   0.10559   0.00000  Uiso   1.00
C295   C     0.46002   0.96852   0.08699   0.00000  Uiso   1.00
C296   C     0.37762   0.98044   0.06206   0.00000  Uiso   1.00
C297   C     0.62233   0.72848   0.18098   0.00000  Uiso   1.00
C298   C     0.69171   0.78115   0.22577   0.00000  Uiso   1.00
C299   C     0.71527   0.70739   0.26432   0.00000  Uiso   1.00
H300   H     0.46971   0.47281   0.11808   0.00000  Uiso   1.00
H301   H     0.49394   0.32060   0.07397   0.00000  Uiso   1.00
H302   H     0.33555   0.62555   0.06991   0.00000  Uiso   1.00
H303   H     0.56721   0.43821   0.20866   0.00000  Uiso   1.00
H304   H     0.54031   0.20568   0.02774   0.00000  Uiso   1.00
H305   H     0.20635   0.84869   0.01917   0.00000  Uiso   1.00
H306   H     0.69484   0.45365   0.31177   0.00000  Uiso   1.00
H307   H     0.62021   0.88743   0.13875   0.00000  Uiso   1.00
H308   H     0.65270   0.75797   0.09578   0.00000  Uiso   1.00
H309   H     0.49431   0.06292   0.09171   0.00000  Uiso   1.00
H310   H     0.72597   0.87557   0.23046   0.00000  Uiso   1.00
H311   H     0.66916   0.56067   0.04543   0.00000  Uiso   1.00
H312   H     0.33520   0.20368   0.03687   0.00000  Uiso   1.00
H313   H     0.82370   0.80863   0.32946   0.00000  Uiso   1.00
O314   O     0.62337   0.29055   0.00793   0.00000  Uiso   1.00
O315   O     0.18523   0.13415   0.99670   0.00000  Uiso   1.00
O316   O     0.82613   0.61586   0.38058   0.00000  Uiso   1.00
N317   N     0.56619   0.30699   0.03781   0.00000  Uiso   1.00
N318   N     0.25395   0.90815   0.02979   0.00000  Uiso   1.00
N319   N     0.71064   0.53884   0.30335   0.00000  Uiso   1.00
N320   N     0.63553   0.49800   0.04733   0.00000  Uiso   1.00
N321   N     0.32329   0.09916   0.03931   0.00000  Uiso   1.00
N322   N     0.77998   0.72986   0.31287   0.00000  Uiso   1.00
C323   C     0.00419   0.06779   0.12282   0.00000  Uiso   1.00
C324   C     0.03824   0.04259   0.10172   0.00000  Uiso   1.00
C325   C     0.02823   0.91500   0.07868   0.00000  Uiso   1.00
C326   C     0.06411   0.91373   0.06191   0.00000  Uiso   1.00
C327   C     0.11020   0.85606   0.02820   0.00000  Uiso   1.00
C328   C     0.95217   0.20827   0.09951   0.00000  Uiso   1.00
C329   C     0.86981   0.21999   0.07460   0.00000  Uiso   1.00
C330   C     0.83325   0.35820   0.05597   0.00000  Uiso   1.00
C331   C     0.74574   0.55778   0.01886   0.00000  Uiso   1.00
C332   C     0.07804   0.10647   0.17490   0.00000  Uiso   1.00
C333   C     0.10150   0.03262   0.21338   0.00000  Uiso   1.00
C334   C     0.17091   0.08516   0.25823   0.00000  Uiso   1.00
C335   C     0.27883   0.12668   0.33817   0.00000  Uiso   1.00
C336   C     0.08573   0.29243   0.13402   0.00000  Uiso   1.00
C337   C     0.08252   0.16461   0.10781   0.00000  Uiso   1.00
C338   C     0.11844   0.16353   0.09107   0.00000  Uiso   1.00
C339   C     0.10848   0.03596   0.06800   0.00000  Uiso   1.00
C340   C     0.99646   0.33028   0.10559   0.00000  Uiso   1.00
C341   C     0.96002   0.46852   0.08699   0.00000  Uiso   1.00
C342   C     0.87762   0.48044   0.06206   0.00000  Uiso   1.00
C343   C     0.12233   0.22848   0.18098   0.00000  Uiso   1.00
C344   C     0.19171   0.28115   0.22577   0.00000  Uiso   1.00
C345   C     0.21527   0.20739   0.26432   0.00000  Uiso   1.00
H346   H     0.96971   0.97281   0.11808   0.00000  Uiso   1.00
H347   H     0.99394   0.82060   0.07397   0.00000  Uiso   1.00
H348   H     0.83555   0.12555   0.06991   0.00000  Uiso   1.00
H349   H     0.06721   0.93821   0.20866   0.00000  Uiso   1.00
H350   H     0.04031   0.70568   0.02774   0.00000  Uiso   1.00
H351   H     0.70635   0.34869   0.01917   0.00000  Uiso   1.00
H352   H     0.19484   0.95365   0.31177   0.00000  Uiso   1.00
H353   H     0.12021   0.38743   0.13875   0.00000  Uiso   1.00
H354   H     0.15270   0.25797   0.09578   0.00000  Uiso   1.00
H355   H     0.99431   0.56292   0.09171   0.00000  Uiso   1.00
H356   H     0.22597   0.37557   0.23046   0.00000  Uiso   1.00
H357   H     0.16916   0.06067   0.04543   0.00000  Uiso   1.00
H358   H     0.83520   0.70368   0.03687   0.00000  Uiso   1.00
H359   H     0.32370   0.30863   0.32946   0.00000  Uiso   1.00
O360   O     0.12337   0.79055   0.00793   0.00000  Uiso   1.00
O361   O     0.68523   0.63415   0.99670   0.00000  Uiso   1.00
O362   O     0.32613   0.11586   0.38058   0.00000  Uiso   1.00
N363   N     0.06619   0.80699   0.03781   0.00000  Uiso   1.00
N364   N     0.75395   0.40815   0.02979   0.00000  Uiso   1.00
N365   N     0.21064   0.03884   0.30335   0.00000  Uiso   1.00
N366   N     0.13553   0.99800   0.04733   0.00000  Uiso   1.00
N367   N     0.82329   0.59916   0.03931   0.00000  Uiso   1.00
N368   N     0.27998   0.22986   0.31287   0.00000  Uiso   1.00
