data_job_03846
_audit_creation_date              2018-12-19
_audit_creation_method            'Materials Studio'
_symmetry_space_group_name_H-M    'P1'
_symmetry_Int_Tables_number       1
_symmetry_cell_setting            triclinic
loop_
_symmetry_equiv_pos_as_xyz
  x,y,z
_cell_length_a                    23.8745
_cell_length_b                    13.0392
_cell_length_c                    23.8630
_cell_angle_alpha                 90.0000
_cell_angle_beta                  90.0000
_cell_angle_gamma                 90.0000
loop_
_atom_site_label
_atom_site_type_symbol
_atom_site_fract_x
_atom_site_fract_y
_atom_site_fract_z
_atom_site_U_iso_or_equiv
_atom_site_adp_type
_atom_site_occupancy
C1     C     0.60865   0.32008   0.90147   0.00000  Uiso   1.00
C2     C     0.61718   0.23254   0.85996   0.00000  Uiso   1.00
C3     C     0.64363   0.24013   0.80834   0.00000  Uiso   1.00
C4     C     0.64719   0.15122   0.77652   0.00000  Uiso   1.00
C5     C     0.66378   0.02947   0.70914   0.00000  Uiso   1.00
C6     C     0.54577   0.32549   0.91229   0.00000  Uiso   1.00
C7     C     0.51218   0.41123   0.90468   0.00000  Uiso   1.00
C8     C     0.45562   0.40057   0.91692   0.00000  Uiso   1.00
C9     C     0.36135   0.42315   0.93083   0.00000  Uiso   1.00
C10    C     0.63510   0.28475   0.95633   0.00000  Uiso   1.00
C11    C     0.67660   0.33625   0.98577   0.00000  Uiso   1.00
C12    C     0.69525   0.29130   0.03510   0.00000  Uiso   1.00
C13    C     0.73967   0.25062   0.11740   0.00000  Uiso   1.00
C14    C     0.56795   0.14869   0.93676   0.00000  Uiso   1.00
C15    C     0.59507   0.13945   0.87913   0.00000  Uiso   1.00
C16    C     0.59860   0.05051   0.84738   0.00000  Uiso   1.00
C17    C     0.62505   0.05796   0.79572   0.00000  Uiso   1.00
C18    C     0.52366   0.23241   0.93146   0.00000  Uiso   1.00
C19    C     0.46714   0.22162   0.94372   0.00000  Uiso   1.00
C20    C     0.43347   0.30731   0.93613   0.00000  Uiso   1.00
C21    C     0.61299   0.19166   0.97551   0.00000  Uiso   1.00
C22    C     0.63157   0.14663   0.02481   0.00000  Uiso   1.00
C23    C     0.67310   0.19804   0.05431   0.00000  Uiso   1.00
H24    H     0.62586   0.39255   0.88654   0.00000  Uiso   1.00
H25    H     0.66073   0.31218   0.79351   0.00000  Uiso   1.00
H26    H     0.52930   0.48326   0.88985   0.00000  Uiso   1.00
H27    H     0.69370   0.40828   0.97092   0.00000  Uiso   1.00
H28    H     0.68963   0.18203   0.69882   0.00000  Uiso   1.00
H29    H     0.41250   0.54277   0.90196   0.00000  Uiso   1.00
H30    H     0.75917   0.38467   0.07292   0.00000  Uiso   1.00
H31    H     0.55073   0.07622   0.95168   0.00000  Uiso   1.00
H32    H     0.58149   0.97848   0.86223   0.00000  Uiso   1.00
H33    H     0.45005   0.14957   0.95856   0.00000  Uiso   1.00
H34    H     0.61445   0.07459   0.03963   0.00000  Uiso   1.00
H35    H     0.62530   0.91119   0.75459   0.00000  Uiso   1.00
H36    H     0.34817   0.27194   0.95773   0.00000  Uiso   1.00
H37    H     0.69485   0.11383   0.12869   0.00000  Uiso   1.00
O38    O     0.67903   0.98804   0.66667   0.00000  Uiso   1.00
O39    O     0.31545   0.46132   0.93319   0.00000  Uiso   1.00
O40    O     0.77028   0.25389   0.15749   0.00000  Uiso   1.00
N41    N     0.67028   0.13170   0.72422   0.00000  Uiso   1.00
N42    N     0.41118   0.46897   0.91414   0.00000  Uiso   1.00
N43    N     0.73527   0.32117   0.07398   0.00000  Uiso   1.00
N44    N     0.63567   0.98596   0.75423   0.00000  Uiso   1.00
N45    N     0.37657   0.32323   0.94415   0.00000  Uiso   1.00
N46    N     0.70066   0.17543   0.10399   0.00000  Uiso   1.00
C47    C     0.89135   0.67992   0.90147   0.00000  Uiso   1.00
C48    C     0.88282   0.76746   0.85996   0.00000  Uiso   1.00
C49    C     0.85637   0.75987   0.80834   0.00000  Uiso   1.00
C50    C     0.85281   0.84878   0.77652   0.00000  Uiso   1.00
C51    C     0.83622   0.97053   0.70914   0.00000  Uiso   1.00
C52    C     0.95423   0.67451   0.91229   0.00000  Uiso   1.00
C53    C     0.98782   0.58877   0.90468   0.00000  Uiso   1.00
C54    C     0.04438   0.59943   0.91692   0.00000  Uiso   1.00
C55    C     0.13865   0.57685   0.93083   0.00000  Uiso   1.00
C56    C     0.86490   0.71525   0.95633   0.00000  Uiso   1.00
C57    C     0.82340   0.66375   0.98577   0.00000  Uiso   1.00
C58    C     0.80475   0.70870   0.03510   0.00000  Uiso   1.00
C59    C     0.76033   0.74938   0.11740   0.00000  Uiso   1.00
C60    C     0.93205   0.85131   0.93676   0.00000  Uiso   1.00
C61    C     0.90493   0.86055   0.87913   0.00000  Uiso   1.00
C62    C     0.90140   0.94949   0.84738   0.00000  Uiso   1.00
C63    C     0.87495   0.94204   0.79572   0.00000  Uiso   1.00
C64    C     0.97634   0.76759   0.93146   0.00000  Uiso   1.00
C65    C     0.03286   0.77838   0.94372   0.00000  Uiso   1.00
C66    C     0.06653   0.69269   0.93613   0.00000  Uiso   1.00
C67    C     0.88701   0.80834   0.97551   0.00000  Uiso   1.00
C68    C     0.86843   0.85337   0.02481   0.00000  Uiso   1.00
C69    C     0.82690   0.80196   0.05431   0.00000  Uiso   1.00
H70    H     0.87414   0.60745   0.88654   0.00000  Uiso   1.00
H71    H     0.83927   0.68782   0.79351   0.00000  Uiso   1.00
H72    H     0.97070   0.51674   0.88985   0.00000  Uiso   1.00
H73    H     0.80630   0.59172   0.97092   0.00000  Uiso   1.00
H74    H     0.81037   0.81797   0.69882   0.00000  Uiso   1.00
H75    H     0.08750   0.45723   0.90196   0.00000  Uiso   1.00
H76    H     0.74083   0.61533   0.07292   0.00000  Uiso   1.00
H77    H     0.94927   0.92378   0.95168   0.00000  Uiso   1.00
H78    H     0.91851   0.02152   0.86223   0.00000  Uiso   1.00
H79    H     0.04995   0.85043   0.95856   0.00000  Uiso   1.00
H80    H     0.88555   0.92541   0.03963   0.00000  Uiso   1.00
H81    H     0.87470   0.08881   0.75459   0.00000  Uiso   1.00
H82    H     0.15183   0.72806   0.95773   0.00000  Uiso   1.00
H83    H     0.80515   0.88617   0.12869   0.00000  Uiso   1.00
O84    O     0.82097   0.01196   0.66667   0.00000  Uiso   1.00
O85    O     0.18455   0.53868   0.93319   0.00000  Uiso   1.00
O86    O     0.72972   0.74611   0.15749   0.00000  Uiso   1.00
N87    N     0.82972   0.86830   0.72422   0.00000  Uiso   1.00
N88    N     0.08882   0.53103   0.91414   0.00000  Uiso   1.00
N89    N     0.76473   0.67883   0.07398   0.00000  Uiso   1.00
N90    N     0.86433   0.01404   0.75423   0.00000  Uiso   1.00
N91    N     0.12343   0.67677   0.94415   0.00000  Uiso   1.00
N92    N     0.79934   0.82457   0.10399   0.00000  Uiso   1.00
C93    C     0.39135   0.32008   0.59853   0.00000  Uiso   1.00
C94    C     0.38282   0.23254   0.64004   0.00000  Uiso   1.00
C95    C     0.35637   0.24013   0.69166   0.00000  Uiso   1.00
C96    C     0.35281   0.15122   0.72348   0.00000  Uiso   1.00
C97    C     0.33622   0.02947   0.79086   0.00000  Uiso   1.00
C98    C     0.45423   0.32549   0.58771   0.00000  Uiso   1.00
C99    C     0.48782   0.41123   0.59532   0.00000  Uiso   1.00
C100   C     0.54438   0.40057   0.58308   0.00000  Uiso   1.00
C101   C     0.63865   0.42315   0.56917   0.00000  Uiso   1.00
C102   C     0.36490   0.28475   0.54367   0.00000  Uiso   1.00
C103   C     0.32340   0.33625   0.51423   0.00000  Uiso   1.00
C104   C     0.30475   0.29130   0.46490   0.00000  Uiso   1.00
C105   C     0.26033   0.25062   0.38260   0.00000  Uiso   1.00
C106   C     0.43205   0.14869   0.56324   0.00000  Uiso   1.00
C107   C     0.40493   0.13945   0.62087   0.00000  Uiso   1.00
C108   C     0.40140   0.05051   0.65262   0.00000  Uiso   1.00
C109   C     0.37495   0.05796   0.70428   0.00000  Uiso   1.00
C110   C     0.47634   0.23241   0.56854   0.00000  Uiso   1.00
C111   C     0.53286   0.22162   0.55628   0.00000  Uiso   1.00
C112   C     0.56653   0.30731   0.56387   0.00000  Uiso   1.00
C113   C     0.38701   0.19166   0.52449   0.00000  Uiso   1.00
C114   C     0.36843   0.14663   0.47519   0.00000  Uiso   1.00
C115   C     0.32690   0.19804   0.44569   0.00000  Uiso   1.00
H116   H     0.37414   0.39255   0.61346   0.00000  Uiso   1.00
H117   H     0.33927   0.31218   0.70649   0.00000  Uiso   1.00
H118   H     0.47070   0.48326   0.61015   0.00000  Uiso   1.00
H119   H     0.30630   0.40828   0.52908   0.00000  Uiso   1.00
H120   H     0.31037   0.18203   0.80118   0.00000  Uiso   1.00
H121   H     0.58750   0.54277   0.59804   0.00000  Uiso   1.00
H122   H     0.24083   0.38467   0.42708   0.00000  Uiso   1.00
H123   H     0.44927   0.07622   0.54832   0.00000  Uiso   1.00
H124   H     0.41851   0.97848   0.63777   0.00000  Uiso   1.00
H125   H     0.54995   0.14957   0.54144   0.00000  Uiso   1.00
H126   H     0.38555   0.07459   0.46037   0.00000  Uiso   1.00
H127   H     0.37470   0.91119   0.74541   0.00000  Uiso   1.00
H128   H     0.65183   0.27194   0.54227   0.00000  Uiso   1.00
H129   H     0.30515   0.11383   0.37131   0.00000  Uiso   1.00
O130   O     0.32097   0.98804   0.83333   0.00000  Uiso   1.00
O131   O     0.68455   0.46132   0.56681   0.00000  Uiso   1.00
O132   O     0.22972   0.25389   0.34251   0.00000  Uiso   1.00
N133   N     0.32972   0.13170   0.77578   0.00000  Uiso   1.00
N134   N     0.58882   0.46897   0.58586   0.00000  Uiso   1.00
N135   N     0.26473   0.32117   0.42602   0.00000  Uiso   1.00
N136   N     0.36433   0.98596   0.74577   0.00000  Uiso   1.00
N137   N     0.62343   0.32323   0.55585   0.00000  Uiso   1.00
N138   N     0.29934   0.17543   0.39601   0.00000  Uiso   1.00
C139   C     0.10865   0.67992   0.59853   0.00000  Uiso   1.00
C140   C     0.11718   0.76746   0.64004   0.00000  Uiso   1.00
C141   C     0.14363   0.75987   0.69166   0.00000  Uiso   1.00
C142   C     0.14719   0.84878   0.72348   0.00000  Uiso   1.00
C143   C     0.16378   0.97053   0.79086   0.00000  Uiso   1.00
C144   C     0.04577   0.67451   0.58771   0.00000  Uiso   1.00
C145   C     0.01218   0.58877   0.59532   0.00000  Uiso   1.00
C146   C     0.95562   0.59943   0.58308   0.00000  Uiso   1.00
C147   C     0.86135   0.57685   0.56917   0.00000  Uiso   1.00
C148   C     0.13510   0.71525   0.54367   0.00000  Uiso   1.00
C149   C     0.17660   0.66375   0.51423   0.00000  Uiso   1.00
C150   C     0.19525   0.70870   0.46490   0.00000  Uiso   1.00
C151   C     0.23967   0.74938   0.38260   0.00000  Uiso   1.00
C152   C     0.06795   0.85131   0.56324   0.00000  Uiso   1.00
C153   C     0.09507   0.86055   0.62087   0.00000  Uiso   1.00
C154   C     0.09860   0.94949   0.65262   0.00000  Uiso   1.00
C155   C     0.12505   0.94204   0.70428   0.00000  Uiso   1.00
C156   C     0.02366   0.76759   0.56854   0.00000  Uiso   1.00
C157   C     0.96714   0.77838   0.55628   0.00000  Uiso   1.00
C158   C     0.93347   0.69269   0.56387   0.00000  Uiso   1.00
C159   C     0.11299   0.80834   0.52449   0.00000  Uiso   1.00
C160   C     0.13157   0.85337   0.47519   0.00000  Uiso   1.00
C161   C     0.17310   0.80196   0.44569   0.00000  Uiso   1.00
H162   H     0.12586   0.60745   0.61346   0.00000  Uiso   1.00
H163   H     0.16073   0.68782   0.70649   0.00000  Uiso   1.00
H164   H     0.02930   0.51674   0.61015   0.00000  Uiso   1.00
H165   H     0.19370   0.59172   0.52908   0.00000  Uiso   1.00
H166   H     0.18963   0.81797   0.80118   0.00000  Uiso   1.00
H167   H     0.91250   0.45723   0.59804   0.00000  Uiso   1.00
H168   H     0.25917   0.61533   0.42708   0.00000  Uiso   1.00
H169   H     0.05073   0.92378   0.54832   0.00000  Uiso   1.00
H170   H     0.08149   0.02152   0.63777   0.00000  Uiso   1.00
H171   H     0.95005   0.85043   0.54144   0.00000  Uiso   1.00
H172   H     0.11445   0.92541   0.46037   0.00000  Uiso   1.00
H173   H     0.12530   0.08881   0.74541   0.00000  Uiso   1.00
H174   H     0.84817   0.72806   0.54227   0.00000  Uiso   1.00
H175   H     0.19485   0.88617   0.37131   0.00000  Uiso   1.00
O176   O     0.17903   0.01196   0.83333   0.00000  Uiso   1.00
O177   O     0.81545   0.53868   0.56681   0.00000  Uiso   1.00
O178   O     0.27028   0.74611   0.34251   0.00000  Uiso   1.00
N179   N     0.17028   0.86830   0.77578   0.00000  Uiso   1.00
N180   N     0.91118   0.53103   0.58586   0.00000  Uiso   1.00
N181   N     0.23527   0.67883   0.42602   0.00000  Uiso   1.00
N182   N     0.13567   0.01404   0.74577   0.00000  Uiso   1.00
N183   N     0.87657   0.67677   0.55585   0.00000  Uiso   1.00
N184   N     0.20066   0.82457   0.39601   0.00000  Uiso   1.00
C185   C     0.39135   0.67992   0.09853   0.00000  Uiso   1.00
C186   C     0.38282   0.76746   0.14004   0.00000  Uiso   1.00
C187   C     0.35637   0.75987   0.19166   0.00000  Uiso   1.00
C188   C     0.35281   0.84878   0.22348   0.00000  Uiso   1.00
C189   C     0.33622   0.97053   0.29086   0.00000  Uiso   1.00
C190   C     0.45423   0.67451   0.08771   0.00000  Uiso   1.00
C191   C     0.48782   0.58877   0.09532   0.00000  Uiso   1.00
C192   C     0.54438   0.59943   0.08308   0.00000  Uiso   1.00
C193   C     0.63865   0.57685   0.06917   0.00000  Uiso   1.00
C194   C     0.36490   0.71525   0.04367   0.00000  Uiso   1.00
C195   C     0.32340   0.66375   0.01423   0.00000  Uiso   1.00
C196   C     0.30475   0.70870   0.96490   0.00000  Uiso   1.00
C197   C     0.26033   0.74938   0.88260   0.00000  Uiso   1.00
C198   C     0.43205   0.85131   0.06324   0.00000  Uiso   1.00
C199   C     0.40493   0.86055   0.12087   0.00000  Uiso   1.00
C200   C     0.40140   0.94949   0.15262   0.00000  Uiso   1.00
C201   C     0.37495   0.94204   0.20428   0.00000  Uiso   1.00
C202   C     0.47634   0.76759   0.06854   0.00000  Uiso   1.00
C203   C     0.53286   0.77838   0.05628   0.00000  Uiso   1.00
C204   C     0.56653   0.69269   0.06387   0.00000  Uiso   1.00
C205   C     0.38701   0.80834   0.02449   0.00000  Uiso   1.00
C206   C     0.36843   0.85337   0.97519   0.00000  Uiso   1.00
C207   C     0.32690   0.80196   0.94569   0.00000  Uiso   1.00
H208   H     0.37414   0.60745   0.11346   0.00000  Uiso   1.00
H209   H     0.33927   0.68782   0.20649   0.00000  Uiso   1.00
H210   H     0.47070   0.51674   0.11015   0.00000  Uiso   1.00
H211   H     0.30630   0.59172   0.02908   0.00000  Uiso   1.00
H212   H     0.31037   0.81797   0.30118   0.00000  Uiso   1.00
H213   H     0.58750   0.45723   0.09804   0.00000  Uiso   1.00
H214   H     0.24083   0.61533   0.92708   0.00000  Uiso   1.00
H215   H     0.44927   0.92378   0.04832   0.00000  Uiso   1.00
H216   H     0.41851   0.02152   0.13777   0.00000  Uiso   1.00
H217   H     0.54995   0.85043   0.04144   0.00000  Uiso   1.00
H218   H     0.38555   0.92541   0.96037   0.00000  Uiso   1.00
H219   H     0.37470   0.08881   0.24541   0.00000  Uiso   1.00
H220   H     0.65183   0.72806   0.04227   0.00000  Uiso   1.00
H221   H     0.30515   0.88617   0.87131   0.00000  Uiso   1.00
O222   O     0.32097   0.01196   0.33333   0.00000  Uiso   1.00
O223   O     0.68455   0.53868   0.06681   0.00000  Uiso   1.00
O224   O     0.22972   0.74611   0.84251   0.00000  Uiso   1.00
N225   N     0.32972   0.86830   0.27578   0.00000  Uiso   1.00
N226   N     0.58882   0.53103   0.08586   0.00000  Uiso   1.00
N227   N     0.26473   0.67883   0.92602   0.00000  Uiso   1.00
N228   N     0.36433   0.01404   0.24577   0.00000  Uiso   1.00
N229   N     0.62343   0.67677   0.05585   0.00000  Uiso   1.00
N230   N     0.29934   0.82457   0.89601   0.00000  Uiso   1.00
C231   C     0.10865   0.32008   0.09853   0.00000  Uiso   1.00
C232   C     0.11718   0.23254   0.14004   0.00000  Uiso   1.00
C233   C     0.14363   0.24013   0.19166   0.00000  Uiso   1.00
C234   C     0.14719   0.15122   0.22348   0.00000  Uiso   1.00
C235   C     0.16378   0.02947   0.29086   0.00000  Uiso   1.00
C236   C     0.04577   0.32549   0.08771   0.00000  Uiso   1.00
C237   C     0.01218   0.41123   0.09532   0.00000  Uiso   1.00
C238   C     0.95562   0.40057   0.08308   0.00000  Uiso   1.00
C239   C     0.86135   0.42315   0.06917   0.00000  Uiso   1.00
C240   C     0.13510   0.28475   0.04367   0.00000  Uiso   1.00
C241   C     0.17660   0.33625   0.01423   0.00000  Uiso   1.00
C242   C     0.19525   0.29130   0.96490   0.00000  Uiso   1.00
C243   C     0.23967   0.25062   0.88260   0.00000  Uiso   1.00
C244   C     0.06795   0.14869   0.06324   0.00000  Uiso   1.00
C245   C     0.09507   0.13945   0.12087   0.00000  Uiso   1.00
C246   C     0.09860   0.05051   0.15262   0.00000  Uiso   1.00
C247   C     0.12505   0.05796   0.20428   0.00000  Uiso   1.00
C248   C     0.02366   0.23241   0.06854   0.00000  Uiso   1.00
C249   C     0.96714   0.22162   0.05628   0.00000  Uiso   1.00
C250   C     0.93347   0.30731   0.06387   0.00000  Uiso   1.00
C251   C     0.11299   0.19166   0.02449   0.00000  Uiso   1.00
C252   C     0.13157   0.14663   0.97519   0.00000  Uiso   1.00
C253   C     0.17310   0.19804   0.94569   0.00000  Uiso   1.00
H254   H     0.12586   0.39255   0.11346   0.00000  Uiso   1.00
H255   H     0.16073   0.31218   0.20649   0.00000  Uiso   1.00
H256   H     0.02930   0.48326   0.11015   0.00000  Uiso   1.00
H257   H     0.19370   0.40828   0.02908   0.00000  Uiso   1.00
H258   H     0.18963   0.18203   0.30118   0.00000  Uiso   1.00
H259   H     0.91250   0.54277   0.09804   0.00000  Uiso   1.00
H260   H     0.25917   0.38467   0.92708   0.00000  Uiso   1.00
H261   H     0.05073   0.07622   0.04832   0.00000  Uiso   1.00
H262   H     0.08149   0.97848   0.13777   0.00000  Uiso   1.00
H263   H     0.95005   0.14957   0.04144   0.00000  Uiso   1.00
H264   H     0.11445   0.07459   0.96037   0.00000  Uiso   1.00
H265   H     0.12530   0.91119   0.24541   0.00000  Uiso   1.00
H266   H     0.84817   0.27194   0.04227   0.00000  Uiso   1.00
H267   H     0.19485   0.11383   0.87131   0.00000  Uiso   1.00
O268   O     0.17903   0.98804   0.33333   0.00000  Uiso   1.00
O269   O     0.81545   0.46132   0.06681   0.00000  Uiso   1.00
O270   O     0.27028   0.25389   0.84251   0.00000  Uiso   1.00
N271   N     0.17028   0.13170   0.27578   0.00000  Uiso   1.00
N272   N     0.91118   0.46897   0.08586   0.00000  Uiso   1.00
N273   N     0.23527   0.32117   0.92602   0.00000  Uiso   1.00
N274   N     0.13567   0.98596   0.24577   0.00000  Uiso   1.00
N275   N     0.87657   0.32323   0.05585   0.00000  Uiso   1.00
N276   N     0.20066   0.17543   0.89601   0.00000  Uiso   1.00
C277   C     0.60865   0.67992   0.40147   0.00000  Uiso   1.00
C278   C     0.61718   0.76746   0.35996   0.00000  Uiso   1.00
C279   C     0.64363   0.75987   0.30834   0.00000  Uiso   1.00
C280   C     0.64719   0.84878   0.27652   0.00000  Uiso   1.00
C281   C     0.66378   0.97053   0.20914   0.00000  Uiso   1.00
C282   C     0.54577   0.67451   0.41229   0.00000  Uiso   1.00
C283   C     0.51218   0.58877   0.40468   0.00000  Uiso   1.00
C284   C     0.45562   0.59943   0.41692   0.00000  Uiso   1.00
C285   C     0.36135   0.57685   0.43083   0.00000  Uiso   1.00
C286   C     0.63510   0.71525   0.45633   0.00000  Uiso   1.00
C287   C     0.67660   0.66375   0.48577   0.00000  Uiso   1.00
C288   C     0.69525   0.70870   0.53510   0.00000  Uiso   1.00
C289   C     0.73967   0.74938   0.61740   0.00000  Uiso   1.00
C290   C     0.56795   0.85131   0.43676   0.00000  Uiso   1.00
C291   C     0.59507   0.86055   0.37913   0.00000  Uiso   1.00
C292   C     0.59860   0.94949   0.34738   0.00000  Uiso   1.00
C293   C     0.62505   0.94204   0.29572   0.00000  Uiso   1.00
C294   C     0.52366   0.76759   0.43146   0.00000  Uiso   1.00
C295   C     0.46714   0.77838   0.44372   0.00000  Uiso   1.00
C296   C     0.43347   0.69269   0.43613   0.00000  Uiso   1.00
C297   C     0.61299   0.80834   0.47551   0.00000  Uiso   1.00
C298   C     0.63157   0.85337   0.52481   0.00000  Uiso   1.00
C299   C     0.67310   0.80196   0.55431   0.00000  Uiso   1.00
H300   H     0.62586   0.60745   0.38654   0.00000  Uiso   1.00
H301   H     0.66073   0.68782   0.29351   0.00000  Uiso   1.00
H302   H     0.52930   0.51674   0.38985   0.00000  Uiso   1.00
H303   H     0.69370   0.59172   0.47092   0.00000  Uiso   1.00
H304   H     0.68963   0.81797   0.19882   0.00000  Uiso   1.00
H305   H     0.41250   0.45723   0.40196   0.00000  Uiso   1.00
H306   H     0.75917   0.61533   0.57292   0.00000  Uiso   1.00
H307   H     0.55073   0.92378   0.45168   0.00000  Uiso   1.00
H308   H     0.58149   0.02152   0.36223   0.00000  Uiso   1.00
H309   H     0.45005   0.85043   0.45856   0.00000  Uiso   1.00
H310   H     0.61445   0.92541   0.53963   0.00000  Uiso   1.00
H311   H     0.62530   0.08881   0.25459   0.00000  Uiso   1.00
H312   H     0.34817   0.72806   0.45773   0.00000  Uiso   1.00
H313   H     0.69485   0.88617   0.62869   0.00000  Uiso   1.00
O314   O     0.67903   0.01196   0.16667   0.00000  Uiso   1.00
O315   O     0.31545   0.53868   0.43319   0.00000  Uiso   1.00
O316   O     0.77028   0.74611   0.65749   0.00000  Uiso   1.00
N317   N     0.67028   0.86830   0.22422   0.00000  Uiso   1.00
N318   N     0.41118   0.53103   0.41414   0.00000  Uiso   1.00
N319   N     0.73527   0.67883   0.57398   0.00000  Uiso   1.00
N320   N     0.63567   0.01404   0.25423   0.00000  Uiso   1.00
N321   N     0.37657   0.67677   0.44415   0.00000  Uiso   1.00
N322   N     0.70066   0.82457   0.60399   0.00000  Uiso   1.00
C323   C     0.89135   0.32008   0.40147   0.00000  Uiso   1.00
C324   C     0.88282   0.23254   0.35996   0.00000  Uiso   1.00
C325   C     0.85637   0.24013   0.30834   0.00000  Uiso   1.00
C326   C     0.85281   0.15122   0.27652   0.00000  Uiso   1.00
C327   C     0.83622   0.02947   0.20914   0.00000  Uiso   1.00
C328   C     0.95423   0.32549   0.41229   0.00000  Uiso   1.00
C329   C     0.98782   0.41123   0.40468   0.00000  Uiso   1.00
C330   C     0.04438   0.40057   0.41692   0.00000  Uiso   1.00
C331   C     0.13865   0.42315   0.43083   0.00000  Uiso   1.00
C332   C     0.86490   0.28475   0.45633   0.00000  Uiso   1.00
C333   C     0.82340   0.33625   0.48577   0.00000  Uiso   1.00
C334   C     0.80475   0.29130   0.53510   0.00000  Uiso   1.00
C335   C     0.76033   0.25062   0.61740   0.00000  Uiso   1.00
C336   C     0.93205   0.14869   0.43676   0.00000  Uiso   1.00
C337   C     0.90493   0.13945   0.37913   0.00000  Uiso   1.00
C338   C     0.90140   0.05051   0.34738   0.00000  Uiso   1.00
C339   C     0.87495   0.05796   0.29572   0.00000  Uiso   1.00
C340   C     0.97634   0.23241   0.43146   0.00000  Uiso   1.00
C341   C     0.03286   0.22162   0.44372   0.00000  Uiso   1.00
C342   C     0.06653   0.30731   0.43613   0.00000  Uiso   1.00
C343   C     0.88701   0.19166   0.47551   0.00000  Uiso   1.00
C344   C     0.86843   0.14663   0.52481   0.00000  Uiso   1.00
C345   C     0.82690   0.19804   0.55431   0.00000  Uiso   1.00
H346   H     0.87414   0.39255   0.38654   0.00000  Uiso   1.00
H347   H     0.83927   0.31218   0.29351   0.00000  Uiso   1.00
H348   H     0.97070   0.48326   0.38985   0.00000  Uiso   1.00
H349   H     0.80630   0.40828   0.47092   0.00000  Uiso   1.00
H350   H     0.81037   0.18203   0.19882   0.00000  Uiso   1.00
H351   H     0.08750   0.54277   0.40196   0.00000  Uiso   1.00
H352   H     0.74083   0.38467   0.57292   0.00000  Uiso   1.00
H353   H     0.94927   0.07622   0.45168   0.00000  Uiso   1.00
H354   H     0.91851   0.97848   0.36223   0.00000  Uiso   1.00
H355   H     0.04995   0.14957   0.45856   0.00000  Uiso   1.00
H356   H     0.88555   0.07459   0.53963   0.00000  Uiso   1.00
H357   H     0.87470   0.91119   0.25459   0.00000  Uiso   1.00
H358   H     0.15183   0.27194   0.45773   0.00000  Uiso   1.00
H359   H     0.80515   0.11383   0.62869   0.00000  Uiso   1.00
O360   O     0.82097   0.98804   0.16667   0.00000  Uiso   1.00
O361   O     0.18455   0.46132   0.43319   0.00000  Uiso   1.00
O362   O     0.72972   0.25389   0.65749   0.00000  Uiso   1.00
N363   N     0.82972   0.13170   0.22422   0.00000  Uiso   1.00
N364   N     0.08882   0.46897   0.41414   0.00000  Uiso   1.00
N365   N     0.76473   0.32117   0.57398   0.00000  Uiso   1.00
N366   N     0.86433   0.98596   0.25423   0.00000  Uiso   1.00
N367   N     0.12343   0.32323   0.44415   0.00000  Uiso   1.00
N368   N     0.79934   0.17543   0.60399   0.00000  Uiso   1.00
