data_job_01937
_audit_creation_date              2018-12-19
_audit_creation_method            'Materials Studio'
_symmetry_space_group_name_H-M    'P1'
_symmetry_Int_Tables_number       1
_symmetry_cell_setting            triclinic
loop_
_symmetry_equiv_pos_as_xyz
  x,y,z
_cell_length_a                    20.3216
_cell_length_b                    20.3216
_cell_length_c                    10.7245
_cell_angle_alpha                 90.0000
_cell_angle_beta                  90.0000
_cell_angle_gamma                 120.0000
loop_
_atom_site_label
_atom_site_type_symbol
_atom_site_fract_x
_atom_site_fract_y
_atom_site_fract_z
_atom_site_U_iso_or_equiv
_atom_site_adp_type
_atom_site_occupancy
C1     C     0.54176   0.83309   0.24483   0.00000  Uiso   1.00
C2     C     0.55766   0.76747   0.25527   0.00000  Uiso   1.00
C3     C     0.52915   0.71152   0.34643   0.00000  Uiso   1.00
C4     C     0.55040   0.65643   0.33979   0.00000  Uiso   1.00
C5     C     0.56780   0.55444   0.37039   0.00000  Uiso   1.00
C6     C     0.61918   0.90550   0.24530   0.00000  Uiso   1.00
C7     C     0.64239   0.96560   0.32808   0.00000  Uiso   1.00
C8     C     0.71542   0.02671   0.31302   0.00000  Uiso   1.00
C9     C     0.82831   0.13903   0.32810   0.00000  Uiso   1.00
C10    C     0.50905   0.82744   0.11475   0.00000  Uiso   1.00
C11    C     0.43967   0.82193   0.08775   0.00000  Uiso   1.00
C12    C     0.41999   0.81734   0.96277   0.00000  Uiso   1.00
C13    C     0.36189   0.80846   0.77515   0.00000  Uiso   1.00
C14    C     0.63018   0.83477   0.07090   0.00000  Uiso   1.00
C15    C     0.60568   0.76839   0.16079   0.00000  Uiso   1.00
C16    C     0.62697   0.71337   0.15399   0.00000  Uiso   1.00
C17    C     0.59850   0.65734   0.24514   0.00000  Uiso   1.00
C18    C     0.66720   0.90642   0.15083   0.00000  Uiso   1.00
C19    C     0.74021   0.96746   0.13564   0.00000  Uiso   1.00
C20    C     0.76353   0.02763   0.21838   0.00000  Uiso   1.00
C21    C     0.55707   0.82835   0.02027   0.00000  Uiso   1.00
C22    C     0.53749   0.82378   0.89531   0.00000  Uiso   1.00
C23    C     0.46810   0.81826   0.86813   0.00000  Uiso   1.00
H24    H     0.50438   0.83238   0.31839   0.00000  Uiso   1.00
H25    H     0.49200   0.71083   0.41954   0.00000  Uiso   1.00
H26    H     0.60521   0.96488   0.40117   0.00000  Uiso   1.00
H27    H     0.40253   0.82122   0.16088   0.00000  Uiso   1.00
H28    H     0.49947   0.57650   0.49005   0.00000  Uiso   1.00
H29    H     0.73818   0.11218   0.45130   0.00000  Uiso   1.00
H30    H     0.31078   0.80925   0.94460   0.00000  Uiso   1.00
H31    H     0.66757   0.83548   0.99734   0.00000  Uiso   1.00
H32    H     0.66414   0.71410   0.08087   0.00000  Uiso   1.00
H33    H     0.77735   0.96814   0.06251   0.00000  Uiso   1.00
H34    H     0.57467   0.82449   0.82222   0.00000  Uiso   1.00
H35    H     0.63919   0.57914   0.21518   0.00000  Uiso   1.00
H36    H     0.87790   0.11483   0.17643   0.00000  Uiso   1.00
H37    H     0.45049   0.81190   0.66973   0.00000  Uiso   1.00
O38    O     0.56415   0.49793   0.41338   0.00000  Uiso   1.00
O39    O     0.87732   0.20073   0.36253   0.00000  Uiso   1.00
O40    O     0.31658   0.80330   0.69775   0.00000  Uiso   1.00
N41    N     0.53281   0.59377   0.41388   0.00000  Uiso   1.00
N42    N     0.75600   0.09459   0.37766   0.00000  Uiso   1.00
N43    N     0.35642   0.81141   0.90394   0.00000  Uiso   1.00
N44    N     0.60799   0.59519   0.26597   0.00000  Uiso   1.00
N45    N     0.83118   0.09602   0.22976   0.00000  Uiso   1.00
N46    N     0.43160   0.81283   0.75603   0.00000  Uiso   1.00
C47    C     0.16691   0.70868   0.24483   0.00000  Uiso   1.00
C48    C     0.23253   0.79019   0.25527   0.00000  Uiso   1.00
C49    C     0.28848   0.81764   0.34643   0.00000  Uiso   1.00
C50    C     0.34357   0.89396   0.33979   0.00000  Uiso   1.00
C51    C     0.44556   0.01337   0.37039   0.00000  Uiso   1.00
C52    C     0.09450   0.71368   0.24530   0.00000  Uiso   1.00
C53    C     0.03440   0.67679   0.32808   0.00000  Uiso   1.00
C54    C     0.97329   0.68870   0.31302   0.00000  Uiso   1.00
C55    C     0.86097   0.68928   0.32810   0.00000  Uiso   1.00
C56    C     0.17256   0.68161   0.11475   0.00000  Uiso   1.00
C57    C     0.17807   0.61774   0.08775   0.00000  Uiso   1.00
C58    C     0.18266   0.60265   0.96277   0.00000  Uiso   1.00
C59    C     0.19154   0.55343   0.77515   0.00000  Uiso   1.00
C60    C     0.16523   0.79541   0.07090   0.00000  Uiso   1.00
C61    C     0.23161   0.83729   0.16079   0.00000  Uiso   1.00
C62    C     0.28663   0.91360   0.15399   0.00000  Uiso   1.00
C63    C     0.34266   0.94116   0.24514   0.00000  Uiso   1.00
C64    C     0.09358   0.76078   0.15083   0.00000  Uiso   1.00
C65    C     0.03254   0.77275   0.13564   0.00000  Uiso   1.00
C66    C     0.97237   0.73590   0.21838   0.00000  Uiso   1.00
C67    C     0.17165   0.72872   0.02027   0.00000  Uiso   1.00
C68    C     0.17622   0.71371   0.89531   0.00000  Uiso   1.00
C69    C     0.18174   0.64984   0.86813   0.00000  Uiso   1.00
H70    H     0.16762   0.67200   0.31839   0.00000  Uiso   1.00
H71    H     0.28917   0.78116   0.41954   0.00000  Uiso   1.00
H72    H     0.03512   0.64033   0.40117   0.00000  Uiso   1.00
H73    H     0.17878   0.58130   0.16088   0.00000  Uiso   1.00
H74    H     0.42350   0.92297   0.49005   0.00000  Uiso   1.00
H75    H     0.88782   0.62601   0.45130   0.00000  Uiso   1.00
H76    H     0.19075   0.50152   0.94460   0.00000  Uiso   1.00
H77    H     0.16452   0.83209   0.99734   0.00000  Uiso   1.00
H78    H     0.28590   0.95004   0.08087   0.00000  Uiso   1.00
H79    H     0.03186   0.80921   0.06251   0.00000  Uiso   1.00
H80    H     0.17551   0.75018   0.82222   0.00000  Uiso   1.00
H81    H     0.42086   0.06004   0.21518   0.00000  Uiso   1.00
H82    H     0.88517   0.76307   0.17643   0.00000  Uiso   1.00
H83    H     0.18810   0.63859   0.66973   0.00000  Uiso   1.00
O84    O     0.50207   0.06622   0.41338   0.00000  Uiso   1.00
O85    O     0.79927   0.67659   0.36253   0.00000  Uiso   1.00
O86    O     0.19670   0.51328   0.69775   0.00000  Uiso   1.00
N87    N     0.40623   0.93904   0.41388   0.00000  Uiso   1.00
N88    N     0.90541   0.66140   0.37766   0.00000  Uiso   1.00
N89    N     0.18859   0.54501   0.90394   0.00000  Uiso   1.00
N90    N     0.40481   0.01280   0.26597   0.00000  Uiso   1.00
N91    N     0.90398   0.73516   0.22976   0.00000  Uiso   1.00
N92    N     0.18717   0.61877   0.75603   0.00000  Uiso   1.00
C93    C     0.29132   0.45824   0.24483   0.00000  Uiso   1.00
C94    C     0.20981   0.44234   0.25527   0.00000  Uiso   1.00
C95    C     0.18236   0.47085   0.34643   0.00000  Uiso   1.00
C96    C     0.10604   0.44960   0.33979   0.00000  Uiso   1.00
C97    C     0.98663   0.43220   0.37039   0.00000  Uiso   1.00
C98    C     0.28632   0.38082   0.24530   0.00000  Uiso   1.00
C99    C     0.32321   0.35761   0.32808   0.00000  Uiso   1.00
C100   C     0.31130   0.28458   0.31302   0.00000  Uiso   1.00
C101   C     0.31072   0.17169   0.32810   0.00000  Uiso   1.00
C102   C     0.31839   0.49095   0.11475   0.00000  Uiso   1.00
C103   C     0.38226   0.56033   0.08775   0.00000  Uiso   1.00
C104   C     0.39735   0.58001   0.96277   0.00000  Uiso   1.00
C105   C     0.44657   0.63811   0.77515   0.00000  Uiso   1.00
C106   C     0.20459   0.36982   0.07090   0.00000  Uiso   1.00
C107   C     0.16271   0.39432   0.16079   0.00000  Uiso   1.00
C108   C     0.08640   0.37303   0.15399   0.00000  Uiso   1.00
C109   C     0.05884   0.40150   0.24514   0.00000  Uiso   1.00
C110   C     0.23922   0.33280   0.15083   0.00000  Uiso   1.00
C111   C     0.22725   0.25979   0.13564   0.00000  Uiso   1.00
C112   C     0.26410   0.23647   0.21838   0.00000  Uiso   1.00
C113   C     0.27128   0.44293   0.02027   0.00000  Uiso   1.00
C114   C     0.28629   0.46251   0.89531   0.00000  Uiso   1.00
C115   C     0.35016   0.53190   0.86813   0.00000  Uiso   1.00
H116   H     0.32800   0.49562   0.31839   0.00000  Uiso   1.00
H117   H     0.21884   0.50800   0.41954   0.00000  Uiso   1.00
H118   H     0.35967   0.39479   0.40117   0.00000  Uiso   1.00
H119   H     0.41870   0.59747   0.16088   0.00000  Uiso   1.00
H120   H     0.07703   0.50053   0.49005   0.00000  Uiso   1.00
H121   H     0.37399   0.26182   0.45130   0.00000  Uiso   1.00
H122   H     0.49848   0.68922   0.94460   0.00000  Uiso   1.00
H123   H     0.16791   0.33243   0.99734   0.00000  Uiso   1.00
H124   H     0.04996   0.33586   0.08087   0.00000  Uiso   1.00
H125   H     0.19079   0.22265   0.06251   0.00000  Uiso   1.00
H126   H     0.24982   0.42533   0.82222   0.00000  Uiso   1.00
H127   H     0.93996   0.36081   0.21518   0.00000  Uiso   1.00
H128   H     0.23693   0.12210   0.17643   0.00000  Uiso   1.00
H129   H     0.36141   0.54951   0.66973   0.00000  Uiso   1.00
O130   O     0.93378   0.43585   0.41338   0.00000  Uiso   1.00
O131   O     0.32341   0.12268   0.36253   0.00000  Uiso   1.00
O132   O     0.48672   0.68342   0.69775   0.00000  Uiso   1.00
N133   N     0.06096   0.46719   0.41388   0.00000  Uiso   1.00
N134   N     0.33860   0.24400   0.37766   0.00000  Uiso   1.00
N135   N     0.45499   0.64358   0.90394   0.00000  Uiso   1.00
N136   N     0.98720   0.39201   0.26597   0.00000  Uiso   1.00
N137   N     0.26484   0.16882   0.22976   0.00000  Uiso   1.00
N138   N     0.38123   0.56840   0.75603   0.00000  Uiso   1.00
C139   C     0.45824   0.16691   0.75517   0.00000  Uiso   1.00
C140   C     0.44234   0.23253   0.74473   0.00000  Uiso   1.00
C141   C     0.47085   0.28848   0.65357   0.00000  Uiso   1.00
C142   C     0.44960   0.34357   0.66021   0.00000  Uiso   1.00
C143   C     0.43220   0.44556   0.62961   0.00000  Uiso   1.00
C144   C     0.38082   0.09450   0.75470   0.00000  Uiso   1.00
C145   C     0.35761   0.03440   0.67192   0.00000  Uiso   1.00
C146   C     0.28458   0.97329   0.68698   0.00000  Uiso   1.00
C147   C     0.17169   0.86097   0.67190   0.00000  Uiso   1.00
C148   C     0.49095   0.17256   0.88525   0.00000  Uiso   1.00
C149   C     0.56033   0.17807   0.91225   0.00000  Uiso   1.00
C150   C     0.58001   0.18266   0.03723   0.00000  Uiso   1.00
C151   C     0.63811   0.19154   0.22485   0.00000  Uiso   1.00
C152   C     0.36982   0.16523   0.92910   0.00000  Uiso   1.00
C153   C     0.39432   0.23161   0.83921   0.00000  Uiso   1.00
C154   C     0.37303   0.28663   0.84601   0.00000  Uiso   1.00
C155   C     0.40150   0.34266   0.75486   0.00000  Uiso   1.00
C156   C     0.33280   0.09358   0.84917   0.00000  Uiso   1.00
C157   C     0.25979   0.03254   0.86436   0.00000  Uiso   1.00
C158   C     0.23647   0.97237   0.78162   0.00000  Uiso   1.00
C159   C     0.44293   0.17165   0.97973   0.00000  Uiso   1.00
C160   C     0.46251   0.17622   0.10469   0.00000  Uiso   1.00
C161   C     0.53190   0.18174   0.13187   0.00000  Uiso   1.00
H162   H     0.49562   0.16762   0.68161   0.00000  Uiso   1.00
H163   H     0.50800   0.28917   0.58046   0.00000  Uiso   1.00
H164   H     0.39479   0.03512   0.59883   0.00000  Uiso   1.00
H165   H     0.59747   0.17878   0.83912   0.00000  Uiso   1.00
H166   H     0.50053   0.42350   0.50995   0.00000  Uiso   1.00
H167   H     0.26182   0.88782   0.54870   0.00000  Uiso   1.00
H168   H     0.68922   0.19075   0.05540   0.00000  Uiso   1.00
H169   H     0.33243   0.16452   0.00266   0.00000  Uiso   1.00
H170   H     0.33586   0.28590   0.91913   0.00000  Uiso   1.00
H171   H     0.22265   0.03186   0.93749   0.00000  Uiso   1.00
H172   H     0.42533   0.17551   0.17778   0.00000  Uiso   1.00
H173   H     0.36081   0.42086   0.78482   0.00000  Uiso   1.00
H174   H     0.12210   0.88517   0.82357   0.00000  Uiso   1.00
H175   H     0.54951   0.18810   0.33027   0.00000  Uiso   1.00
O176   O     0.43585   0.50207   0.58662   0.00000  Uiso   1.00
O177   O     0.12268   0.79927   0.63747   0.00000  Uiso   1.00
O178   O     0.68342   0.19670   0.30225   0.00000  Uiso   1.00
N179   N     0.46719   0.40623   0.58612   0.00000  Uiso   1.00
N180   N     0.24400   0.90541   0.62234   0.00000  Uiso   1.00
N181   N     0.64358   0.18859   0.09606   0.00000  Uiso   1.00
N182   N     0.39201   0.40481   0.73403   0.00000  Uiso   1.00
N183   N     0.16882   0.90398   0.77024   0.00000  Uiso   1.00
N184   N     0.56840   0.18717   0.24397   0.00000  Uiso   1.00
C185   C     0.83309   0.29132   0.75517   0.00000  Uiso   1.00
C186   C     0.76747   0.20981   0.74473   0.00000  Uiso   1.00
C187   C     0.71152   0.18236   0.65357   0.00000  Uiso   1.00
C188   C     0.65643   0.10604   0.66021   0.00000  Uiso   1.00
C189   C     0.55444   0.98663   0.62961   0.00000  Uiso   1.00
C190   C     0.90550   0.28632   0.75470   0.00000  Uiso   1.00
C191   C     0.96560   0.32321   0.67192   0.00000  Uiso   1.00
C192   C     0.02671   0.31130   0.68698   0.00000  Uiso   1.00
C193   C     0.13903   0.31072   0.67190   0.00000  Uiso   1.00
C194   C     0.82744   0.31839   0.88525   0.00000  Uiso   1.00
C195   C     0.82193   0.38226   0.91225   0.00000  Uiso   1.00
C196   C     0.81734   0.39735   0.03723   0.00000  Uiso   1.00
C197   C     0.80846   0.44657   0.22485   0.00000  Uiso   1.00
C198   C     0.83477   0.20459   0.92910   0.00000  Uiso   1.00
C199   C     0.76839   0.16271   0.83921   0.00000  Uiso   1.00
C200   C     0.71337   0.08640   0.84601   0.00000  Uiso   1.00
C201   C     0.65734   0.05884   0.75486   0.00000  Uiso   1.00
C202   C     0.90642   0.23922   0.84917   0.00000  Uiso   1.00
C203   C     0.96746   0.22725   0.86436   0.00000  Uiso   1.00
C204   C     0.02763   0.26410   0.78162   0.00000  Uiso   1.00
C205   C     0.82835   0.27128   0.97973   0.00000  Uiso   1.00
C206   C     0.82378   0.28629   0.10469   0.00000  Uiso   1.00
C207   C     0.81826   0.35016   0.13187   0.00000  Uiso   1.00
H208   H     0.83238   0.32800   0.68161   0.00000  Uiso   1.00
H209   H     0.71083   0.21884   0.58046   0.00000  Uiso   1.00
H210   H     0.96488   0.35967   0.59883   0.00000  Uiso   1.00
H211   H     0.82122   0.41870   0.83912   0.00000  Uiso   1.00
H212   H     0.57650   0.07703   0.50995   0.00000  Uiso   1.00
H213   H     0.11218   0.37399   0.54870   0.00000  Uiso   1.00
H214   H     0.80925   0.49848   0.05540   0.00000  Uiso   1.00
H215   H     0.83548   0.16791   0.00266   0.00000  Uiso   1.00
H216   H     0.71410   0.04996   0.91913   0.00000  Uiso   1.00
H217   H     0.96814   0.19079   0.93749   0.00000  Uiso   1.00
H218   H     0.82449   0.24982   0.17778   0.00000  Uiso   1.00
H219   H     0.57914   0.93996   0.78482   0.00000  Uiso   1.00
H220   H     0.11483   0.23693   0.82357   0.00000  Uiso   1.00
H221   H     0.81190   0.36141   0.33027   0.00000  Uiso   1.00
O222   O     0.49793   0.93378   0.58662   0.00000  Uiso   1.00
O223   O     0.20073   0.32341   0.63747   0.00000  Uiso   1.00
O224   O     0.80330   0.48672   0.30225   0.00000  Uiso   1.00
N225   N     0.59377   0.06096   0.58612   0.00000  Uiso   1.00
N226   N     0.09459   0.33860   0.62234   0.00000  Uiso   1.00
N227   N     0.81141   0.45499   0.09606   0.00000  Uiso   1.00
N228   N     0.59519   0.98720   0.73403   0.00000  Uiso   1.00
N229   N     0.09602   0.26484   0.77024   0.00000  Uiso   1.00
N230   N     0.81283   0.38123   0.24397   0.00000  Uiso   1.00
C231   C     0.70868   0.54176   0.75517   0.00000  Uiso   1.00
C232   C     0.79019   0.55766   0.74473   0.00000  Uiso   1.00
C233   C     0.81764   0.52915   0.65357   0.00000  Uiso   1.00
C234   C     0.89396   0.55040   0.66021   0.00000  Uiso   1.00
C235   C     0.01337   0.56780   0.62961   0.00000  Uiso   1.00
C236   C     0.71368   0.61918   0.75470   0.00000  Uiso   1.00
C237   C     0.67679   0.64239   0.67192   0.00000  Uiso   1.00
C238   C     0.68870   0.71542   0.68698   0.00000  Uiso   1.00
C239   C     0.68928   0.82831   0.67190   0.00000  Uiso   1.00
C240   C     0.68161   0.50905   0.88525   0.00000  Uiso   1.00
C241   C     0.61774   0.43967   0.91225   0.00000  Uiso   1.00
C242   C     0.60265   0.41999   0.03723   0.00000  Uiso   1.00
C243   C     0.55343   0.36189   0.22485   0.00000  Uiso   1.00
C244   C     0.79541   0.63018   0.92910   0.00000  Uiso   1.00
C245   C     0.83729   0.60568   0.83921   0.00000  Uiso   1.00
C246   C     0.91360   0.62697   0.84601   0.00000  Uiso   1.00
C247   C     0.94116   0.59850   0.75486   0.00000  Uiso   1.00
C248   C     0.76078   0.66720   0.84917   0.00000  Uiso   1.00
C249   C     0.77275   0.74021   0.86436   0.00000  Uiso   1.00
C250   C     0.73590   0.76353   0.78162   0.00000  Uiso   1.00
C251   C     0.72872   0.55707   0.97973   0.00000  Uiso   1.00
C252   C     0.71371   0.53749   0.10469   0.00000  Uiso   1.00
C253   C     0.64984   0.46810   0.13187   0.00000  Uiso   1.00
H254   H     0.67200   0.50438   0.68161   0.00000  Uiso   1.00
H255   H     0.78116   0.49200   0.58046   0.00000  Uiso   1.00
H256   H     0.64033   0.60521   0.59883   0.00000  Uiso   1.00
H257   H     0.58130   0.40253   0.83912   0.00000  Uiso   1.00
H258   H     0.92297   0.49947   0.50995   0.00000  Uiso   1.00
H259   H     0.62601   0.73818   0.54870   0.00000  Uiso   1.00
H260   H     0.50152   0.31078   0.05540   0.00000  Uiso   1.00
H261   H     0.83209   0.66757   0.00266   0.00000  Uiso   1.00
H262   H     0.95004   0.66414   0.91913   0.00000  Uiso   1.00
H263   H     0.80921   0.77735   0.93749   0.00000  Uiso   1.00
H264   H     0.75018   0.57467   0.17778   0.00000  Uiso   1.00
H265   H     0.06004   0.63919   0.78482   0.00000  Uiso   1.00
H266   H     0.76307   0.87790   0.82357   0.00000  Uiso   1.00
H267   H     0.63859   0.45049   0.33027   0.00000  Uiso   1.00
O268   O     0.06622   0.56415   0.58662   0.00000  Uiso   1.00
O269   O     0.67659   0.87732   0.63747   0.00000  Uiso   1.00
O270   O     0.51328   0.31658   0.30225   0.00000  Uiso   1.00
N271   N     0.93904   0.53281   0.58612   0.00000  Uiso   1.00
N272   N     0.66140   0.75600   0.62234   0.00000  Uiso   1.00
N273   N     0.54501   0.35642   0.09606   0.00000  Uiso   1.00
N274   N     0.01280   0.60799   0.73403   0.00000  Uiso   1.00
N275   N     0.73516   0.83118   0.77024   0.00000  Uiso   1.00
N276   N     0.61877   0.43160   0.24397   0.00000  Uiso   1.00
