data_job_02389
_audit_creation_date              2018-12-19
_audit_creation_method            'Materials Studio'
_symmetry_space_group_name_H-M    'P1'
_symmetry_Int_Tables_number       1
_symmetry_cell_setting            triclinic
loop_
_symmetry_equiv_pos_as_xyz
  x,y,z
_cell_length_a                    20.3054
_cell_length_b                    16.5080
_cell_length_c                    16.2031
_cell_angle_alpha                 90.0000
_cell_angle_beta                  90.0000
_cell_angle_gamma                 90.0000
loop_
_atom_site_label
_atom_site_type_symbol
_atom_site_fract_x
_atom_site_fract_y
_atom_site_fract_z
_atom_site_U_iso_or_equiv
_atom_site_adp_type
_atom_site_occupancy
C1     C     0.76673   0.45581   0.58039   0.00000  Uiso   1.00
C2     C     0.82047   0.40679   0.53762   0.00000  Uiso   1.00
C3     C     0.84402   0.33194   0.56308   0.00000  Uiso   1.00
C4     C     0.89332   0.29698   0.51557   0.00000  Uiso   1.00
C5     C     0.97300   0.21502   0.45990   0.00000  Uiso   1.00
C6     C     0.79708   0.53822   0.59942   0.00000  Uiso   1.00
C7     C     0.80096   0.57387   0.67684   0.00000  Uiso   1.00
C8     C     0.83056   0.64956   0.68135   0.00000  Uiso   1.00
C9     C     0.87389   0.77166   0.72161   0.00000  Uiso   1.00
C10    C     0.71395   0.47110   0.51529   0.00000  Uiso   1.00
C11    C     0.64794   0.45034   0.52197   0.00000  Uiso   1.00
C12    C     0.60755   0.46953   0.45565   0.00000  Uiso   1.00
C13    C     0.52181   0.48742   0.36528   0.00000  Uiso   1.00
C14    C     0.81239   0.52684   0.45074   0.00000  Uiso   1.00
C15    C     0.84526   0.44537   0.46720   0.00000  Uiso   1.00
C16    C     0.89454   0.41052   0.41964   0.00000  Uiso   1.00
C17    C     0.91816   0.33563   0.44502   0.00000  Uiso   1.00
C18    C     0.82187   0.57680   0.52901   0.00000  Uiso   1.00
C19    C     0.85147   0.65246   0.53340   0.00000  Uiso   1.00
C20    C     0.85540   0.68821   0.61080   0.00000  Uiso   1.00
C21    C     0.73875   0.50968   0.44487   0.00000  Uiso   1.00
C22    C     0.69845   0.52892   0.37852   0.00000  Uiso   1.00
C23    C     0.63239   0.50818   0.38510   0.00000  Uiso   1.00
H24    H     0.74743   0.42578   0.63522   0.00000  Uiso   1.00
H25    H     0.82482   0.30210   0.61759   0.00000  Uiso   1.00
H26    H     0.78176   0.54400   0.73133   0.00000  Uiso   1.00
H27    H     0.62876   0.42048   0.57648   0.00000  Uiso   1.00
H28    H     0.92159   0.18201   0.56700   0.00000  Uiso   1.00
H29    H     0.83076   0.69208   0.80682   0.00000  Uiso   1.00
H30    H     0.50814   0.43162   0.48029   0.00000  Uiso   1.00
H31    H     0.83170   0.55688   0.39591   0.00000  Uiso   1.00
H32    H     0.91372   0.44039   0.36514   0.00000  Uiso   1.00
H33    H     0.87065   0.68229   0.47889   0.00000  Uiso   1.00
H34    H     0.71766   0.55877   0.32404   0.00000  Uiso   1.00
H35    H     0.99374   0.29426   0.36211   0.00000  Uiso   1.00
H36    H     0.90291   0.80433   0.60193   0.00000  Uiso   1.00
H37    H     0.58029   0.54386   0.27540   0.00000  Uiso   1.00
O38    O     0.01011   0.15916   0.44865   0.00000  Uiso   1.00
O39    O     0.89094   0.82835   0.76328   0.00000  Uiso   1.00
O40    O     0.46767   0.48663   0.33488   0.00000  Uiso   1.00
N41    N     0.92730   0.22441   0.52299   0.00000  Uiso   1.00
N42    N     0.84240   0.70129   0.74721   0.00000  Uiso   1.00
N43    N     0.54076   0.45780   0.44195   0.00000  Uiso   1.00
N44    N     0.96612   0.28481   0.41274   0.00000  Uiso   1.00
N45    N     0.88122   0.76169   0.63696   0.00000  Uiso   1.00
N46    N     0.57959   0.51819   0.33169   0.00000  Uiso   1.00
C47    C     0.73327   0.04419   0.08039   0.00000  Uiso   1.00
C48    C     0.67953   0.09321   0.03762   0.00000  Uiso   1.00
C49    C     0.65598   0.16806   0.06308   0.00000  Uiso   1.00
C50    C     0.60668   0.20302   0.01557   0.00000  Uiso   1.00
C51    C     0.52700   0.28498   0.95990   0.00000  Uiso   1.00
C52    C     0.70292   0.96178   0.09942   0.00000  Uiso   1.00
C53    C     0.69904   0.92613   0.17684   0.00000  Uiso   1.00
C54    C     0.66944   0.85044   0.18135   0.00000  Uiso   1.00
C55    C     0.62611   0.72834   0.22161   0.00000  Uiso   1.00
C56    C     0.78605   0.02890   0.01529   0.00000  Uiso   1.00
C57    C     0.85206   0.04966   0.02197   0.00000  Uiso   1.00
C58    C     0.89245   0.03047   0.95565   0.00000  Uiso   1.00
C59    C     0.97819   0.01258   0.86528   0.00000  Uiso   1.00
C60    C     0.68761   0.97316   0.95074   0.00000  Uiso   1.00
C61    C     0.65474   0.05463   0.96720   0.00000  Uiso   1.00
C62    C     0.60546   0.08948   0.91964   0.00000  Uiso   1.00
C63    C     0.58184   0.16437   0.94502   0.00000  Uiso   1.00
C64    C     0.67813   0.92320   0.02901   0.00000  Uiso   1.00
C65    C     0.64853   0.84754   0.03340   0.00000  Uiso   1.00
C66    C     0.64460   0.81179   0.11080   0.00000  Uiso   1.00
C67    C     0.76125   0.99032   0.94487   0.00000  Uiso   1.00
C68    C     0.80155   0.97108   0.87852   0.00000  Uiso   1.00
C69    C     0.86761   0.99182   0.88510   0.00000  Uiso   1.00
H70    H     0.75257   0.07422   0.13522   0.00000  Uiso   1.00
H71    H     0.67518   0.19790   0.11759   0.00000  Uiso   1.00
H72    H     0.71824   0.95600   0.23133   0.00000  Uiso   1.00
H73    H     0.87124   0.07952   0.07648   0.00000  Uiso   1.00
H74    H     0.57841   0.31799   0.06700   0.00000  Uiso   1.00
H75    H     0.66924   0.80792   0.30682   0.00000  Uiso   1.00
H76    H     0.99186   0.06838   0.98029   0.00000  Uiso   1.00
H77    H     0.66830   0.94312   0.89591   0.00000  Uiso   1.00
H78    H     0.58628   0.05961   0.86514   0.00000  Uiso   1.00
H79    H     0.62935   0.81771   0.97889   0.00000  Uiso   1.00
H80    H     0.78234   0.94123   0.82404   0.00000  Uiso   1.00
H81    H     0.50626   0.20574   0.86211   0.00000  Uiso   1.00
H82    H     0.59709   0.69567   0.10193   0.00000  Uiso   1.00
H83    H     0.91971   0.95614   0.77540   0.00000  Uiso   1.00
O84    O     0.48989   0.34084   0.94865   0.00000  Uiso   1.00
O85    O     0.60906   0.67165   0.26328   0.00000  Uiso   1.00
O86    O     0.03233   0.01337   0.83488   0.00000  Uiso   1.00
N87    N     0.57270   0.27559   0.02299   0.00000  Uiso   1.00
N88    N     0.65760   0.79871   0.24721   0.00000  Uiso   1.00
N89    N     0.95924   0.04220   0.94195   0.00000  Uiso   1.00
N90    N     0.53388   0.21519   0.91274   0.00000  Uiso   1.00
N91    N     0.61878   0.73831   0.13696   0.00000  Uiso   1.00
N92    N     0.92041   0.98181   0.83169   0.00000  Uiso   1.00
C93    C     0.23327   0.45581   0.91961   0.00000  Uiso   1.00
C94    C     0.17953   0.40679   0.96238   0.00000  Uiso   1.00
C95    C     0.15598   0.33194   0.93692   0.00000  Uiso   1.00
C96    C     0.10668   0.29698   0.98443   0.00000  Uiso   1.00
C97    C     0.02700   0.21502   0.04010   0.00000  Uiso   1.00
C98    C     0.20292   0.53822   0.90058   0.00000  Uiso   1.00
C99    C     0.19904   0.57387   0.82316   0.00000  Uiso   1.00
C100   C     0.16944   0.64956   0.81865   0.00000  Uiso   1.00
C101   C     0.12611   0.77166   0.77839   0.00000  Uiso   1.00
C102   C     0.28605   0.47110   0.98471   0.00000  Uiso   1.00
C103   C     0.35206   0.45034   0.97803   0.00000  Uiso   1.00
C104   C     0.39245   0.46953   0.04435   0.00000  Uiso   1.00
C105   C     0.47819   0.48742   0.13472   0.00000  Uiso   1.00
C106   C     0.18761   0.52684   0.04926   0.00000  Uiso   1.00
C107   C     0.15474   0.44537   0.03280   0.00000  Uiso   1.00
C108   C     0.10546   0.41052   0.08036   0.00000  Uiso   1.00
C109   C     0.08184   0.33563   0.05498   0.00000  Uiso   1.00
C110   C     0.17813   0.57680   0.97099   0.00000  Uiso   1.00
C111   C     0.14853   0.65246   0.96660   0.00000  Uiso   1.00
C112   C     0.14460   0.68821   0.88920   0.00000  Uiso   1.00
C113   C     0.26125   0.50968   0.05513   0.00000  Uiso   1.00
C114   C     0.30155   0.52892   0.12148   0.00000  Uiso   1.00
C115   C     0.36761   0.50818   0.11490   0.00000  Uiso   1.00
H116   H     0.25257   0.42578   0.86478   0.00000  Uiso   1.00
H117   H     0.17518   0.30210   0.88241   0.00000  Uiso   1.00
H118   H     0.21824   0.54400   0.76867   0.00000  Uiso   1.00
H119   H     0.37124   0.42048   0.92352   0.00000  Uiso   1.00
H120   H     0.07841   0.18201   0.93300   0.00000  Uiso   1.00
H121   H     0.16924   0.69208   0.69318   0.00000  Uiso   1.00
H122   H     0.49186   0.43162   0.01971   0.00000  Uiso   1.00
H123   H     0.16830   0.55688   0.10409   0.00000  Uiso   1.00
H124   H     0.08628   0.44039   0.13486   0.00000  Uiso   1.00
H125   H     0.12935   0.68229   0.02111   0.00000  Uiso   1.00
H126   H     0.28234   0.55877   0.17596   0.00000  Uiso   1.00
H127   H     0.00626   0.29426   0.13789   0.00000  Uiso   1.00
H128   H     0.09709   0.80433   0.89807   0.00000  Uiso   1.00
H129   H     0.41971   0.54386   0.22460   0.00000  Uiso   1.00
O130   O     0.98989   0.15916   0.05135   0.00000  Uiso   1.00
O131   O     0.10906   0.82835   0.73672   0.00000  Uiso   1.00
O132   O     0.53233   0.48663   0.16512   0.00000  Uiso   1.00
N133   N     0.07270   0.22441   0.97701   0.00000  Uiso   1.00
N134   N     0.15760   0.70129   0.75279   0.00000  Uiso   1.00
N135   N     0.45924   0.45780   0.05805   0.00000  Uiso   1.00
N136   N     0.03388   0.28481   0.08726   0.00000  Uiso   1.00
N137   N     0.11878   0.76169   0.86304   0.00000  Uiso   1.00
N138   N     0.42041   0.51819   0.16831   0.00000  Uiso   1.00
C139   C     0.26673   0.04419   0.41961   0.00000  Uiso   1.00
C140   C     0.32047   0.09321   0.46238   0.00000  Uiso   1.00
C141   C     0.34402   0.16806   0.43692   0.00000  Uiso   1.00
C142   C     0.39332   0.20302   0.48443   0.00000  Uiso   1.00
C143   C     0.47300   0.28498   0.54010   0.00000  Uiso   1.00
C144   C     0.29708   0.96178   0.40058   0.00000  Uiso   1.00
C145   C     0.30096   0.92613   0.32316   0.00000  Uiso   1.00
C146   C     0.33056   0.85044   0.31865   0.00000  Uiso   1.00
C147   C     0.37389   0.72834   0.27839   0.00000  Uiso   1.00
C148   C     0.21395   0.02890   0.48471   0.00000  Uiso   1.00
C149   C     0.14794   0.04966   0.47803   0.00000  Uiso   1.00
C150   C     0.10755   0.03047   0.54435   0.00000  Uiso   1.00
C151   C     0.02181   0.01258   0.63472   0.00000  Uiso   1.00
C152   C     0.31239   0.97316   0.54926   0.00000  Uiso   1.00
C153   C     0.34526   0.05463   0.53280   0.00000  Uiso   1.00
C154   C     0.39454   0.08948   0.58036   0.00000  Uiso   1.00
C155   C     0.41816   0.16437   0.55498   0.00000  Uiso   1.00
C156   C     0.32187   0.92320   0.47099   0.00000  Uiso   1.00
C157   C     0.35147   0.84754   0.46660   0.00000  Uiso   1.00
C158   C     0.35540   0.81179   0.38920   0.00000  Uiso   1.00
C159   C     0.23875   0.99032   0.55513   0.00000  Uiso   1.00
C160   C     0.19845   0.97108   0.62148   0.00000  Uiso   1.00
C161   C     0.13239   0.99182   0.61490   0.00000  Uiso   1.00
H162   H     0.24743   0.07422   0.36478   0.00000  Uiso   1.00
H163   H     0.32482   0.19790   0.38241   0.00000  Uiso   1.00
H164   H     0.28176   0.95600   0.26867   0.00000  Uiso   1.00
H165   H     0.12876   0.07952   0.42352   0.00000  Uiso   1.00
H166   H     0.42159   0.31799   0.43300   0.00000  Uiso   1.00
H167   H     0.33076   0.80792   0.19318   0.00000  Uiso   1.00
H168   H     0.00814   0.06838   0.51971   0.00000  Uiso   1.00
H169   H     0.33170   0.94312   0.60409   0.00000  Uiso   1.00
H170   H     0.41372   0.05961   0.63486   0.00000  Uiso   1.00
H171   H     0.37065   0.81771   0.52111   0.00000  Uiso   1.00
H172   H     0.21766   0.94123   0.67596   0.00000  Uiso   1.00
H173   H     0.49374   0.20574   0.63789   0.00000  Uiso   1.00
H174   H     0.40291   0.69567   0.39807   0.00000  Uiso   1.00
H175   H     0.08029   0.95614   0.72460   0.00000  Uiso   1.00
O176   O     0.51011   0.34084   0.55135   0.00000  Uiso   1.00
O177   O     0.39094   0.67165   0.23672   0.00000  Uiso   1.00
O178   O     0.96767   0.01337   0.66512   0.00000  Uiso   1.00
N179   N     0.42730   0.27559   0.47701   0.00000  Uiso   1.00
N180   N     0.34240   0.79871   0.25279   0.00000  Uiso   1.00
N181   N     0.04076   0.04220   0.55805   0.00000  Uiso   1.00
N182   N     0.46612   0.21519   0.58726   0.00000  Uiso   1.00
N183   N     0.38122   0.73831   0.36304   0.00000  Uiso   1.00
N184   N     0.07959   0.98181   0.66831   0.00000  Uiso   1.00
C185   C     0.23327   0.54419   0.41961   0.00000  Uiso   1.00
C186   C     0.17953   0.59321   0.46238   0.00000  Uiso   1.00
C187   C     0.15598   0.66806   0.43692   0.00000  Uiso   1.00
C188   C     0.10668   0.70302   0.48443   0.00000  Uiso   1.00
C189   C     0.02700   0.78498   0.54010   0.00000  Uiso   1.00
C190   C     0.20292   0.46178   0.40058   0.00000  Uiso   1.00
C191   C     0.19904   0.42613   0.32316   0.00000  Uiso   1.00
C192   C     0.16944   0.35044   0.31865   0.00000  Uiso   1.00
C193   C     0.12611   0.22834   0.27839   0.00000  Uiso   1.00
C194   C     0.28605   0.52890   0.48471   0.00000  Uiso   1.00
C195   C     0.35206   0.54966   0.47803   0.00000  Uiso   1.00
C196   C     0.39245   0.53047   0.54435   0.00000  Uiso   1.00
C197   C     0.47819   0.51258   0.63472   0.00000  Uiso   1.00
C198   C     0.18761   0.47316   0.54926   0.00000  Uiso   1.00
C199   C     0.15474   0.55463   0.53280   0.00000  Uiso   1.00
C200   C     0.10546   0.58948   0.58036   0.00000  Uiso   1.00
C201   C     0.08184   0.66437   0.55498   0.00000  Uiso   1.00
C202   C     0.17813   0.42320   0.47099   0.00000  Uiso   1.00
C203   C     0.14853   0.34754   0.46660   0.00000  Uiso   1.00
C204   C     0.14460   0.31179   0.38920   0.00000  Uiso   1.00
C205   C     0.26125   0.49032   0.55513   0.00000  Uiso   1.00
C206   C     0.30155   0.47108   0.62148   0.00000  Uiso   1.00
C207   C     0.36761   0.49182   0.61490   0.00000  Uiso   1.00
H208   H     0.25257   0.57422   0.36478   0.00000  Uiso   1.00
H209   H     0.17518   0.69790   0.38241   0.00000  Uiso   1.00
H210   H     0.21824   0.45600   0.26867   0.00000  Uiso   1.00
H211   H     0.37124   0.57952   0.42352   0.00000  Uiso   1.00
H212   H     0.07841   0.81799   0.43300   0.00000  Uiso   1.00
H213   H     0.16924   0.30792   0.19318   0.00000  Uiso   1.00
H214   H     0.49186   0.56838   0.51971   0.00000  Uiso   1.00
H215   H     0.16830   0.44312   0.60409   0.00000  Uiso   1.00
H216   H     0.08628   0.55961   0.63486   0.00000  Uiso   1.00
H217   H     0.12935   0.31771   0.52111   0.00000  Uiso   1.00
H218   H     0.28234   0.44123   0.67596   0.00000  Uiso   1.00
H219   H     0.00626   0.70574   0.63789   0.00000  Uiso   1.00
H220   H     0.09709   0.19567   0.39807   0.00000  Uiso   1.00
H221   H     0.41971   0.45614   0.72460   0.00000  Uiso   1.00
O222   O     0.98989   0.84084   0.55135   0.00000  Uiso   1.00
O223   O     0.10906   0.17165   0.23672   0.00000  Uiso   1.00
O224   O     0.53233   0.51337   0.66512   0.00000  Uiso   1.00
N225   N     0.07270   0.77559   0.47701   0.00000  Uiso   1.00
N226   N     0.15760   0.29871   0.25279   0.00000  Uiso   1.00
N227   N     0.45924   0.54220   0.55805   0.00000  Uiso   1.00
N228   N     0.03388   0.71519   0.58726   0.00000  Uiso   1.00
N229   N     0.11878   0.23831   0.36304   0.00000  Uiso   1.00
N230   N     0.42041   0.48181   0.66831   0.00000  Uiso   1.00
C231   C     0.26673   0.95581   0.91961   0.00000  Uiso   1.00
C232   C     0.32047   0.90679   0.96238   0.00000  Uiso   1.00
C233   C     0.34402   0.83194   0.93692   0.00000  Uiso   1.00
C234   C     0.39332   0.79698   0.98443   0.00000  Uiso   1.00
C235   C     0.47300   0.71502   0.04010   0.00000  Uiso   1.00
C236   C     0.29708   0.03822   0.90058   0.00000  Uiso   1.00
C237   C     0.30096   0.07387   0.82316   0.00000  Uiso   1.00
C238   C     0.33056   0.14956   0.81865   0.00000  Uiso   1.00
C239   C     0.37389   0.27166   0.77839   0.00000  Uiso   1.00
C240   C     0.21395   0.97110   0.98471   0.00000  Uiso   1.00
C241   C     0.14794   0.95034   0.97803   0.00000  Uiso   1.00
C242   C     0.10755   0.96953   0.04435   0.00000  Uiso   1.00
C243   C     0.02181   0.98742   0.13472   0.00000  Uiso   1.00
C244   C     0.31239   0.02684   0.04926   0.00000  Uiso   1.00
C245   C     0.34526   0.94537   0.03280   0.00000  Uiso   1.00
C246   C     0.39454   0.91052   0.08036   0.00000  Uiso   1.00
C247   C     0.41816   0.83563   0.05498   0.00000  Uiso   1.00
C248   C     0.32187   0.07680   0.97099   0.00000  Uiso   1.00
C249   C     0.35147   0.15246   0.96660   0.00000  Uiso   1.00
C250   C     0.35540   0.18821   0.88920   0.00000  Uiso   1.00
C251   C     0.23875   0.00968   0.05513   0.00000  Uiso   1.00
C252   C     0.19845   0.02892   0.12148   0.00000  Uiso   1.00
C253   C     0.13239   0.00818   0.11490   0.00000  Uiso   1.00
H254   H     0.24743   0.92578   0.86478   0.00000  Uiso   1.00
H255   H     0.32482   0.80210   0.88241   0.00000  Uiso   1.00
H256   H     0.28176   0.04400   0.76867   0.00000  Uiso   1.00
H257   H     0.12876   0.92048   0.92352   0.00000  Uiso   1.00
H258   H     0.42159   0.68201   0.93300   0.00000  Uiso   1.00
H259   H     0.33076   0.19208   0.69318   0.00000  Uiso   1.00
H260   H     0.00814   0.93162   0.01971   0.00000  Uiso   1.00
H261   H     0.33170   0.05688   0.10409   0.00000  Uiso   1.00
H262   H     0.41372   0.94039   0.13486   0.00000  Uiso   1.00
H263   H     0.37065   0.18229   0.02111   0.00000  Uiso   1.00
H264   H     0.21766   0.05877   0.17596   0.00000  Uiso   1.00
H265   H     0.49374   0.79426   0.13789   0.00000  Uiso   1.00
H266   H     0.40291   0.30433   0.89807   0.00000  Uiso   1.00
H267   H     0.08029   0.04386   0.22460   0.00000  Uiso   1.00
O268   O     0.51011   0.65916   0.05135   0.00000  Uiso   1.00
O269   O     0.39094   0.32835   0.73672   0.00000  Uiso   1.00
O270   O     0.96767   0.98663   0.16512   0.00000  Uiso   1.00
N271   N     0.42730   0.72441   0.97701   0.00000  Uiso   1.00
N272   N     0.34240   0.20129   0.75279   0.00000  Uiso   1.00
N273   N     0.04076   0.95780   0.05805   0.00000  Uiso   1.00
N274   N     0.46612   0.78481   0.08726   0.00000  Uiso   1.00
N275   N     0.38122   0.26169   0.86304   0.00000  Uiso   1.00
N276   N     0.07959   0.01819   0.16831   0.00000  Uiso   1.00
C277   C     0.76673   0.54419   0.08039   0.00000  Uiso   1.00
C278   C     0.82047   0.59321   0.03762   0.00000  Uiso   1.00
C279   C     0.84402   0.66806   0.06308   0.00000  Uiso   1.00
C280   C     0.89332   0.70302   0.01557   0.00000  Uiso   1.00
C281   C     0.97300   0.78498   0.95990   0.00000  Uiso   1.00
C282   C     0.79708   0.46178   0.09942   0.00000  Uiso   1.00
C283   C     0.80096   0.42613   0.17684   0.00000  Uiso   1.00
C284   C     0.83056   0.35044   0.18135   0.00000  Uiso   1.00
C285   C     0.87389   0.22834   0.22161   0.00000  Uiso   1.00
C286   C     0.71395   0.52890   0.01529   0.00000  Uiso   1.00
C287   C     0.64794   0.54966   0.02197   0.00000  Uiso   1.00
C288   C     0.60755   0.53047   0.95565   0.00000  Uiso   1.00
C289   C     0.52181   0.51258   0.86528   0.00000  Uiso   1.00
C290   C     0.81239   0.47316   0.95074   0.00000  Uiso   1.00
C291   C     0.84526   0.55463   0.96720   0.00000  Uiso   1.00
C292   C     0.89454   0.58948   0.91964   0.00000  Uiso   1.00
C293   C     0.91816   0.66437   0.94502   0.00000  Uiso   1.00
C294   C     0.82187   0.42320   0.02901   0.00000  Uiso   1.00
C295   C     0.85147   0.34754   0.03340   0.00000  Uiso   1.00
C296   C     0.85540   0.31179   0.11080   0.00000  Uiso   1.00
C297   C     0.73875   0.49032   0.94487   0.00000  Uiso   1.00
C298   C     0.69845   0.47108   0.87852   0.00000  Uiso   1.00
C299   C     0.63239   0.49182   0.88510   0.00000  Uiso   1.00
H300   H     0.74743   0.57422   0.13522   0.00000  Uiso   1.00
H301   H     0.82482   0.69790   0.11759   0.00000  Uiso   1.00
H302   H     0.78176   0.45600   0.23133   0.00000  Uiso   1.00
H303   H     0.62876   0.57952   0.07648   0.00000  Uiso   1.00
H304   H     0.92159   0.81799   0.06700   0.00000  Uiso   1.00
H305   H     0.83076   0.30792   0.30682   0.00000  Uiso   1.00
H306   H     0.50814   0.56838   0.98029   0.00000  Uiso   1.00
H307   H     0.83170   0.44312   0.89591   0.00000  Uiso   1.00
H308   H     0.91372   0.55961   0.86514   0.00000  Uiso   1.00
H309   H     0.87065   0.31771   0.97889   0.00000  Uiso   1.00
H310   H     0.71766   0.44123   0.82404   0.00000  Uiso   1.00
H311   H     0.99374   0.70574   0.86211   0.00000  Uiso   1.00
H312   H     0.90291   0.19567   0.10193   0.00000  Uiso   1.00
H313   H     0.58029   0.45614   0.77540   0.00000  Uiso   1.00
O314   O     0.01011   0.84084   0.94865   0.00000  Uiso   1.00
O315   O     0.89094   0.17165   0.26328   0.00000  Uiso   1.00
O316   O     0.46767   0.51337   0.83488   0.00000  Uiso   1.00
N317   N     0.92730   0.77559   0.02299   0.00000  Uiso   1.00
N318   N     0.84240   0.29871   0.24721   0.00000  Uiso   1.00
N319   N     0.54076   0.54220   0.94195   0.00000  Uiso   1.00
N320   N     0.96612   0.71519   0.91274   0.00000  Uiso   1.00
N321   N     0.88122   0.23831   0.13696   0.00000  Uiso   1.00
N322   N     0.57959   0.48181   0.83169   0.00000  Uiso   1.00
C323   C     0.73327   0.95581   0.58039   0.00000  Uiso   1.00
C324   C     0.67953   0.90679   0.53762   0.00000  Uiso   1.00
C325   C     0.65598   0.83194   0.56308   0.00000  Uiso   1.00
C326   C     0.60668   0.79698   0.51557   0.00000  Uiso   1.00
C327   C     0.52700   0.71502   0.45990   0.00000  Uiso   1.00
C328   C     0.70292   0.03822   0.59942   0.00000  Uiso   1.00
C329   C     0.69904   0.07387   0.67684   0.00000  Uiso   1.00
C330   C     0.66944   0.14956   0.68135   0.00000  Uiso   1.00
C331   C     0.62611   0.27166   0.72161   0.00000  Uiso   1.00
C332   C     0.78605   0.97110   0.51529   0.00000  Uiso   1.00
C333   C     0.85206   0.95034   0.52197   0.00000  Uiso   1.00
C334   C     0.89245   0.96953   0.45565   0.00000  Uiso   1.00
C335   C     0.97819   0.98742   0.36528   0.00000  Uiso   1.00
C336   C     0.68761   0.02684   0.45074   0.00000  Uiso   1.00
C337   C     0.65474   0.94537   0.46720   0.00000  Uiso   1.00
C338   C     0.60546   0.91052   0.41964   0.00000  Uiso   1.00
C339   C     0.58184   0.83563   0.44502   0.00000  Uiso   1.00
C340   C     0.67813   0.07680   0.52901   0.00000  Uiso   1.00
C341   C     0.64853   0.15246   0.53340   0.00000  Uiso   1.00
C342   C     0.64460   0.18821   0.61080   0.00000  Uiso   1.00
C343   C     0.76125   0.00968   0.44487   0.00000  Uiso   1.00
C344   C     0.80155   0.02892   0.37852   0.00000  Uiso   1.00
C345   C     0.86761   0.00818   0.38510   0.00000  Uiso   1.00
H346   H     0.75257   0.92578   0.63522   0.00000  Uiso   1.00
H347   H     0.67518   0.80210   0.61759   0.00000  Uiso   1.00
H348   H     0.71824   0.04400   0.73133   0.00000  Uiso   1.00
H349   H     0.87124   0.92048   0.57648   0.00000  Uiso   1.00
H350   H     0.57841   0.68201   0.56700   0.00000  Uiso   1.00
H351   H     0.66924   0.19208   0.80682   0.00000  Uiso   1.00
H352   H     0.99186   0.93162   0.48029   0.00000  Uiso   1.00
H353   H     0.66830   0.05688   0.39591   0.00000  Uiso   1.00
H354   H     0.58628   0.94039   0.36514   0.00000  Uiso   1.00
H355   H     0.62935   0.18229   0.47889   0.00000  Uiso   1.00
H356   H     0.78234   0.05877   0.32404   0.00000  Uiso   1.00
H357   H     0.50626   0.79426   0.36211   0.00000  Uiso   1.00
H358   H     0.59709   0.30433   0.60193   0.00000  Uiso   1.00
H359   H     0.91971   0.04386   0.27540   0.00000  Uiso   1.00
O360   O     0.48989   0.65916   0.44865   0.00000  Uiso   1.00
O361   O     0.60906   0.32835   0.76328   0.00000  Uiso   1.00
O362   O     0.03233   0.98663   0.33488   0.00000  Uiso   1.00
N363   N     0.57270   0.72441   0.52299   0.00000  Uiso   1.00
N364   N     0.65760   0.20129   0.74721   0.00000  Uiso   1.00
N365   N     0.95924   0.95780   0.44195   0.00000  Uiso   1.00
N366   N     0.53388   0.78481   0.41274   0.00000  Uiso   1.00
N367   N     0.61878   0.26169   0.63696   0.00000  Uiso   1.00
N368   N     0.92041   0.01819   0.33169   0.00000  Uiso   1.00
