data_job_01469
_audit_creation_date              2018-12-19
_audit_creation_method            'Materials Studio'
_symmetry_space_group_name_H-M    'P1'
_symmetry_Int_Tables_number       1
_symmetry_cell_setting            triclinic
loop_
_symmetry_equiv_pos_as_xyz
  x,y,z
_cell_length_a                    25.1752
_cell_length_b                    20.1047
_cell_length_c                    11.3016
_cell_angle_alpha                 90.0000
_cell_angle_beta                  107.5402
_cell_angle_gamma                 90.0000
loop_
_atom_site_label
_atom_site_type_symbol
_atom_site_fract_x
_atom_site_fract_y
_atom_site_fract_z
_atom_site_U_iso_or_equiv
_atom_site_adp_type
_atom_site_occupancy
C1     C     0.10116   0.70467   0.12602   0.00000  Uiso   1.00
C2     C     0.16090   0.73044   0.16367   0.00000  Uiso   1.00
C3     C     0.20347   0.70628   0.12117   0.00000  Uiso   1.00
C4     C     0.25519   0.73658   0.16674   0.00000  Uiso   1.00
C5     C     0.34660   0.76863   0.21222   0.00000  Uiso   1.00
C6     C     0.06413   0.76457   0.07535   0.00000  Uiso   1.00
C7     C     0.02535   0.76909   0.95860   0.00000  Uiso   1.00
C8     C     0.99561   0.82811   0.92984   0.00000  Uiso   1.00
C9     C     0.93677   0.91312   0.83823   0.00000  Uiso   1.00
C10    C     0.08951   0.68532   0.24630   0.00000  Uiso   1.00
C11    C     0.07205   0.62322   0.27328   0.00000  Uiso   1.00
C12    C     0.06367   0.61553   0.38844   0.00000  Uiso   1.00
C13    C     0.04424   0.57750   0.56225   0.00000  Uiso   1.00
C14    C     0.11730   0.80146   0.28254   0.00000  Uiso   1.00
C15    C     0.16966   0.78302   0.24868   0.00000  Uiso   1.00
C16    C     0.22133   0.81336   0.29434   0.00000  Uiso   1.00
C17    C     0.26398   0.78925   0.25192   0.00000  Uiso   1.00
C18    C     0.07290   0.81714   0.16036   0.00000  Uiso   1.00
C19    C     0.04321   0.87617   0.13177   0.00000  Uiso   1.00
C20    C     0.00439   0.88078   0.01501   0.00000  Uiso   1.00
C21    C     0.09828   0.73789   0.33132   0.00000  Uiso   1.00
C22    C     0.08992   0.73030   0.44645   0.00000  Uiso   1.00
C23    C     0.07245   0.66820   0.47360   0.00000  Uiso   1.00
H24    H     0.09433   0.66374   0.05983   0.00000  Uiso   1.00
H25    H     0.19667   0.66560   0.05536   0.00000  Uiso   1.00
H26    H     0.01857   0.72839   0.89283   0.00000  Uiso   1.00
H27    H     0.06527   0.58255   0.20746   0.00000  Uiso   1.00
H28    H     0.31399   0.69085   0.08788   0.00000  Uiso   1.00
H29    H     0.93844   0.82325   0.74518   0.00000  Uiso   1.00
H30    H     0.03692   0.51571   0.40864   0.00000  Uiso   1.00
H31    H     0.12413   0.84239   0.34873   0.00000  Uiso   1.00
H32    H     0.22810   0.85405   0.36013   0.00000  Uiso   1.00
H33    H     0.05000   0.91684   0.19759   0.00000  Uiso   1.00
H34    H     0.09671   0.77100   0.51222   0.00000  Uiso   1.00
H35    H     0.33950   0.84381   0.33523   0.00000  Uiso   1.00
H36    H     0.96396   0.97621   0.99253   0.00000  Uiso   1.00
H37    H     0.06244   0.66866   0.65599   0.00000  Uiso   1.00
O38    O     0.39460   0.77179   0.21380   0.00000  Uiso   1.00
O39    O     0.90189   0.94549   0.76421   0.00000  Uiso   1.00
O40    O     0.03110   0.54200   0.63465   0.00000  Uiso   1.00
N41    N     0.30573   0.72524   0.14455   0.00000  Uiso   1.00
N42    N     0.95462   0.84903   0.82414   0.00000  Uiso   1.00
N43    N     0.04668   0.56151   0.44440   0.00000  Uiso   1.00
N44    N     0.31945   0.80755   0.27765   0.00000  Uiso   1.00
N45    N     0.96835   0.93134   0.95724   0.00000  Uiso   1.00
N46    N     0.06041   0.64381   0.57750   0.00000  Uiso   1.00
C47    C     0.60116   0.20467   0.12602   0.00000  Uiso   1.00
C48    C     0.66090   0.23044   0.16367   0.00000  Uiso   1.00
C49    C     0.70347   0.20628   0.12117   0.00000  Uiso   1.00
C50    C     0.75519   0.23658   0.16674   0.00000  Uiso   1.00
C51    C     0.84660   0.26863   0.21222   0.00000  Uiso   1.00
C52    C     0.56413   0.26457   0.07535   0.00000  Uiso   1.00
C53    C     0.52535   0.26909   0.95860   0.00000  Uiso   1.00
C54    C     0.49561   0.32811   0.92984   0.00000  Uiso   1.00
C55    C     0.43677   0.41312   0.83823   0.00000  Uiso   1.00
C56    C     0.58951   0.18532   0.24630   0.00000  Uiso   1.00
C57    C     0.57205   0.12322   0.27328   0.00000  Uiso   1.00
C58    C     0.56367   0.11553   0.38844   0.00000  Uiso   1.00
C59    C     0.54424   0.07750   0.56225   0.00000  Uiso   1.00
C60    C     0.61730   0.30146   0.28254   0.00000  Uiso   1.00
C61    C     0.66966   0.28302   0.24868   0.00000  Uiso   1.00
C62    C     0.72133   0.31336   0.29434   0.00000  Uiso   1.00
C63    C     0.76398   0.28925   0.25192   0.00000  Uiso   1.00
C64    C     0.57290   0.31714   0.16036   0.00000  Uiso   1.00
C65    C     0.54321   0.37617   0.13177   0.00000  Uiso   1.00
C66    C     0.50439   0.38078   0.01501   0.00000  Uiso   1.00
C67    C     0.59828   0.23789   0.33132   0.00000  Uiso   1.00
C68    C     0.58992   0.23030   0.44645   0.00000  Uiso   1.00
C69    C     0.57245   0.16820   0.47360   0.00000  Uiso   1.00
H70    H     0.59433   0.16374   0.05983   0.00000  Uiso   1.00
H71    H     0.69667   0.16560   0.05536   0.00000  Uiso   1.00
H72    H     0.51857   0.22839   0.89283   0.00000  Uiso   1.00
H73    H     0.56527   0.08255   0.20746   0.00000  Uiso   1.00
H74    H     0.81399   0.19085   0.08788   0.00000  Uiso   1.00
H75    H     0.43844   0.32325   0.74518   0.00000  Uiso   1.00
H76    H     0.53692   0.01571   0.40864   0.00000  Uiso   1.00
H77    H     0.62413   0.34239   0.34873   0.00000  Uiso   1.00
H78    H     0.72810   0.35405   0.36013   0.00000  Uiso   1.00
H79    H     0.55000   0.41684   0.19759   0.00000  Uiso   1.00
H80    H     0.59671   0.27100   0.51222   0.00000  Uiso   1.00
H81    H     0.83950   0.34381   0.33523   0.00000  Uiso   1.00
H82    H     0.46396   0.47621   0.99253   0.00000  Uiso   1.00
H83    H     0.56244   0.16866   0.65599   0.00000  Uiso   1.00
O84    O     0.89460   0.27179   0.21380   0.00000  Uiso   1.00
O85    O     0.40189   0.44549   0.76421   0.00000  Uiso   1.00
O86    O     0.53110   0.04200   0.63465   0.00000  Uiso   1.00
N87    N     0.80573   0.22524   0.14455   0.00000  Uiso   1.00
N88    N     0.45462   0.34903   0.82414   0.00000  Uiso   1.00
N89    N     0.54668   0.06151   0.44440   0.00000  Uiso   1.00
N90    N     0.81945   0.30755   0.27765   0.00000  Uiso   1.00
N91    N     0.46835   0.43134   0.95724   0.00000  Uiso   1.00
N92    N     0.56041   0.14381   0.57750   0.00000  Uiso   1.00
C93    C     0.89884   0.70467   0.37398   0.00000  Uiso   1.00
C94    C     0.83910   0.73044   0.33633   0.00000  Uiso   1.00
C95    C     0.79653   0.70628   0.37883   0.00000  Uiso   1.00
C96    C     0.74481   0.73658   0.33326   0.00000  Uiso   1.00
C97    C     0.65340   0.76863   0.28778   0.00000  Uiso   1.00
C98    C     0.93587   0.76457   0.42465   0.00000  Uiso   1.00
C99    C     0.97465   0.76909   0.54140   0.00000  Uiso   1.00
C100   C     0.00439   0.82811   0.57016   0.00000  Uiso   1.00
C101   C     0.06323   0.91312   0.66177   0.00000  Uiso   1.00
C102   C     0.91049   0.68532   0.25370   0.00000  Uiso   1.00
C103   C     0.92795   0.62322   0.22672   0.00000  Uiso   1.00
C104   C     0.93633   0.61553   0.11156   0.00000  Uiso   1.00
C105   C     0.95576   0.57750   0.93775   0.00000  Uiso   1.00
C106   C     0.88270   0.80146   0.21746   0.00000  Uiso   1.00
C107   C     0.83034   0.78302   0.25132   0.00000  Uiso   1.00
C108   C     0.77867   0.81336   0.20566   0.00000  Uiso   1.00
C109   C     0.73602   0.78925   0.24808   0.00000  Uiso   1.00
C110   C     0.92710   0.81714   0.33964   0.00000  Uiso   1.00
C111   C     0.95679   0.87617   0.36823   0.00000  Uiso   1.00
C112   C     0.99561   0.88078   0.48499   0.00000  Uiso   1.00
C113   C     0.90172   0.73789   0.16868   0.00000  Uiso   1.00
C114   C     0.91008   0.73030   0.05355   0.00000  Uiso   1.00
C115   C     0.92755   0.66820   0.02640   0.00000  Uiso   1.00
H116   H     0.90567   0.66374   0.44017   0.00000  Uiso   1.00
H117   H     0.80333   0.66560   0.44464   0.00000  Uiso   1.00
H118   H     0.98143   0.72839   0.60717   0.00000  Uiso   1.00
H119   H     0.93473   0.58255   0.29254   0.00000  Uiso   1.00
H120   H     0.68601   0.69085   0.41212   0.00000  Uiso   1.00
H121   H     0.06156   0.82325   0.75482   0.00000  Uiso   1.00
H122   H     0.96308   0.51571   0.09136   0.00000  Uiso   1.00
H123   H     0.87587   0.84239   0.15127   0.00000  Uiso   1.00
H124   H     0.77190   0.85405   0.13987   0.00000  Uiso   1.00
H125   H     0.95000   0.91684   0.30241   0.00000  Uiso   1.00
H126   H     0.90329   0.77100   0.98778   0.00000  Uiso   1.00
H127   H     0.66050   0.84381   0.16477   0.00000  Uiso   1.00
H128   H     0.03604   0.97621   0.50747   0.00000  Uiso   1.00
H129   H     0.93756   0.66866   0.84401   0.00000  Uiso   1.00
O130   O     0.60540   0.77179   0.28620   0.00000  Uiso   1.00
O131   O     0.09811   0.94549   0.73579   0.00000  Uiso   1.00
O132   O     0.96890   0.54200   0.86535   0.00000  Uiso   1.00
N133   N     0.69427   0.72524   0.35545   0.00000  Uiso   1.00
N134   N     0.04538   0.84903   0.67586   0.00000  Uiso   1.00
N135   N     0.95332   0.56151   0.05560   0.00000  Uiso   1.00
N136   N     0.68055   0.80755   0.22235   0.00000  Uiso   1.00
N137   N     0.03165   0.93134   0.54276   0.00000  Uiso   1.00
N138   N     0.93959   0.64381   0.92250   0.00000  Uiso   1.00
C139   C     0.39884   0.20467   0.37398   0.00000  Uiso   1.00
C140   C     0.33910   0.23044   0.33633   0.00000  Uiso   1.00
C141   C     0.29653   0.20628   0.37883   0.00000  Uiso   1.00
C142   C     0.24481   0.23658   0.33326   0.00000  Uiso   1.00
C143   C     0.15340   0.26863   0.28778   0.00000  Uiso   1.00
C144   C     0.43587   0.26457   0.42465   0.00000  Uiso   1.00
C145   C     0.47465   0.26909   0.54140   0.00000  Uiso   1.00
C146   C     0.50439   0.32811   0.57016   0.00000  Uiso   1.00
C147   C     0.56323   0.41312   0.66177   0.00000  Uiso   1.00
C148   C     0.41049   0.18532   0.25370   0.00000  Uiso   1.00
C149   C     0.42795   0.12322   0.22672   0.00000  Uiso   1.00
C150   C     0.43633   0.11553   0.11156   0.00000  Uiso   1.00
C151   C     0.45576   0.07750   0.93775   0.00000  Uiso   1.00
C152   C     0.38270   0.30146   0.21746   0.00000  Uiso   1.00
C153   C     0.33034   0.28302   0.25132   0.00000  Uiso   1.00
C154   C     0.27867   0.31336   0.20566   0.00000  Uiso   1.00
C155   C     0.23602   0.28925   0.24808   0.00000  Uiso   1.00
C156   C     0.42710   0.31714   0.33964   0.00000  Uiso   1.00
C157   C     0.45679   0.37617   0.36823   0.00000  Uiso   1.00
C158   C     0.49561   0.38078   0.48499   0.00000  Uiso   1.00
C159   C     0.40172   0.23789   0.16868   0.00000  Uiso   1.00
C160   C     0.41008   0.23030   0.05355   0.00000  Uiso   1.00
C161   C     0.42755   0.16820   0.02640   0.00000  Uiso   1.00
H162   H     0.40567   0.16374   0.44017   0.00000  Uiso   1.00
H163   H     0.30333   0.16560   0.44464   0.00000  Uiso   1.00
H164   H     0.48143   0.22839   0.60717   0.00000  Uiso   1.00
H165   H     0.43473   0.08255   0.29254   0.00000  Uiso   1.00
H166   H     0.18601   0.19085   0.41212   0.00000  Uiso   1.00
H167   H     0.56156   0.32325   0.75482   0.00000  Uiso   1.00
H168   H     0.46308   0.01571   0.09136   0.00000  Uiso   1.00
H169   H     0.37587   0.34239   0.15127   0.00000  Uiso   1.00
H170   H     0.27190   0.35405   0.13987   0.00000  Uiso   1.00
H171   H     0.45000   0.41684   0.30241   0.00000  Uiso   1.00
H172   H     0.40329   0.27100   0.98778   0.00000  Uiso   1.00
H173   H     0.16050   0.34381   0.16477   0.00000  Uiso   1.00
H174   H     0.53604   0.47621   0.50747   0.00000  Uiso   1.00
H175   H     0.43756   0.16866   0.84401   0.00000  Uiso   1.00
O176   O     0.10540   0.27179   0.28620   0.00000  Uiso   1.00
O177   O     0.59811   0.44549   0.73579   0.00000  Uiso   1.00
O178   O     0.46890   0.04200   0.86535   0.00000  Uiso   1.00
N179   N     0.19427   0.22524   0.35545   0.00000  Uiso   1.00
N180   N     0.54538   0.34903   0.67586   0.00000  Uiso   1.00
N181   N     0.45332   0.06151   0.05560   0.00000  Uiso   1.00
N182   N     0.18055   0.30755   0.22235   0.00000  Uiso   1.00
N183   N     0.53165   0.43134   0.54276   0.00000  Uiso   1.00
N184   N     0.43959   0.14381   0.92250   0.00000  Uiso   1.00
C185   C     0.89884   0.29533   0.87398   0.00000  Uiso   1.00
C186   C     0.83910   0.26956   0.83633   0.00000  Uiso   1.00
C187   C     0.79653   0.29372   0.87883   0.00000  Uiso   1.00
C188   C     0.74481   0.26342   0.83326   0.00000  Uiso   1.00
C189   C     0.65340   0.23137   0.78778   0.00000  Uiso   1.00
C190   C     0.93587   0.23543   0.92465   0.00000  Uiso   1.00
C191   C     0.97465   0.23091   0.04140   0.00000  Uiso   1.00
C192   C     0.00439   0.17189   0.07016   0.00000  Uiso   1.00
C193   C     0.06323   0.08688   0.16177   0.00000  Uiso   1.00
C194   C     0.91049   0.31468   0.75370   0.00000  Uiso   1.00
C195   C     0.92795   0.37678   0.72672   0.00000  Uiso   1.00
C196   C     0.93633   0.38447   0.61156   0.00000  Uiso   1.00
C197   C     0.95576   0.42250   0.43775   0.00000  Uiso   1.00
C198   C     0.88270   0.19854   0.71746   0.00000  Uiso   1.00
C199   C     0.83034   0.21698   0.75132   0.00000  Uiso   1.00
C200   C     0.77867   0.18664   0.70566   0.00000  Uiso   1.00
C201   C     0.73602   0.21075   0.74808   0.00000  Uiso   1.00
C202   C     0.92710   0.18286   0.83964   0.00000  Uiso   1.00
C203   C     0.95679   0.12383   0.86823   0.00000  Uiso   1.00
C204   C     0.99561   0.11922   0.98499   0.00000  Uiso   1.00
C205   C     0.90172   0.26211   0.66868   0.00000  Uiso   1.00
C206   C     0.91008   0.26970   0.55355   0.00000  Uiso   1.00
C207   C     0.92755   0.33180   0.52640   0.00000  Uiso   1.00
H208   H     0.90567   0.33626   0.94017   0.00000  Uiso   1.00
H209   H     0.80333   0.33440   0.94464   0.00000  Uiso   1.00
H210   H     0.98143   0.27161   0.10717   0.00000  Uiso   1.00
H211   H     0.93473   0.41745   0.79254   0.00000  Uiso   1.00
H212   H     0.68601   0.30915   0.91212   0.00000  Uiso   1.00
H213   H     0.06156   0.17675   0.25482   0.00000  Uiso   1.00
H214   H     0.96308   0.48429   0.59136   0.00000  Uiso   1.00
H215   H     0.87587   0.15761   0.65127   0.00000  Uiso   1.00
H216   H     0.77190   0.14595   0.63987   0.00000  Uiso   1.00
H217   H     0.95000   0.08316   0.80241   0.00000  Uiso   1.00
H218   H     0.90329   0.22900   0.48778   0.00000  Uiso   1.00
H219   H     0.66050   0.15619   0.66477   0.00000  Uiso   1.00
H220   H     0.03604   0.02379   0.00747   0.00000  Uiso   1.00
H221   H     0.93756   0.33134   0.34401   0.00000  Uiso   1.00
O222   O     0.60540   0.22821   0.78620   0.00000  Uiso   1.00
O223   O     0.09811   0.05451   0.23579   0.00000  Uiso   1.00
O224   O     0.96890   0.45800   0.36535   0.00000  Uiso   1.00
N225   N     0.69427   0.27476   0.85545   0.00000  Uiso   1.00
N226   N     0.04538   0.15097   0.17586   0.00000  Uiso   1.00
N227   N     0.95332   0.43849   0.55560   0.00000  Uiso   1.00
N228   N     0.68055   0.19245   0.72235   0.00000  Uiso   1.00
N229   N     0.03165   0.06866   0.04276   0.00000  Uiso   1.00
N230   N     0.93959   0.35619   0.42250   0.00000  Uiso   1.00
C231   C     0.39884   0.79533   0.87398   0.00000  Uiso   1.00
C232   C     0.33910   0.76956   0.83633   0.00000  Uiso   1.00
C233   C     0.29653   0.79372   0.87883   0.00000  Uiso   1.00
C234   C     0.24481   0.76342   0.83326   0.00000  Uiso   1.00
C235   C     0.15340   0.73137   0.78778   0.00000  Uiso   1.00
C236   C     0.43587   0.73543   0.92465   0.00000  Uiso   1.00
C237   C     0.47465   0.73091   0.04140   0.00000  Uiso   1.00
C238   C     0.50439   0.67189   0.07016   0.00000  Uiso   1.00
C239   C     0.56323   0.58688   0.16177   0.00000  Uiso   1.00
C240   C     0.41049   0.81468   0.75370   0.00000  Uiso   1.00
C241   C     0.42795   0.87678   0.72672   0.00000  Uiso   1.00
C242   C     0.43633   0.88447   0.61156   0.00000  Uiso   1.00
C243   C     0.45576   0.92250   0.43775   0.00000  Uiso   1.00
C244   C     0.38270   0.69854   0.71746   0.00000  Uiso   1.00
C245   C     0.33034   0.71698   0.75132   0.00000  Uiso   1.00
C246   C     0.27867   0.68664   0.70566   0.00000  Uiso   1.00
C247   C     0.23602   0.71075   0.74808   0.00000  Uiso   1.00
C248   C     0.42710   0.68286   0.83964   0.00000  Uiso   1.00
C249   C     0.45679   0.62383   0.86823   0.00000  Uiso   1.00
C250   C     0.49561   0.61922   0.98499   0.00000  Uiso   1.00
C251   C     0.40172   0.76211   0.66868   0.00000  Uiso   1.00
C252   C     0.41008   0.76970   0.55355   0.00000  Uiso   1.00
C253   C     0.42755   0.83180   0.52640   0.00000  Uiso   1.00
H254   H     0.40567   0.83626   0.94017   0.00000  Uiso   1.00
H255   H     0.30333   0.83440   0.94464   0.00000  Uiso   1.00
H256   H     0.48143   0.77161   0.10717   0.00000  Uiso   1.00
H257   H     0.43473   0.91745   0.79254   0.00000  Uiso   1.00
H258   H     0.18601   0.80915   0.91212   0.00000  Uiso   1.00
H259   H     0.56156   0.67675   0.25482   0.00000  Uiso   1.00
H260   H     0.46308   0.98429   0.59136   0.00000  Uiso   1.00
H261   H     0.37587   0.65761   0.65127   0.00000  Uiso   1.00
H262   H     0.27190   0.64595   0.63987   0.00000  Uiso   1.00
H263   H     0.45000   0.58316   0.80241   0.00000  Uiso   1.00
H264   H     0.40329   0.72900   0.48778   0.00000  Uiso   1.00
H265   H     0.16050   0.65619   0.66477   0.00000  Uiso   1.00
H266   H     0.53604   0.52379   0.00747   0.00000  Uiso   1.00
H267   H     0.43756   0.83134   0.34401   0.00000  Uiso   1.00
O268   O     0.10540   0.72821   0.78620   0.00000  Uiso   1.00
O269   O     0.59811   0.55451   0.23579   0.00000  Uiso   1.00
O270   O     0.46890   0.95800   0.36535   0.00000  Uiso   1.00
N271   N     0.19427   0.77476   0.85545   0.00000  Uiso   1.00
N272   N     0.54538   0.65097   0.17586   0.00000  Uiso   1.00
N273   N     0.45332   0.93849   0.55560   0.00000  Uiso   1.00
N274   N     0.18055   0.69245   0.72235   0.00000  Uiso   1.00
N275   N     0.53165   0.56866   0.04276   0.00000  Uiso   1.00
N276   N     0.43959   0.85619   0.42250   0.00000  Uiso   1.00
C277   C     0.10116   0.29533   0.62602   0.00000  Uiso   1.00
C278   C     0.16090   0.26956   0.66367   0.00000  Uiso   1.00
C279   C     0.20347   0.29372   0.62117   0.00000  Uiso   1.00
C280   C     0.25519   0.26342   0.66674   0.00000  Uiso   1.00
C281   C     0.34660   0.23137   0.71222   0.00000  Uiso   1.00
C282   C     0.06413   0.23543   0.57535   0.00000  Uiso   1.00
C283   C     0.02535   0.23091   0.45860   0.00000  Uiso   1.00
C284   C     0.99561   0.17189   0.42984   0.00000  Uiso   1.00
C285   C     0.93677   0.08688   0.33823   0.00000  Uiso   1.00
C286   C     0.08951   0.31468   0.74630   0.00000  Uiso   1.00
C287   C     0.07205   0.37678   0.77328   0.00000  Uiso   1.00
C288   C     0.06367   0.38447   0.88844   0.00000  Uiso   1.00
C289   C     0.04424   0.42250   0.06225   0.00000  Uiso   1.00
C290   C     0.11730   0.19854   0.78254   0.00000  Uiso   1.00
C291   C     0.16966   0.21698   0.74868   0.00000  Uiso   1.00
C292   C     0.22133   0.18664   0.79434   0.00000  Uiso   1.00
C293   C     0.26398   0.21075   0.75192   0.00000  Uiso   1.00
C294   C     0.07290   0.18286   0.66036   0.00000  Uiso   1.00
C295   C     0.04321   0.12383   0.63177   0.00000  Uiso   1.00
C296   C     0.00439   0.11922   0.51501   0.00000  Uiso   1.00
C297   C     0.09828   0.26211   0.83132   0.00000  Uiso   1.00
C298   C     0.08992   0.26970   0.94645   0.00000  Uiso   1.00
C299   C     0.07245   0.33180   0.97360   0.00000  Uiso   1.00
H300   H     0.09433   0.33626   0.55983   0.00000  Uiso   1.00
H301   H     0.19667   0.33440   0.55536   0.00000  Uiso   1.00
H302   H     0.01857   0.27161   0.39283   0.00000  Uiso   1.00
H303   H     0.06527   0.41745   0.70746   0.00000  Uiso   1.00
H304   H     0.31399   0.30915   0.58788   0.00000  Uiso   1.00
H305   H     0.93844   0.17675   0.24518   0.00000  Uiso   1.00
H306   H     0.03692   0.48429   0.90864   0.00000  Uiso   1.00
H307   H     0.12413   0.15761   0.84873   0.00000  Uiso   1.00
H308   H     0.22810   0.14595   0.86013   0.00000  Uiso   1.00
H309   H     0.05000   0.08316   0.69759   0.00000  Uiso   1.00
H310   H     0.09671   0.22900   0.01222   0.00000  Uiso   1.00
H311   H     0.33950   0.15619   0.83523   0.00000  Uiso   1.00
H312   H     0.96396   0.02379   0.49253   0.00000  Uiso   1.00
H313   H     0.06244   0.33134   0.15599   0.00000  Uiso   1.00
O314   O     0.39460   0.22821   0.71380   0.00000  Uiso   1.00
O315   O     0.90189   0.05451   0.26421   0.00000  Uiso   1.00
O316   O     0.03110   0.45800   0.13465   0.00000  Uiso   1.00
N317   N     0.30573   0.27476   0.64455   0.00000  Uiso   1.00
N318   N     0.95462   0.15097   0.32414   0.00000  Uiso   1.00
N319   N     0.04668   0.43849   0.94440   0.00000  Uiso   1.00
N320   N     0.31945   0.19245   0.77765   0.00000  Uiso   1.00
N321   N     0.96835   0.06866   0.45724   0.00000  Uiso   1.00
N322   N     0.06041   0.35619   0.07750   0.00000  Uiso   1.00
C323   C     0.60116   0.79533   0.62602   0.00000  Uiso   1.00
C324   C     0.66090   0.76956   0.66367   0.00000  Uiso   1.00
C325   C     0.70347   0.79372   0.62117   0.00000  Uiso   1.00
C326   C     0.75519   0.76342   0.66674   0.00000  Uiso   1.00
C327   C     0.84660   0.73137   0.71222   0.00000  Uiso   1.00
C328   C     0.56413   0.73543   0.57535   0.00000  Uiso   1.00
C329   C     0.52535   0.73091   0.45860   0.00000  Uiso   1.00
C330   C     0.49561   0.67189   0.42984   0.00000  Uiso   1.00
C331   C     0.43677   0.58688   0.33823   0.00000  Uiso   1.00
C332   C     0.58951   0.81468   0.74630   0.00000  Uiso   1.00
C333   C     0.57205   0.87678   0.77328   0.00000  Uiso   1.00
C334   C     0.56367   0.88447   0.88844   0.00000  Uiso   1.00
C335   C     0.54424   0.92250   0.06225   0.00000  Uiso   1.00
C336   C     0.61730   0.69854   0.78254   0.00000  Uiso   1.00
C337   C     0.66966   0.71698   0.74868   0.00000  Uiso   1.00
C338   C     0.72133   0.68664   0.79434   0.00000  Uiso   1.00
C339   C     0.76398   0.71075   0.75192   0.00000  Uiso   1.00
C340   C     0.57290   0.68286   0.66036   0.00000  Uiso   1.00
C341   C     0.54321   0.62383   0.63177   0.00000  Uiso   1.00
C342   C     0.50439   0.61922   0.51501   0.00000  Uiso   1.00
C343   C     0.59828   0.76211   0.83132   0.00000  Uiso   1.00
C344   C     0.58992   0.76970   0.94645   0.00000  Uiso   1.00
C345   C     0.57245   0.83180   0.97360   0.00000  Uiso   1.00
H346   H     0.59433   0.83626   0.55983   0.00000  Uiso   1.00
H347   H     0.69667   0.83440   0.55536   0.00000  Uiso   1.00
H348   H     0.51857   0.77161   0.39283   0.00000  Uiso   1.00
H349   H     0.56527   0.91745   0.70746   0.00000  Uiso   1.00
H350   H     0.81399   0.80915   0.58788   0.00000  Uiso   1.00
H351   H     0.43844   0.67675   0.24518   0.00000  Uiso   1.00
H352   H     0.53692   0.98429   0.90864   0.00000  Uiso   1.00
H353   H     0.62413   0.65761   0.84873   0.00000  Uiso   1.00
H354   H     0.72810   0.64595   0.86013   0.00000  Uiso   1.00
H355   H     0.55000   0.58316   0.69759   0.00000  Uiso   1.00
H356   H     0.59671   0.72900   0.01222   0.00000  Uiso   1.00
H357   H     0.83950   0.65619   0.83523   0.00000  Uiso   1.00
H358   H     0.46396   0.52379   0.49253   0.00000  Uiso   1.00
H359   H     0.56244   0.83134   0.15599   0.00000  Uiso   1.00
O360   O     0.89460   0.72821   0.71380   0.00000  Uiso   1.00
O361   O     0.40189   0.55451   0.26421   0.00000  Uiso   1.00
O362   O     0.53110   0.95800   0.13465   0.00000  Uiso   1.00
N363   N     0.80573   0.77476   0.64455   0.00000  Uiso   1.00
N364   N     0.45462   0.65097   0.32414   0.00000  Uiso   1.00
N365   N     0.54668   0.93849   0.94440   0.00000  Uiso   1.00
N366   N     0.81945   0.69245   0.77765   0.00000  Uiso   1.00
N367   N     0.46835   0.56866   0.45724   0.00000  Uiso   1.00
N368   N     0.56041   0.85619   0.07750   0.00000  Uiso   1.00
