data_job_03784
_audit_creation_date              2018-12-19
_audit_creation_method            'Materials Studio'
_symmetry_space_group_name_H-M    'P1'
_symmetry_Int_Tables_number       1
_symmetry_cell_setting            triclinic
loop_
_symmetry_equiv_pos_as_xyz
  x,y,z
_cell_length_a                    40.4632
_cell_length_b                    21.0991
_cell_length_c                    9.9544
_cell_angle_alpha                 90.0000
_cell_angle_beta                  90.0000
_cell_angle_gamma                 90.0000
loop_
_atom_site_label
_atom_site_type_symbol
_atom_site_fract_x
_atom_site_fract_y
_atom_site_fract_z
_atom_site_U_iso_or_equiv
_atom_site_adp_type
_atom_site_occupancy
C1     C     0.32266   0.99432   0.15400   0.00000  Uiso   1.00
C2     C     0.32085   0.98585   0.30596   0.00000  Uiso   1.00
C3     C     0.30349   0.93871   0.37284   0.00000  Uiso   1.00
C4     C     0.30494   0.93910   0.51218   0.00000  Uiso   1.00
C5     C     0.29936   0.91899   0.73752   0.00000  Uiso   1.00
C6     C     0.31073   0.06158   0.12583   0.00000  Uiso   1.00
C7     C     0.28486   0.07810   0.04125   0.00000  Uiso   1.00
C8     C     0.27779   0.14224   0.02896   0.00000  Uiso   1.00
C9     C     0.25651   0.23970   0.97457   0.00000  Uiso   1.00
C10    C     0.35930   0.99344   0.11829   0.00000  Uiso   1.00
C11    C     0.37427   0.95268   0.02733   0.00000  Uiso   1.00
C12    C     0.40809   0.95945   0.00866   0.00000  Uiso   1.00
C13    C     0.46223   0.95111   0.94257   0.00000  Uiso   1.00
C14    C     0.35610   0.07882   0.28254   0.00000  Uiso   1.00
C15    C     0.33902   0.03176   0.37577   0.00000  Uiso   1.00
C16    C     0.34049   0.03221   0.51506   0.00000  Uiso   1.00
C17    C     0.32314   0.98508   0.58213   0.00000  Uiso   1.00
C18    C     0.32889   0.10748   0.19565   0.00000  Uiso   1.00
C19    C     0.32186   0.17160   0.18347   0.00000  Uiso   1.00
C20    C     0.29599   0.18822   0.09890   0.00000  Uiso   1.00
C21    C     0.37747   0.03934   0.18811   0.00000  Uiso   1.00
C22    C     0.41127   0.04618   0.16956   0.00000  Uiso   1.00
C23    C     0.42629   0.00544   0.07861   0.00000  Uiso   1.00
H24    H     0.30851   0.95858   0.09963   0.00000  Uiso   1.00
H25    H     0.28944   0.90320   0.31877   0.00000  Uiso   1.00
H26    H     0.27081   0.04257   0.98722   0.00000  Uiso   1.00
H27    H     0.36021   0.91717   0.97332   0.00000  Uiso   1.00
H28    H     0.27629   0.86206   0.59251   0.00000  Uiso   1.00
H29    H     0.23702   0.15593   0.89340   0.00000  Uiso   1.00
H30    H     0.42553   0.89149   0.86407   0.00000  Uiso   1.00
H31    H     0.37024   0.11456   0.33689   0.00000  Uiso   1.00
H32    H     0.35455   0.06774   0.56906   0.00000  Uiso   1.00
H33    H     0.33593   0.20711   0.23751   0.00000  Uiso   1.00
H34    H     0.42532   0.08170   0.22361   0.00000  Uiso   1.00
H35    H     0.32913   0.99561   0.79566   0.00000  Uiso   1.00
H36    H     0.28987   0.28947   0.09653   0.00000  Uiso   1.00
H37    H     0.47838   0.02503   0.06722   0.00000  Uiso   1.00
O38    O     0.29127   0.89523   0.84252   0.00000  Uiso   1.00
O39    O     0.23976   0.28077   0.92529   0.00000  Uiso   1.00
O40    O     0.48707   0.93383   0.88683   0.00000  Uiso   1.00
N41    N     0.29088   0.89991   0.60846   0.00000  Uiso   1.00
N42    N     0.25417   0.17466   0.95484   0.00000  Uiso   1.00
N43    N     0.43041   0.92744   0.92741   0.00000  Uiso   1.00
N44    N     0.31932   0.97177   0.71777   0.00000  Uiso   1.00
N45    N     0.28261   0.24652   0.06415   0.00000  Uiso   1.00
N46    N     0.45884   0.99930   0.03672   0.00000  Uiso   1.00
C47    C     0.17734   0.00568   0.15400   0.00000  Uiso   1.00
C48    C     0.17915   0.01415   0.30596   0.00000  Uiso   1.00
C49    C     0.19651   0.06129   0.37284   0.00000  Uiso   1.00
C50    C     0.19506   0.06090   0.51218   0.00000  Uiso   1.00
C51    C     0.20064   0.08101   0.73752   0.00000  Uiso   1.00
C52    C     0.18927   0.93842   0.12583   0.00000  Uiso   1.00
C53    C     0.21514   0.92190   0.04125   0.00000  Uiso   1.00
C54    C     0.22221   0.85776   0.02896   0.00000  Uiso   1.00
C55    C     0.24349   0.76030   0.97457   0.00000  Uiso   1.00
C56    C     0.14070   0.00656   0.11829   0.00000  Uiso   1.00
C57    C     0.12573   0.04732   0.02733   0.00000  Uiso   1.00
C58    C     0.09191   0.04055   0.00866   0.00000  Uiso   1.00
C59    C     0.03777   0.04889   0.94257   0.00000  Uiso   1.00
C60    C     0.14390   0.92118   0.28254   0.00000  Uiso   1.00
C61    C     0.16098   0.96824   0.37577   0.00000  Uiso   1.00
C62    C     0.15951   0.96779   0.51506   0.00000  Uiso   1.00
C63    C     0.17686   0.01492   0.58213   0.00000  Uiso   1.00
C64    C     0.17111   0.89252   0.19565   0.00000  Uiso   1.00
C65    C     0.17814   0.82840   0.18347   0.00000  Uiso   1.00
C66    C     0.20401   0.81178   0.09890   0.00000  Uiso   1.00
C67    C     0.12253   0.96066   0.18811   0.00000  Uiso   1.00
C68    C     0.08873   0.95382   0.16956   0.00000  Uiso   1.00
C69    C     0.07371   0.99456   0.07861   0.00000  Uiso   1.00
H70    H     0.19149   0.04142   0.09963   0.00000  Uiso   1.00
H71    H     0.21056   0.09680   0.31877   0.00000  Uiso   1.00
H72    H     0.22919   0.95743   0.98722   0.00000  Uiso   1.00
H73    H     0.13979   0.08283   0.97332   0.00000  Uiso   1.00
H74    H     0.22371   0.13794   0.59251   0.00000  Uiso   1.00
H75    H     0.26298   0.84407   0.89340   0.00000  Uiso   1.00
H76    H     0.07447   0.10851   0.86407   0.00000  Uiso   1.00
H77    H     0.12976   0.88544   0.33689   0.00000  Uiso   1.00
H78    H     0.14545   0.93226   0.56906   0.00000  Uiso   1.00
H79    H     0.16407   0.79289   0.23751   0.00000  Uiso   1.00
H80    H     0.07468   0.91830   0.22361   0.00000  Uiso   1.00
H81    H     0.17087   0.00439   0.79566   0.00000  Uiso   1.00
H82    H     0.21013   0.71053   0.09653   0.00000  Uiso   1.00
H83    H     0.02162   0.97497   0.06722   0.00000  Uiso   1.00
O84    O     0.20873   0.10477   0.84252   0.00000  Uiso   1.00
O85    O     0.26024   0.71923   0.92529   0.00000  Uiso   1.00
O86    O     0.01293   0.06617   0.88683   0.00000  Uiso   1.00
N87    N     0.20912   0.10009   0.60846   0.00000  Uiso   1.00
N88    N     0.24583   0.82534   0.95484   0.00000  Uiso   1.00
N89    N     0.06959   0.07256   0.92741   0.00000  Uiso   1.00
N90    N     0.18068   0.02823   0.71777   0.00000  Uiso   1.00
N91    N     0.21739   0.75348   0.06415   0.00000  Uiso   1.00
N92    N     0.04116   0.00070   0.03672   0.00000  Uiso   1.00
C93    C     0.17734   0.49432   0.34600   0.00000  Uiso   1.00
C94    C     0.17915   0.48585   0.19404   0.00000  Uiso   1.00
C95    C     0.19651   0.43871   0.12716   0.00000  Uiso   1.00
C96    C     0.19506   0.43910   0.98782   0.00000  Uiso   1.00
C97    C     0.20064   0.41899   0.76248   0.00000  Uiso   1.00
C98    C     0.18927   0.56158   0.37417   0.00000  Uiso   1.00
C99    C     0.21514   0.57810   0.45875   0.00000  Uiso   1.00
C100   C     0.22221   0.64224   0.47104   0.00000  Uiso   1.00
C101   C     0.24349   0.73970   0.52543   0.00000  Uiso   1.00
C102   C     0.14070   0.49344   0.38171   0.00000  Uiso   1.00
C103   C     0.12573   0.45268   0.47267   0.00000  Uiso   1.00
C104   C     0.09191   0.45945   0.49134   0.00000  Uiso   1.00
C105   C     0.03777   0.45111   0.55743   0.00000  Uiso   1.00
C106   C     0.14390   0.57882   0.21746   0.00000  Uiso   1.00
C107   C     0.16098   0.53176   0.12423   0.00000  Uiso   1.00
C108   C     0.15951   0.53221   0.98494   0.00000  Uiso   1.00
C109   C     0.17686   0.48508   0.91787   0.00000  Uiso   1.00
C110   C     0.17111   0.60748   0.30435   0.00000  Uiso   1.00
C111   C     0.17814   0.67160   0.31653   0.00000  Uiso   1.00
C112   C     0.20401   0.68822   0.40110   0.00000  Uiso   1.00
C113   C     0.12253   0.53934   0.31189   0.00000  Uiso   1.00
C114   C     0.08873   0.54618   0.33044   0.00000  Uiso   1.00
C115   C     0.07371   0.50544   0.42139   0.00000  Uiso   1.00
H116   H     0.19149   0.45858   0.40037   0.00000  Uiso   1.00
H117   H     0.21056   0.40320   0.18123   0.00000  Uiso   1.00
H118   H     0.22919   0.54257   0.51278   0.00000  Uiso   1.00
H119   H     0.13979   0.41717   0.52668   0.00000  Uiso   1.00
H120   H     0.22371   0.36206   0.90749   0.00000  Uiso   1.00
H121   H     0.26298   0.65593   0.60660   0.00000  Uiso   1.00
H122   H     0.07447   0.39149   0.63593   0.00000  Uiso   1.00
H123   H     0.12976   0.61456   0.16311   0.00000  Uiso   1.00
H124   H     0.14545   0.56774   0.93094   0.00000  Uiso   1.00
H125   H     0.16407   0.70711   0.26249   0.00000  Uiso   1.00
H126   H     0.07468   0.58170   0.27639   0.00000  Uiso   1.00
H127   H     0.17087   0.49561   0.70434   0.00000  Uiso   1.00
H128   H     0.21013   0.78947   0.40347   0.00000  Uiso   1.00
H129   H     0.02162   0.52503   0.43278   0.00000  Uiso   1.00
O130   O     0.20873   0.39523   0.65748   0.00000  Uiso   1.00
O131   O     0.26024   0.78077   0.57471   0.00000  Uiso   1.00
O132   O     0.01293   0.43383   0.61317   0.00000  Uiso   1.00
N133   N     0.20912   0.39991   0.89154   0.00000  Uiso   1.00
N134   N     0.24583   0.67466   0.54516   0.00000  Uiso   1.00
N135   N     0.06959   0.42744   0.57259   0.00000  Uiso   1.00
N136   N     0.18068   0.47177   0.78223   0.00000  Uiso   1.00
N137   N     0.21739   0.74652   0.43585   0.00000  Uiso   1.00
N138   N     0.04116   0.49930   0.46328   0.00000  Uiso   1.00
C139   C     0.32266   0.50568   0.34600   0.00000  Uiso   1.00
C140   C     0.32085   0.51415   0.19404   0.00000  Uiso   1.00
C141   C     0.30349   0.56129   0.12716   0.00000  Uiso   1.00
C142   C     0.30494   0.56090   0.98782   0.00000  Uiso   1.00
C143   C     0.29936   0.58101   0.76248   0.00000  Uiso   1.00
C144   C     0.31073   0.43842   0.37417   0.00000  Uiso   1.00
C145   C     0.28486   0.42190   0.45875   0.00000  Uiso   1.00
C146   C     0.27779   0.35776   0.47104   0.00000  Uiso   1.00
C147   C     0.25651   0.26030   0.52543   0.00000  Uiso   1.00
C148   C     0.35930   0.50656   0.38171   0.00000  Uiso   1.00
C149   C     0.37427   0.54732   0.47267   0.00000  Uiso   1.00
C150   C     0.40809   0.54055   0.49134   0.00000  Uiso   1.00
C151   C     0.46223   0.54889   0.55743   0.00000  Uiso   1.00
C152   C     0.35610   0.42118   0.21746   0.00000  Uiso   1.00
C153   C     0.33902   0.46824   0.12423   0.00000  Uiso   1.00
C154   C     0.34049   0.46779   0.98494   0.00000  Uiso   1.00
C155   C     0.32314   0.51492   0.91787   0.00000  Uiso   1.00
C156   C     0.32889   0.39252   0.30435   0.00000  Uiso   1.00
C157   C     0.32186   0.32840   0.31653   0.00000  Uiso   1.00
C158   C     0.29599   0.31178   0.40110   0.00000  Uiso   1.00
C159   C     0.37747   0.46066   0.31189   0.00000  Uiso   1.00
C160   C     0.41127   0.45382   0.33044   0.00000  Uiso   1.00
C161   C     0.42629   0.49456   0.42139   0.00000  Uiso   1.00
H162   H     0.30851   0.54142   0.40037   0.00000  Uiso   1.00
H163   H     0.28944   0.59680   0.18123   0.00000  Uiso   1.00
H164   H     0.27081   0.45743   0.51278   0.00000  Uiso   1.00
H165   H     0.36021   0.58283   0.52668   0.00000  Uiso   1.00
H166   H     0.27629   0.63794   0.90749   0.00000  Uiso   1.00
H167   H     0.23702   0.34407   0.60660   0.00000  Uiso   1.00
H168   H     0.42553   0.60851   0.63593   0.00000  Uiso   1.00
H169   H     0.37024   0.38544   0.16311   0.00000  Uiso   1.00
H170   H     0.35455   0.43226   0.93094   0.00000  Uiso   1.00
H171   H     0.33593   0.29289   0.26249   0.00000  Uiso   1.00
H172   H     0.42532   0.41830   0.27639   0.00000  Uiso   1.00
H173   H     0.32913   0.50439   0.70434   0.00000  Uiso   1.00
H174   H     0.28987   0.21053   0.40347   0.00000  Uiso   1.00
H175   H     0.47838   0.47497   0.43278   0.00000  Uiso   1.00
O176   O     0.29127   0.60477   0.65748   0.00000  Uiso   1.00
O177   O     0.23976   0.21923   0.57471   0.00000  Uiso   1.00
O178   O     0.48707   0.56617   0.61317   0.00000  Uiso   1.00
N179   N     0.29088   0.60009   0.89154   0.00000  Uiso   1.00
N180   N     0.25417   0.32534   0.54516   0.00000  Uiso   1.00
N181   N     0.43041   0.57256   0.57259   0.00000  Uiso   1.00
N182   N     0.31932   0.52823   0.78223   0.00000  Uiso   1.00
N183   N     0.28261   0.25348   0.43585   0.00000  Uiso   1.00
N184   N     0.45884   0.50070   0.46328   0.00000  Uiso   1.00
C185   C     0.67734   0.00568   0.84600   0.00000  Uiso   1.00
C186   C     0.67915   0.01415   0.69404   0.00000  Uiso   1.00
C187   C     0.69651   0.06129   0.62716   0.00000  Uiso   1.00
C188   C     0.69506   0.06090   0.48782   0.00000  Uiso   1.00
C189   C     0.70064   0.08101   0.26248   0.00000  Uiso   1.00
C190   C     0.68927   0.93842   0.87417   0.00000  Uiso   1.00
C191   C     0.71514   0.92190   0.95875   0.00000  Uiso   1.00
C192   C     0.72221   0.85776   0.97104   0.00000  Uiso   1.00
C193   C     0.74349   0.76030   0.02543   0.00000  Uiso   1.00
C194   C     0.64070   0.00656   0.88171   0.00000  Uiso   1.00
C195   C     0.62573   0.04732   0.97267   0.00000  Uiso   1.00
C196   C     0.59191   0.04055   0.99134   0.00000  Uiso   1.00
C197   C     0.53777   0.04889   0.05743   0.00000  Uiso   1.00
C198   C     0.64390   0.92118   0.71746   0.00000  Uiso   1.00
C199   C     0.66098   0.96824   0.62423   0.00000  Uiso   1.00
C200   C     0.65951   0.96779   0.48494   0.00000  Uiso   1.00
C201   C     0.67686   0.01492   0.41787   0.00000  Uiso   1.00
C202   C     0.67111   0.89252   0.80435   0.00000  Uiso   1.00
C203   C     0.67814   0.82840   0.81653   0.00000  Uiso   1.00
C204   C     0.70401   0.81178   0.90110   0.00000  Uiso   1.00
C205   C     0.62253   0.96066   0.81189   0.00000  Uiso   1.00
C206   C     0.58873   0.95382   0.83044   0.00000  Uiso   1.00
C207   C     0.57371   0.99456   0.92139   0.00000  Uiso   1.00
H208   H     0.69149   0.04142   0.90037   0.00000  Uiso   1.00
H209   H     0.71056   0.09680   0.68123   0.00000  Uiso   1.00
H210   H     0.72919   0.95743   0.01278   0.00000  Uiso   1.00
H211   H     0.63979   0.08283   0.02668   0.00000  Uiso   1.00
H212   H     0.72371   0.13794   0.40749   0.00000  Uiso   1.00
H213   H     0.76298   0.84407   0.10660   0.00000  Uiso   1.00
H214   H     0.57447   0.10851   0.13593   0.00000  Uiso   1.00
H215   H     0.62976   0.88544   0.66311   0.00000  Uiso   1.00
H216   H     0.64545   0.93226   0.43094   0.00000  Uiso   1.00
H217   H     0.66407   0.79289   0.76249   0.00000  Uiso   1.00
H218   H     0.57468   0.91830   0.77639   0.00000  Uiso   1.00
H219   H     0.67087   0.00439   0.20434   0.00000  Uiso   1.00
H220   H     0.71013   0.71053   0.90347   0.00000  Uiso   1.00
H221   H     0.52162   0.97497   0.93278   0.00000  Uiso   1.00
O222   O     0.70873   0.10477   0.15748   0.00000  Uiso   1.00
O223   O     0.76024   0.71923   0.07471   0.00000  Uiso   1.00
O224   O     0.51293   0.06617   0.11317   0.00000  Uiso   1.00
N225   N     0.70912   0.10009   0.39154   0.00000  Uiso   1.00
N226   N     0.74583   0.82534   0.04516   0.00000  Uiso   1.00
N227   N     0.56959   0.07256   0.07259   0.00000  Uiso   1.00
N228   N     0.68068   0.02823   0.28223   0.00000  Uiso   1.00
N229   N     0.71739   0.75348   0.93585   0.00000  Uiso   1.00
N230   N     0.54116   0.00070   0.96328   0.00000  Uiso   1.00
C231   C     0.82266   0.99432   0.84600   0.00000  Uiso   1.00
C232   C     0.82085   0.98585   0.69404   0.00000  Uiso   1.00
C233   C     0.80349   0.93871   0.62716   0.00000  Uiso   1.00
C234   C     0.80494   0.93910   0.48782   0.00000  Uiso   1.00
C235   C     0.79936   0.91899   0.26248   0.00000  Uiso   1.00
C236   C     0.81073   0.06158   0.87417   0.00000  Uiso   1.00
C237   C     0.78486   0.07810   0.95875   0.00000  Uiso   1.00
C238   C     0.77779   0.14224   0.97104   0.00000  Uiso   1.00
C239   C     0.75651   0.23970   0.02543   0.00000  Uiso   1.00
C240   C     0.85930   0.99344   0.88171   0.00000  Uiso   1.00
C241   C     0.87427   0.95268   0.97267   0.00000  Uiso   1.00
C242   C     0.90809   0.95945   0.99134   0.00000  Uiso   1.00
C243   C     0.96223   0.95111   0.05743   0.00000  Uiso   1.00
C244   C     0.85610   0.07882   0.71746   0.00000  Uiso   1.00
C245   C     0.83902   0.03176   0.62423   0.00000  Uiso   1.00
C246   C     0.84049   0.03221   0.48494   0.00000  Uiso   1.00
C247   C     0.82314   0.98508   0.41787   0.00000  Uiso   1.00
C248   C     0.82889   0.10748   0.80435   0.00000  Uiso   1.00
C249   C     0.82186   0.17160   0.81653   0.00000  Uiso   1.00
C250   C     0.79599   0.18822   0.90110   0.00000  Uiso   1.00
C251   C     0.87747   0.03934   0.81189   0.00000  Uiso   1.00
C252   C     0.91127   0.04618   0.83044   0.00000  Uiso   1.00
C253   C     0.92629   0.00544   0.92139   0.00000  Uiso   1.00
H254   H     0.80851   0.95858   0.90037   0.00000  Uiso   1.00
H255   H     0.78944   0.90320   0.68123   0.00000  Uiso   1.00
H256   H     0.77081   0.04257   0.01278   0.00000  Uiso   1.00
H257   H     0.86021   0.91717   0.02668   0.00000  Uiso   1.00
H258   H     0.77629   0.86206   0.40749   0.00000  Uiso   1.00
H259   H     0.73702   0.15593   0.10660   0.00000  Uiso   1.00
H260   H     0.92553   0.89149   0.13593   0.00000  Uiso   1.00
H261   H     0.87024   0.11456   0.66311   0.00000  Uiso   1.00
H262   H     0.85455   0.06774   0.43094   0.00000  Uiso   1.00
H263   H     0.83593   0.20711   0.76249   0.00000  Uiso   1.00
H264   H     0.92532   0.08170   0.77639   0.00000  Uiso   1.00
H265   H     0.82913   0.99561   0.20434   0.00000  Uiso   1.00
H266   H     0.78987   0.28947   0.90347   0.00000  Uiso   1.00
H267   H     0.97838   0.02503   0.93278   0.00000  Uiso   1.00
O268   O     0.79127   0.89523   0.15748   0.00000  Uiso   1.00
O269   O     0.73976   0.28077   0.07471   0.00000  Uiso   1.00
O270   O     0.98707   0.93383   0.11317   0.00000  Uiso   1.00
N271   N     0.79088   0.89991   0.39154   0.00000  Uiso   1.00
N272   N     0.75417   0.17466   0.04516   0.00000  Uiso   1.00
N273   N     0.93041   0.92744   0.07259   0.00000  Uiso   1.00
N274   N     0.81932   0.97177   0.28223   0.00000  Uiso   1.00
N275   N     0.78261   0.24652   0.93585   0.00000  Uiso   1.00
N276   N     0.95884   0.99930   0.96328   0.00000  Uiso   1.00
C277   C     0.82266   0.50568   0.65400   0.00000  Uiso   1.00
C278   C     0.82085   0.51415   0.80596   0.00000  Uiso   1.00
C279   C     0.80349   0.56129   0.87284   0.00000  Uiso   1.00
C280   C     0.80494   0.56090   0.01218   0.00000  Uiso   1.00
C281   C     0.79936   0.58101   0.23752   0.00000  Uiso   1.00
C282   C     0.81073   0.43842   0.62583   0.00000  Uiso   1.00
C283   C     0.78486   0.42190   0.54125   0.00000  Uiso   1.00
C284   C     0.77779   0.35776   0.52896   0.00000  Uiso   1.00
C285   C     0.75651   0.26030   0.47457   0.00000  Uiso   1.00
C286   C     0.85930   0.50656   0.61829   0.00000  Uiso   1.00
C287   C     0.87427   0.54732   0.52733   0.00000  Uiso   1.00
C288   C     0.90809   0.54055   0.50866   0.00000  Uiso   1.00
C289   C     0.96223   0.54889   0.44257   0.00000  Uiso   1.00
C290   C     0.85610   0.42118   0.78254   0.00000  Uiso   1.00
C291   C     0.83902   0.46824   0.87577   0.00000  Uiso   1.00
C292   C     0.84049   0.46779   0.01506   0.00000  Uiso   1.00
C293   C     0.82314   0.51492   0.08213   0.00000  Uiso   1.00
C294   C     0.82889   0.39252   0.69565   0.00000  Uiso   1.00
C295   C     0.82186   0.32840   0.68347   0.00000  Uiso   1.00
C296   C     0.79599   0.31178   0.59890   0.00000  Uiso   1.00
C297   C     0.87747   0.46066   0.68811   0.00000  Uiso   1.00
C298   C     0.91127   0.45382   0.66956   0.00000  Uiso   1.00
C299   C     0.92629   0.49456   0.57861   0.00000  Uiso   1.00
H300   H     0.80851   0.54142   0.59963   0.00000  Uiso   1.00
H301   H     0.78944   0.59680   0.81877   0.00000  Uiso   1.00
H302   H     0.77081   0.45743   0.48722   0.00000  Uiso   1.00
H303   H     0.86021   0.58283   0.47332   0.00000  Uiso   1.00
H304   H     0.77629   0.63794   0.09251   0.00000  Uiso   1.00
H305   H     0.73702   0.34407   0.39340   0.00000  Uiso   1.00
H306   H     0.92553   0.60851   0.36407   0.00000  Uiso   1.00
H307   H     0.87024   0.38544   0.83689   0.00000  Uiso   1.00
H308   H     0.85455   0.43226   0.06906   0.00000  Uiso   1.00
H309   H     0.83593   0.29289   0.73751   0.00000  Uiso   1.00
H310   H     0.92532   0.41830   0.72361   0.00000  Uiso   1.00
H311   H     0.82913   0.50439   0.29566   0.00000  Uiso   1.00
H312   H     0.78987   0.21053   0.59653   0.00000  Uiso   1.00
H313   H     0.97838   0.47497   0.56722   0.00000  Uiso   1.00
O314   O     0.79127   0.60477   0.34252   0.00000  Uiso   1.00
O315   O     0.73976   0.21923   0.42529   0.00000  Uiso   1.00
O316   O     0.98707   0.56617   0.38683   0.00000  Uiso   1.00
N317   N     0.79088   0.60009   0.10846   0.00000  Uiso   1.00
N318   N     0.75417   0.32534   0.45484   0.00000  Uiso   1.00
N319   N     0.93041   0.57256   0.42741   0.00000  Uiso   1.00
N320   N     0.81932   0.52823   0.21777   0.00000  Uiso   1.00
N321   N     0.78261   0.25348   0.56415   0.00000  Uiso   1.00
N322   N     0.95884   0.50070   0.53672   0.00000  Uiso   1.00
C323   C     0.67734   0.49432   0.65400   0.00000  Uiso   1.00
C324   C     0.67915   0.48585   0.80596   0.00000  Uiso   1.00
C325   C     0.69651   0.43871   0.87284   0.00000  Uiso   1.00
C326   C     0.69506   0.43910   0.01218   0.00000  Uiso   1.00
C327   C     0.70064   0.41899   0.23752   0.00000  Uiso   1.00
C328   C     0.68927   0.56158   0.62583   0.00000  Uiso   1.00
C329   C     0.71514   0.57810   0.54125   0.00000  Uiso   1.00
C330   C     0.72221   0.64224   0.52896   0.00000  Uiso   1.00
C331   C     0.74349   0.73970   0.47457   0.00000  Uiso   1.00
C332   C     0.64070   0.49344   0.61829   0.00000  Uiso   1.00
C333   C     0.62573   0.45268   0.52733   0.00000  Uiso   1.00
C334   C     0.59191   0.45945   0.50866   0.00000  Uiso   1.00
C335   C     0.53777   0.45111   0.44257   0.00000  Uiso   1.00
C336   C     0.64390   0.57882   0.78254   0.00000  Uiso   1.00
C337   C     0.66098   0.53176   0.87577   0.00000  Uiso   1.00
C338   C     0.65951   0.53221   0.01506   0.00000  Uiso   1.00
C339   C     0.67686   0.48508   0.08213   0.00000  Uiso   1.00
C340   C     0.67111   0.60748   0.69565   0.00000  Uiso   1.00
C341   C     0.67814   0.67160   0.68347   0.00000  Uiso   1.00
C342   C     0.70401   0.68822   0.59890   0.00000  Uiso   1.00
C343   C     0.62253   0.53934   0.68811   0.00000  Uiso   1.00
C344   C     0.58873   0.54618   0.66956   0.00000  Uiso   1.00
C345   C     0.57371   0.50544   0.57861   0.00000  Uiso   1.00
H346   H     0.69149   0.45858   0.59963   0.00000  Uiso   1.00
H347   H     0.71056   0.40320   0.81877   0.00000  Uiso   1.00
H348   H     0.72919   0.54257   0.48722   0.00000  Uiso   1.00
H349   H     0.63979   0.41717   0.47332   0.00000  Uiso   1.00
H350   H     0.72371   0.36206   0.09251   0.00000  Uiso   1.00
H351   H     0.76298   0.65593   0.39340   0.00000  Uiso   1.00
H352   H     0.57447   0.39149   0.36407   0.00000  Uiso   1.00
H353   H     0.62976   0.61456   0.83689   0.00000  Uiso   1.00
H354   H     0.64545   0.56774   0.06906   0.00000  Uiso   1.00
H355   H     0.66407   0.70711   0.73751   0.00000  Uiso   1.00
H356   H     0.57468   0.58170   0.72361   0.00000  Uiso   1.00
H357   H     0.67087   0.49561   0.29566   0.00000  Uiso   1.00
H358   H     0.71013   0.78947   0.59653   0.00000  Uiso   1.00
H359   H     0.52162   0.52503   0.56722   0.00000  Uiso   1.00
O360   O     0.70873   0.39523   0.34252   0.00000  Uiso   1.00
O361   O     0.76024   0.78077   0.42529   0.00000  Uiso   1.00
O362   O     0.51293   0.43383   0.38683   0.00000  Uiso   1.00
N363   N     0.70912   0.39991   0.10846   0.00000  Uiso   1.00
N364   N     0.74583   0.67466   0.45484   0.00000  Uiso   1.00
N365   N     0.56959   0.42744   0.42741   0.00000  Uiso   1.00
N366   N     0.68068   0.47177   0.21777   0.00000  Uiso   1.00
N367   N     0.71739   0.74652   0.56415   0.00000  Uiso   1.00
N368   N     0.54116   0.49930   0.53672   0.00000  Uiso   1.00
