data_job_03893
_audit_creation_date              2018-12-19
_audit_creation_method            'Materials Studio'
_symmetry_space_group_name_H-M    'P1'
_symmetry_Int_Tables_number       1
_symmetry_cell_setting            triclinic
loop_
_symmetry_equiv_pos_as_xyz
  x,y,z
_cell_length_a                    12.3067
_cell_length_b                    12.4179
_cell_length_c                    37.6014
_cell_angle_alpha                 90.0016
_cell_angle_beta                  89.5947
_cell_angle_gamma                 89.9839
loop_
_atom_site_label
_atom_site_type_symbol
_atom_site_fract_x
_atom_site_fract_y
_atom_site_fract_z
_atom_site_U_iso_or_equiv
_atom_site_adp_type
_atom_site_occupancy
C1     C     0.31278   0.26893   0.42394   0.00000  Uiso   1.00
C2     C     0.27150   0.27414   0.38583   0.00000  Uiso   1.00
C3     C     0.16619   0.25219   0.37506   0.00000  Uiso   1.00
C4     C     0.14468   0.26149   0.33899   0.00000  Uiso   1.00
C5     C     0.06828   0.26494   0.28353   0.00000  Uiso   1.00
C6     C     0.40862   0.19107   0.42336   0.00000  Uiso   1.00
C7     C     0.41860   0.09928   0.44414   0.00000  Uiso   1.00
C8     C     0.51252   0.03866   0.43966   0.00000  Uiso   1.00
C9     C     0.64904   0.91318   0.44248   0.00000  Uiso   1.00
C10    C     0.36038   0.37965   0.43186   0.00000  Uiso   1.00
C11    C     0.32982   0.44642   0.45979   0.00000  Uiso   1.00
C12    C     0.38315   0.54457   0.46248   0.00000  Uiso   1.00
C13    C     0.44476   0.71189   0.47850   0.00000  Uiso   1.00
C14    C     0.46185   0.32451   0.37905   0.00000  Uiso   1.00
C15    C     0.35247   0.30433   0.36145   0.00000  Uiso   1.00
C16    C     0.33112   0.31367   0.32539   0.00000  Uiso   1.00
C17    C     0.22579   0.29174   0.31457   0.00000  Uiso   1.00
C18    C     0.48959   0.22125   0.39898   0.00000  Uiso   1.00
C19    C     0.58352   0.16077   0.39448   0.00000  Uiso   1.00
C20    C     0.59364   0.06890   0.41524   0.00000  Uiso   1.00
C21    C     0.44135   0.40984   0.40748   0.00000  Uiso   1.00
C22    C     0.49474   0.50790   0.41013   0.00000  Uiso   1.00
C23    C     0.46427   0.57480   0.43806   0.00000  Uiso   1.00
H24    H     0.24975   0.24543   0.44292   0.00000  Uiso   1.00
H25    H     0.10355   0.22882   0.39393   0.00000  Uiso   1.00
H26    H     0.35593   0.07595   0.46301   0.00000  Uiso   1.00
H27    H     0.26716   0.42303   0.47866   0.00000  Uiso   1.00
H28    H     0.97719   0.22368   0.32887   0.00000  Uiso   1.00
H29    H     0.50935   0.90136   0.47452   0.00000  Uiso   1.00
H30    H     0.32217   0.63325   0.50752   0.00000  Uiso   1.00
H31    H     0.52489   0.34801   0.36007   0.00000  Uiso   1.00
H32    H     0.39379   0.33703   0.30653   0.00000  Uiso   1.00
H33    H     0.64617   0.18415   0.37561   0.00000  Uiso   1.00
H34    H     0.55740   0.53124   0.39126   0.00000  Uiso   1.00
H35    H     0.21276   0.31151   0.25793   0.00000  Uiso   1.00
H36    H     0.74492   0.98918   0.40358   0.00000  Uiso   1.00
H37    H     0.55774   0.72107   0.43659   0.00000  Uiso   1.00
O38    O     0.00378   0.25849   0.25967   0.00000  Uiso   1.00
O39    O     0.70196   0.83562   0.45077   0.00000  Uiso   1.00
O40    O     0.45637   0.79585   0.49407   0.00000  Uiso   1.00
N41    N     0.05061   0.24588   0.31952   0.00000  Uiso   1.00
N42    N     0.54815   0.94451   0.45569   0.00000  Uiso   1.00
N43    N     0.37316   0.62876   0.48655   0.00000  Uiso   1.00
N44    N     0.17737   0.29314   0.28135   0.00000  Uiso   1.00
N45    N     0.67490   0.99177   0.41752   0.00000  Uiso   1.00
N46    N     0.49992   0.67602   0.44838   0.00000  Uiso   1.00
C47    C     0.82870   0.23184   0.58302   0.00000  Uiso   1.00
C48    C     0.81072   0.22400   0.62310   0.00000  Uiso   1.00
C49    C     0.71393   0.24501   0.64095   0.00000  Uiso   1.00
C50    C     0.71412   0.23325   0.67767   0.00000  Uiso   1.00
C51    C     0.67197   0.22593   0.73715   0.00000  Uiso   1.00
C52    C     0.92308   0.30985   0.57766   0.00000  Uiso   1.00
C53    C     0.92077   0.40303   0.55730   0.00000  Uiso   1.00
C54    C     0.01554   0.46353   0.55577   0.00000  Uiso   1.00
C55    C     0.14787   0.58945   0.54468   0.00000  Uiso   1.00
C56    C     0.87046   0.12178   0.57123   0.00000  Uiso   1.00
C57    C     0.82392   0.05684   0.54545   0.00000  Uiso   1.00
C58    C     0.87441   0.95900   0.53849   0.00000  Uiso   1.00
C59    C     0.92503   0.79292   0.51740   0.00000  Uiso   1.00
C60    C     0.00114   0.17359   0.61649   0.00000  Uiso   1.00
C61    C     0.90439   0.19236   0.64128   0.00000  Uiso   1.00
C62    C     0.90472   0.18056   0.67798   0.00000  Uiso   1.00
C63    C     0.80795   0.20154   0.69588   0.00000  Uiso   1.00
C64    C     0.01675   0.27821   0.59584   0.00000  Uiso   1.00
C65    C     0.11155   0.33858   0.59433   0.00000  Uiso   1.00
C66    C     0.10938   0.43183   0.57398   0.00000  Uiso   1.00
C67    C     0.96413   0.09013   0.58941   0.00000  Uiso   1.00
C68    C     0.01470   0.99239   0.58248   0.00000  Uiso   1.00
C69    C     0.96825   0.92731   0.55670   0.00000  Uiso   1.00
H70    H     0.75578   0.25648   0.56887   0.00000  Uiso   1.00
H71    H     0.64147   0.26950   0.62688   0.00000  Uiso   1.00
H72    H     0.84827   0.42749   0.54324   0.00000  Uiso   1.00
H73    H     0.75144   0.08135   0.53139   0.00000  Uiso   1.00
H74    H     0.55605   0.27002   0.69921   0.00000  Uiso   1.00
H75    H     0.99212   0.60312   0.52284   0.00000  Uiso   1.00
H76    H     0.78793   0.87323   0.49785   0.00000  Uiso   1.00
H77    H     0.07407   0.14896   0.63064   0.00000  Uiso   1.00
H78    H     0.97722   0.15607   0.69204   0.00000  Uiso   1.00
H79    H     0.18402   0.31406   0.60840   0.00000  Uiso   1.00
H80    H     0.08719   0.96793   0.59655   0.00000  Uiso   1.00
H81    H     0.82855   0.17796   0.75210   0.00000  Uiso   1.00
H82    H     0.26463   0.51107   0.57573   0.00000  Uiso   1.00
H83    H     0.06043   0.78117   0.55074   0.00000  Uiso   1.00
O84    O     0.62286   0.23065   0.76493   0.00000  Uiso   1.00
O85    O     0.19497   0.66765   0.53354   0.00000  Uiso   1.00
O86    O     0.92707   0.71005   0.50075   0.00000  Uiso   1.00
N87    N     0.63347   0.24736   0.70323   0.00000  Uiso   1.00
N88    N     0.04116   0.55880   0.53834   0.00000  Uiso   1.00
N89    N     0.85028   0.87642   0.51497   0.00000  Uiso   1.00
N90    N     0.78010   0.19782   0.73169   0.00000  Uiso   1.00
N91    N     0.18780   0.50926   0.56680   0.00000  Uiso   1.00
N92    N     0.99691   0.82688   0.54343   0.00000  Uiso   1.00
C93    C     0.68007   0.77546   0.07455   0.00000  Uiso   1.00
C94    C     0.71909   0.78042   0.11291   0.00000  Uiso   1.00
C95    C     0.82365   0.75801   0.12435   0.00000  Uiso   1.00
C96    C     0.84304   0.76714   0.16056   0.00000  Uiso   1.00
C97    C     0.91613   0.77015   0.21650   0.00000  Uiso   1.00
C98    C     0.58395   0.69799   0.07449   0.00000  Uiso   1.00
C99    C     0.57488   0.60629   0.05363   0.00000  Uiso   1.00
C100   C     0.48050   0.54605   0.05749   0.00000  Uiso   1.00
C101   C     0.34375   0.42114   0.05377   0.00000  Uiso   1.00
C102   C     0.63335   0.88640   0.06635   0.00000  Uiso   1.00
C103   C     0.66580   0.95310   0.03864   0.00000  Uiso   1.00
C104   C     0.61300   0.05147   0.03564   0.00000  Uiso   1.00
C105   C     0.55296   0.21908   0.01927   0.00000  Uiso   1.00
C106   C     0.52858   0.83155   0.11850   0.00000  Uiso   1.00
C107   C     0.63680   0.81088   0.13679   0.00000  Uiso   1.00
C108   C     0.65604   0.82006   0.17298   0.00000  Uiso   1.00
C109   C     0.76061   0.79766   0.18447   0.00000  Uiso   1.00
C110   C     0.50167   0.72845   0.09837   0.00000  Uiso   1.00
C111   C     0.40728   0.66834   0.10226   0.00000  Uiso   1.00
C112   C     0.39807   0.57657   0.08140   0.00000  Uiso   1.00
C113   C     0.55107   0.91686   0.09023   0.00000  Uiso   1.00
C114   C     0.49820   0.01515   0.08727   0.00000  Uiso   1.00
C115   C     0.53057   0.08199   0.05955   0.00000  Uiso   1.00
H116   H     0.74412   0.75174   0.05596   0.00000  Uiso   1.00
H117   H     0.88730   0.73442   0.10587   0.00000  Uiso   1.00
H118   H     0.63856   0.58274   0.03515   0.00000  Uiso   1.00
H119   H     0.72948   0.92949   0.02017   0.00000  Uiso   1.00
H120   H     0.00974   0.72862   0.17174   0.00000  Uiso   1.00
H121   H     0.48525   0.40881   0.02262   0.00000  Uiso   1.00
H122   H     0.67696   0.14000   0.99101   0.00000  Uiso   1.00
H123   H     0.46452   0.85526   0.13709   0.00000  Uiso   1.00
H124   H     0.59235   0.84363   0.19145   0.00000  Uiso   1.00
H125   H     0.34362   0.69194   0.12073   0.00000  Uiso   1.00
H126   H     0.43453   0.03870   0.10574   0.00000  Uiso   1.00
H127   H     0.77035   0.81725   0.24120   0.00000  Uiso   1.00
H128   H     0.24586   0.49744   0.09207   0.00000  Uiso   1.00
H129   H     0.43757   0.22864   0.06047   0.00000  Uiso   1.00
O130   O     0.97917   0.76338   0.24077   0.00000  Uiso   1.00
O131   O     0.29106   0.34381   0.04512   0.00000  Uiso   1.00
O132   O     0.54258   0.30312   0.00366   0.00000  Uiso   1.00
N133   N     0.93586   0.75110   0.18062   0.00000  Uiso   1.00
N134   N     0.44550   0.45208   0.04121   0.00000  Uiso   1.00
N135   N     0.62471   0.13568   0.01165   0.00000  Uiso   1.00
N136   N     0.80705   0.79879   0.21800   0.00000  Uiso   1.00
N137   N     0.31669   0.49978   0.07858   0.00000  Uiso   1.00
N138   N     0.49590   0.18337   0.04903   0.00000  Uiso   1.00
C139   C     0.15811   0.72498   0.91874   0.00000  Uiso   1.00
C140   C     0.17767   0.71716   0.87873   0.00000  Uiso   1.00
C141   C     0.27517   0.73803   0.86130   0.00000  Uiso   1.00
C142   C     0.27643   0.72633   0.82458   0.00000  Uiso   1.00
C143   C     0.32091   0.71903   0.76528   0.00000  Uiso   1.00
C144   C     0.06362   0.80314   0.92371   0.00000  Uiso   1.00
C145   C     0.06524   0.89629   0.94410   0.00000  Uiso   1.00
C146   C     0.97049   0.95695   0.94524   0.00000  Uiso   1.00
C147   C     0.83790   0.08308   0.95580   0.00000  Uiso   1.00
C148   C     0.11576   0.61497   0.93034   0.00000  Uiso   1.00
C149   C     0.16119   0.54991   0.95630   0.00000  Uiso   1.00
C150   C     0.11032   0.45215   0.96303   0.00000  Uiso   1.00
C151   C     0.05868   0.28613   0.98387   0.00000  Uiso   1.00
C152   C     0.98696   0.66708   0.88453   0.00000  Uiso   1.00
C153   C     0.08470   0.68572   0.86015   0.00000  Uiso   1.00
C154   C     0.08581   0.67397   0.82345   0.00000  Uiso   1.00
C155   C     0.18330   0.69482   0.80596   0.00000  Uiso   1.00
C156   C     0.97066   0.77169   0.90513   0.00000  Uiso   1.00
C157   C     0.87588   0.83222   0.90625   0.00000  Uiso   1.00
C158   C     0.87736   0.92544   0.92663   0.00000  Uiso   1.00
C159   C     0.02280   0.58352   0.91175   0.00000  Uiso   1.00
C160   C     0.97183   0.48585   0.91845   0.00000  Uiso   1.00
C161   C     0.01719   0.42065   0.94442   0.00000  Uiso   1.00
H162   H     0.23049   0.74947   0.93321   0.00000  Uiso   1.00
H163   H     0.34709   0.76238   0.87569   0.00000  Uiso   1.00
H164   H     0.13719   0.92060   0.95848   0.00000  Uiso   1.00
H165   H     0.23313   0.57428   0.97068   0.00000  Uiso   1.00
H166   H     0.43536   0.76286   0.80372   0.00000  Uiso   1.00
H167   H     0.99277   0.09645   0.97829   0.00000  Uiso   1.00
H168   H     0.19508   0.36617   0.00402   0.00000  Uiso   1.00
H169   H     0.91458   0.64259   0.87006   0.00000  Uiso   1.00
H170   H     0.01385   0.64963   0.80907   0.00000  Uiso   1.00
H171   H     0.80395   0.80786   0.89187   0.00000  Uiso   1.00
H172   H     0.89990   0.46153   0.90406   0.00000  Uiso   1.00
H173   H     0.16489   0.67136   0.74965   0.00000  Uiso   1.00
H174   H     0.72230   0.00495   0.92423   0.00000  Uiso   1.00
H175   H     0.92461   0.27466   0.94995   0.00000  Uiso   1.00
O176   O     0.37112   0.72371   0.73770   0.00000  Uiso   1.00
O177   O     0.79046   0.16135   0.96675   0.00000  Uiso   1.00
O178   O     0.05588   0.20324   0.00050   0.00000  Uiso   1.00
N179   N     0.35809   0.74034   0.79936   0.00000  Uiso   1.00
N180   N     0.94430   0.05224   0.96258   0.00000  Uiso   1.00
N181   N     0.13342   0.36949   0.98664   0.00000  Uiso   1.00
N182   N     0.21255   0.69110   0.77027   0.00000  Uiso   1.00
N183   N     0.79876   0.00300   0.93349   0.00000  Uiso   1.00
N184   N     0.98788   0.32025   0.95754   0.00000  Uiso   1.00
C185   C     0.67779   0.71664   0.57472   0.00000  Uiso   1.00
C186   C     0.71724   0.71179   0.61304   0.00000  Uiso   1.00
C187   C     0.82191   0.73425   0.62435   0.00000  Uiso   1.00
C188   C     0.84172   0.72521   0.66053   0.00000  Uiso   1.00
C189   C     0.91544   0.72235   0.71638   0.00000  Uiso   1.00
C190   C     0.58161   0.79410   0.57476   0.00000  Uiso   1.00
C191   C     0.57224   0.88575   0.55388   0.00000  Uiso   1.00
C192   C     0.47786   0.94598   0.55784   0.00000  Uiso   1.00
C193   C     0.34097   0.07086   0.55425   0.00000  Uiso   1.00
C194   C     0.63106   0.60568   0.56661   0.00000  Uiso   1.00
C195   C     0.66325   0.53892   0.53887   0.00000  Uiso   1.00
C196   C     0.61048   0.44053   0.53596   0.00000  Uiso   1.00
C197   C     0.55038   0.27287   0.51971   0.00000  Uiso   1.00
C198   C     0.52683   0.66065   0.61886   0.00000  Uiso   1.00
C199   C     0.63524   0.68138   0.63702   0.00000  Uiso   1.00
C200   C     0.65490   0.67229   0.67319   0.00000  Uiso   1.00
C201   C     0.75958   0.69473   0.68455   0.00000  Uiso   1.00
C202   C     0.49962   0.76368   0.59874   0.00000  Uiso   1.00
C203   C     0.40522   0.82379   0.60273   0.00000  Uiso   1.00
C204   C     0.39572   0.91551   0.58186   0.00000  Uiso   1.00
C205   C     0.54907   0.57526   0.59059   0.00000  Uiso   1.00
C206   C     0.49624   0.47696   0.58771   0.00000  Uiso   1.00
C207   C     0.52834   0.41006   0.55998   0.00000  Uiso   1.00
H208   H     0.74162   0.74033   0.55605   0.00000  Uiso   1.00
H209   H     0.88534   0.75780   0.60578   0.00000  Uiso   1.00
H210   H     0.63570   0.90926   0.53533   0.00000  Uiso   1.00
H211   H     0.72670   0.56248   0.52032   0.00000  Uiso   1.00
H212   H     0.00852   0.76379   0.67149   0.00000  Uiso   1.00
H213   H     0.48212   0.08314   0.52293   0.00000  Uiso   1.00
H214   H     0.67401   0.35189   0.49128   0.00000  Uiso   1.00
H215   H     0.46299   0.63697   0.63753   0.00000  Uiso   1.00
H216   H     0.59143   0.64875   0.69174   0.00000  Uiso   1.00
H217   H     0.34179   0.80023   0.62128   0.00000  Uiso   1.00
H218   H     0.43279   0.45345   0.60628   0.00000  Uiso   1.00
H219   H     0.76997   0.67529   0.74126   0.00000  Uiso   1.00
H220   H     0.24356   0.99464   0.59269   0.00000  Uiso   1.00
H221   H     0.43546   0.26340   0.56105   0.00000  Uiso   1.00
O222   O     0.97875   0.72919   0.74057   0.00000  Uiso   1.00
O223   O     0.28813   0.14816   0.54565   0.00000  Uiso   1.00
O224   O     0.53989   0.18879   0.50413   0.00000  Uiso   1.00
N225   N     0.93476   0.74132   0.68047   0.00000  Uiso   1.00
N226   N     0.44261   0.03990   0.54158   0.00000  Uiso   1.00
N227   N     0.62199   0.35626   0.51198   0.00000  Uiso   1.00
N228   N     0.80639   0.69370   0.71802   0.00000  Uiso   1.00
N229   N     0.31425   0.99228   0.57912   0.00000  Uiso   1.00
N230   N     0.49363   0.30864   0.54952   0.00000  Uiso   1.00
C231   C     0.15871   0.76645   0.41869   0.00000  Uiso   1.00
C232   C     0.17787   0.77438   0.37867   0.00000  Uiso   1.00
C233   C     0.27522   0.75359   0.36112   0.00000  Uiso   1.00
C234   C     0.27611   0.76539   0.32441   0.00000  Uiso   1.00
C235   C     0.32001   0.77287   0.26506   0.00000  Uiso   1.00
C236   C     0.06434   0.68824   0.42374   0.00000  Uiso   1.00
C237   C     0.06624   0.59504   0.44409   0.00000  Uiso   1.00
C238   C     0.97155   0.53435   0.44531   0.00000  Uiso   1.00
C239   C     0.83918   0.40815   0.45596   0.00000  Uiso   1.00
C240   C     0.11637   0.87641   0.43037   0.00000  Uiso   1.00
C241   C     0.16200   0.94141   0.45630   0.00000  Uiso   1.00
C242   C     0.11111   0.03914   0.46312   0.00000  Uiso   1.00
C243   C     0.05952   0.20509   0.48406   0.00000  Uiso   1.00
C244   C     0.98717   0.82439   0.38468   0.00000  Uiso   1.00
C245   C     0.08469   0.80585   0.36019   0.00000  Uiso   1.00
C246   C     0.08543   0.81770   0.32349   0.00000  Uiso   1.00
C247   C     0.18277   0.79693   0.30590   0.00000  Uiso   1.00
C248   C     0.97117   0.71971   0.40526   0.00000  Uiso   1.00
C249   C     0.87645   0.65915   0.40646   0.00000  Uiso   1.00
C250   C     0.87821   0.56588   0.42681   0.00000  Uiso   1.00
C251   C     0.02320   0.90789   0.41189   0.00000  Uiso   1.00
C252   C     0.97222   0.00552   0.41867   0.00000  Uiso   1.00
C253   C     0.01776   0.07066   0.44461   0.00000  Uiso   1.00
H254   H     0.23125   0.74194   0.43308   0.00000  Uiso   1.00
H255   H     0.34731   0.72922   0.37543   0.00000  Uiso   1.00
H256   H     0.13835   0.57071   0.45839   0.00000  Uiso   1.00
H257   H     0.23411   0.91703   0.47060   0.00000  Uiso   1.00
H258   H     0.43488   0.72897   0.30337   0.00000  Uiso   1.00
H259   H     0.99428   0.39476   0.47830   0.00000  Uiso   1.00
H260   H     0.19619   0.12504   0.50404   0.00000  Uiso   1.00
H261   H     0.91463   0.84889   0.37030   0.00000  Uiso   1.00
H262   H     0.01331   0.84205   0.30920   0.00000  Uiso   1.00
H263   H     0.80436   0.68354   0.39216   0.00000  Uiso   1.00
H264   H     0.90011   0.02985   0.40437   0.00000  Uiso   1.00
H265   H     0.16380   0.82054   0.24962   0.00000  Uiso   1.00
H266   H     0.72319   0.48633   0.42455   0.00000  Uiso   1.00
H267   H     0.92511   0.21661   0.45029   0.00000  Uiso   1.00
O268   O     0.36996   0.76828   0.23743   0.00000  Uiso   1.00
O269   O     0.79191   0.32983   0.46694   0.00000  Uiso   1.00
O270   O     0.05681   0.28794   0.50072   0.00000  Uiso   1.00
N271   N     0.35755   0.75148   0.29910   0.00000  Uiso   1.00
N272   N     0.94561   0.43900   0.46265   0.00000  Uiso   1.00
N273   N     0.13437   0.12174   0.48672   0.00000  Uiso   1.00
N274   N     0.21168   0.80075   0.27018   0.00000  Uiso   1.00
N275   N     0.79975   0.48828   0.43372   0.00000  Uiso   1.00
N276   N     0.98850   0.17101   0.45780   0.00000  Uiso   1.00
C277   C     0.31205   0.22294   0.92392   0.00000  Uiso   1.00
C278   C     0.27121   0.21762   0.88576   0.00000  Uiso   1.00
C279   C     0.16600   0.23953   0.87485   0.00000  Uiso   1.00
C280   C     0.14490   0.23013   0.83876   0.00000  Uiso   1.00
C281   C     0.06913   0.22652   0.78321   0.00000  Uiso   1.00
C282   C     0.40783   0.30082   0.92343   0.00000  Uiso   1.00
C283   C     0.41750   0.39267   0.94420   0.00000  Uiso   1.00
C284   C     0.51143   0.45329   0.93982   0.00000  Uiso   1.00
C285   C     0.64780   0.57881   0.94277   0.00000  Uiso   1.00
C286   C     0.35965   0.11225   0.93192   0.00000  Uiso   1.00
C287   C     0.32884   0.04555   0.95984   0.00000  Uiso   1.00
C288   C     0.38222   0.94742   0.96261   0.00000  Uiso   1.00
C289   C     0.44379   0.78015   0.97875   0.00000  Uiso   1.00
C290   C     0.46167   0.16729   0.87922   0.00000  Uiso   1.00
C291   C     0.35248   0.18740   0.86149   0.00000  Uiso   1.00
C292   C     0.33153   0.17796   0.82540   0.00000  Uiso   1.00
C293   C     0.22631   0.19984   0.81444   0.00000  Uiso   1.00
C294   C     0.48910   0.27060   0.89916   0.00000  Uiso   1.00
C295   C     0.58303   0.33110   0.89475   0.00000  Uiso   1.00
C296   C     0.59284   0.42302   0.91550   0.00000  Uiso   1.00
C297   C     0.44092   0.08202   0.90765   0.00000  Uiso   1.00
C298   C     0.49436   0.98398   0.91038   0.00000  Uiso   1.00
C299   C     0.46363   0.91714   0.93829   0.00000  Uiso   1.00
H300   H     0.24879   0.24647   0.94282   0.00000  Uiso   1.00
H301   H     0.10314   0.26293   0.89365   0.00000  Uiso   1.00
H302   H     0.35461   0.41603   0.96299   0.00000  Uiso   1.00
H303   H     0.26595   0.06896   0.97862   0.00000  Uiso   1.00
H304   H     0.97750   0.26787   0.82843   0.00000  Uiso   1.00
H305   H     0.50775   0.59069   0.97464   0.00000  Uiso   1.00
H306   H     0.32080   0.85883   0.00760   0.00000  Uiso   1.00
H307   H     0.52494   0.14376   0.86032   0.00000  Uiso   1.00
H308   H     0.39443   0.15457   0.80662   0.00000  Uiso   1.00
H309   H     0.64590   0.30768   0.87596   0.00000  Uiso   1.00
H310   H     0.55724   0.96061   0.89159   0.00000  Uiso   1.00
H311   H     0.21393   0.17993   0.75780   0.00000  Uiso   1.00
H312   H     0.74418   0.50275   0.90401   0.00000  Uiso   1.00
H313   H     0.55723   0.77089   0.93697   0.00000  Uiso   1.00
O314   O     0.00489   0.23290   0.75928   0.00000  Uiso   1.00
O315   O     0.70057   0.65641   0.95111   0.00000  Uiso   1.00
O316   O     0.45529   0.69623   0.99435   0.00000  Uiso   1.00
N317   N     0.05105   0.24567   0.81918   0.00000  Uiso   1.00
N318   N     0.54679   0.54749   0.95587   0.00000  Uiso   1.00
N319   N     0.37203   0.86328   0.98669   0.00000  Uiso   1.00
N320   N     0.17827   0.19835   0.78117   0.00000  Uiso   1.00
N321   N     0.67401   0.50017   0.91786   0.00000  Uiso   1.00
N322   N     0.49925   0.81596   0.94869   0.00000  Uiso   1.00
C323   C     0.83085   0.25917   0.08316   0.00000  Uiso   1.00
C324   C     0.81248   0.26691   0.12323   0.00000  Uiso   1.00
C325   C     0.71554   0.24582   0.14097   0.00000  Uiso   1.00
C326   C     0.71536   0.25748   0.17769   0.00000  Uiso   1.00
C327   C     0.67263   0.26463   0.23713   0.00000  Uiso   1.00
C328   C     0.92535   0.18121   0.07788   0.00000  Uiso   1.00
C329   C     0.92331   0.08808   0.05749   0.00000  Uiso   1.00
C330   C     0.01815   0.02761   0.05603   0.00000  Uiso   1.00
C331   C     0.15068   0.90175   0.04504   0.00000  Uiso   1.00
C332   C     0.87264   0.36928   0.07145   0.00000  Uiso   1.00
C333   C     0.82630   0.43428   0.04564   0.00000  Uiso   1.00
C334   C     0.87678   0.53215   0.03876   0.00000  Uiso   1.00
C335   C     0.92747   0.69830   0.01778   0.00000  Uiso   1.00
C336   C     0.00292   0.31737   0.11683   0.00000  Uiso   1.00
C337   C     0.90594   0.29851   0.14151   0.00000  Uiso   1.00
C338   C     0.90591   0.31022   0.17822   0.00000  Uiso   1.00
C339   C     0.80898   0.28916   0.19601   0.00000  Uiso   1.00
C340   C     0.01881   0.21282   0.09616   0.00000  Uiso   1.00
C341   C     0.11368   0.15247   0.09473   0.00000  Uiso   1.00
C342   C     0.11178   0.05928   0.07435   0.00000  Uiso   1.00
C343   C     0.96610   0.40090   0.08973   0.00000  Uiso   1.00
C344   C     0.01667   0.49867   0.08289   0.00000  Uiso   1.00
C345   C     0.97041   0.56381   0.05708   0.00000  Uiso   1.00
H346   H     0.75810   0.23456   0.06892   0.00000  Uiso   1.00
H347   H     0.64323   0.22135   0.12681   0.00000  Uiso   1.00
H348   H     0.85098   0.06364   0.04333   0.00000  Uiso   1.00
H349   H     0.75398   0.40979   0.03149   0.00000  Uiso   1.00
H350   H     0.55711   0.22061   0.19905   0.00000  Uiso   1.00
H351   H     0.99516   0.88810   0.02303   0.00000  Uiso   1.00
H352   H     0.79062   0.61801   0.99806   0.00000  Uiso   1.00
H353   H     0.07568   0.34199   0.13106   0.00000  Uiso   1.00
H354   H     0.97825   0.33468   0.19236   0.00000  Uiso   1.00
H355   H     0.18599   0.17697   0.10889   0.00000  Uiso   1.00
H356   H     0.08899   0.52311   0.09705   0.00000  Uiso   1.00
H357   H     0.82902   0.31259   0.25226   0.00000  Uiso   1.00
H358   H     0.26707   0.98007   0.07624   0.00000  Uiso   1.00
H359   H     0.06253   0.70999   0.05127   0.00000  Uiso   1.00
O360   O     0.62325   0.25982   0.26486   0.00000  Uiso   1.00
O361   O     0.19795   0.82358   0.03392   0.00000  Uiso   1.00
O362   O     0.92960   0.78122   0.00116   0.00000  Uiso   1.00
N363   N     0.63447   0.24328   0.20316   0.00000  Uiso   1.00
N364   N     0.04402   0.93239   0.03860   0.00000  Uiso   1.00
N365   N     0.85280   0.61479   0.01524   0.00000  Uiso   1.00
N366   N     0.78078   0.29278   0.23179   0.00000  Uiso   1.00
N367   N     0.19033   0.98188   0.06723   0.00000  Uiso   1.00
N368   N     0.99912   0.66428   0.04387   0.00000  Uiso   1.00
