data_job_06983
_audit_creation_date              2018-12-19
_audit_creation_method            'Materials Studio'
_symmetry_space_group_name_H-M    'P1'
_symmetry_Int_Tables_number       1
_symmetry_cell_setting            triclinic
loop_
_symmetry_equiv_pos_as_xyz
  x,y,z
_cell_length_a                    20.3908
_cell_length_b                    22.9943
_cell_length_c                    22.1607
_cell_angle_alpha                 100.0530
_cell_angle_beta                  99.5474
_cell_angle_gamma                 93.7519
loop_
_atom_site_label
_atom_site_type_symbol
_atom_site_fract_x
_atom_site_fract_y
_atom_site_fract_z
_atom_site_U_iso_or_equiv
_atom_site_adp_type
_atom_site_occupancy
C1     C     0.93313   0.07061   0.26561   0.00000  Uiso   1.00
C2     C     0.88163   0.06294   0.30697   0.00000  Uiso   1.00
C3     C     0.85286   0.00919   0.31528   0.00000  Uiso   1.00
C4     C     0.80677   0.01160   0.35505   0.00000  Uiso   1.00
C5     C     0.72931   0.99143   0.41463   0.00000  Uiso   1.00
C6     C     0.90353   0.10896   0.22035   0.00000  Uiso   1.00
C7     C     0.89318   0.09391   0.15583   0.00000  Uiso   1.00
C8     C     0.86553   0.13506   0.12269   0.00000  Uiso   1.00
C9     C     0.82211   0.18636   0.04779   0.00000  Uiso   1.00
C10    C     0.99320   0.10836   0.30778   0.00000  Uiso   1.00
C11    C     0.05825   0.09282   0.31677   0.00000  Uiso   1.00
C12    C     0.10611   0.13348   0.35723   0.00000  Uiso   1.00
C13    C     0.20192   0.18386   0.41809   0.00000  Uiso   1.00
C14    C     0.90245   0.17046   0.32147   0.00000  Uiso   1.00
C15    C     0.86497   0.11717   0.33731   0.00000  Uiso   1.00
C16    C     0.81891   0.11966   0.37708   0.00000  Uiso   1.00
C17    C     0.79007   0.06593   0.38544   0.00000  Uiso   1.00
C18    C     0.88686   0.16319   0.25069   0.00000  Uiso   1.00
C19    C     0.85923   0.20438   0.21763   0.00000  Uiso   1.00
C20    C     0.84883   0.18939   0.15308   0.00000  Uiso   1.00
C21    C     0.97654   0.16260   0.33812   0.00000  Uiso   1.00
C22    C     0.02430   0.20329   0.37857   0.00000  Uiso   1.00
C23    C     0.08941   0.18781   0.38762   0.00000  Uiso   1.00
H24    H     0.94610   0.02839   0.24198   0.00000  Uiso   1.00
H25    H     0.86576   0.96723   0.29178   0.00000  Uiso   1.00
H26    H     0.90608   0.05194   0.13237   0.00000  Uiso   1.00
H27    H     0.07113   0.05085   0.29328   0.00000  Uiso   1.00
H28    H     0.76932   0.92334   0.36036   0.00000  Uiso   1.00
H29    H     0.85436   0.10196   0.02422   0.00000  Uiso   1.00
H30    H     0.20239   0.09966   0.36354   0.00000  Uiso   1.00
H31    H     0.88947   0.21269   0.34509   0.00000  Uiso   1.00
H32    H     0.80602   0.16164   0.40055   0.00000  Uiso   1.00
H33    H     0.84634   0.24634   0.24113   0.00000  Uiso   1.00
H34    H     0.01139   0.24525   0.40204   0.00000  Uiso   1.00
H35    H     0.72083   0.08113   0.44863   0.00000  Uiso   1.00
H36    H     0.80587   0.25975   0.11249   0.00000  Uiso   1.00
H37    H     0.15391   0.25745   0.45181   0.00000  Uiso   1.00
O38    O     0.69119   0.96533   0.43910   0.00000  Uiso   1.00
O39    O     0.80277   0.19967   0.99810   0.00000  Uiso   1.00
O40    O     0.25938   0.19666   0.44328   0.00000  Uiso   1.00
N41    N     0.76937   0.96748   0.37353   0.00000  Uiso   1.00
N42    N     0.84887   0.13448   0.05926   0.00000  Uiso   1.00
N43    N     0.17425   0.13234   0.37648   0.00000  Uiso   1.00
N44    N     0.74328   0.05239   0.42103   0.00000  Uiso   1.00
N45    N     0.82278   0.21938   0.10676   0.00000  Uiso   1.00
N46    N     0.14816   0.21724   0.42398   0.00000  Uiso   1.00
C47    C     0.23500   0.89192   0.00897   0.00000  Uiso   1.00
C48    C     0.30113   0.86706   0.00069   0.00000  Uiso   1.00
C49    C     0.31084   0.80736   0.98696   0.00000  Uiso   1.00
C50    C     0.37512   0.79369   0.98127   0.00000  Uiso   1.00
C51    C     0.46981   0.74831   0.96726   0.00000  Uiso   1.00
C52    C     0.24767   0.93132   0.07347   0.00000  Uiso   1.00
C53    C     0.21242   0.92566   0.12093   0.00000  Uiso   1.00
C54    C     0.23170   0.96611   0.17650   0.00000  Uiso   1.00
C55    C     0.24336   0.02053   0.27547   0.00000  Uiso   1.00
C56    C     0.22260   0.93351   0.96255   0.00000  Uiso   1.00
C57    C     0.16626   0.92970   0.91677   0.00000  Uiso   1.00
C58    C     0.16442   0.97200   0.87896   0.00000  Uiso   1.00
C59    C     0.13715   0.02982   0.80572   0.00000  Uiso   1.00
C60    C     0.33190   0.97382   0.02326   0.00000  Uiso   1.00
C61    C     0.35376   0.91154   0.00846   0.00000  Uiso   1.00
C62    C     0.41805   0.89796   0.00278   0.00000  Uiso   1.00
C63    C     0.42785   0.83825   0.98905   0.00000  Uiso   1.00
C64    C     0.30030   0.97581   0.08123   0.00000  Uiso   1.00
C65    C     0.31963   0.01627   0.13675   0.00000  Uiso   1.00
C66    C     0.28443   0.01067   0.18428   0.00000  Uiso   1.00
C67    C     0.27523   0.97799   0.97032   0.00000  Uiso   1.00
C68    C     0.27347   0.02031   0.93258   0.00000  Uiso   1.00
C69    C     0.21715   0.01656   0.88675   0.00000  Uiso   1.00
H70    H     0.19402   0.85729   0.00292   0.00000  Uiso   1.00
H71    H     0.27010   0.77294   0.98096   0.00000  Uiso   1.00
H72    H     0.17169   0.89124   0.11490   0.00000  Uiso   1.00
H73    H     0.12554   0.89527   0.91077   0.00000  Uiso   1.00
H74    H     0.37765   0.69904   0.96006   0.00000  Uiso   1.00
H75    H     0.17015   0.94849   0.24248   0.00000  Uiso   1.00
H76    H     0.07283   0.95700   0.81202   0.00000  Uiso   1.00
H77    H     0.37288   0.00845   0.02931   0.00000  Uiso   1.00
H78    H     0.45877   0.93240   0.00879   0.00000  Uiso   1.00
H79    H     0.36036   0.05069   0.14274   0.00000  Uiso   1.00
H80    H     0.31421   0.05473   0.93861   0.00000  Uiso   1.00
H81    H     0.53079   0.82846   0.98265   0.00000  Uiso   1.00
H82    H     0.32328   0.07790   0.26507   0.00000  Uiso   1.00
H83    H     0.22596   0.08642   0.83461   0.00000  Uiso   1.00
O84    O     0.50750   0.71099   0.95740   0.00000  Uiso   1.00
O85    O     0.23525   0.03826   0.32792   0.00000  Uiso   1.00
O86    O     0.10757   0.04942   0.76317   0.00000  Uiso   1.00
N87    N     0.40190   0.73994   0.96818   0.00000  Uiso   1.00
N88    N     0.20791   0.97315   0.23223   0.00000  Uiso   1.00
N89    N     0.11691   0.98112   0.82980   0.00000  Uiso   1.00
N90    N     0.48430   0.80958   0.98033   0.00000  Uiso   1.00
N91    N     0.29030   0.04279   0.24438   0.00000  Uiso   1.00
N92    N     0.19931   0.05075   0.84195   0.00000  Uiso   1.00
C93    C     0.03457   0.17098   0.73937   0.00000  Uiso   1.00
C94    C     0.99427   0.20337   0.69362   0.00000  Uiso   1.00
C95    C     0.97885   0.18475   0.62945   0.00000  Uiso   1.00
C96    C     0.94146   0.22062   0.59575   0.00000  Uiso   1.00
C97    C     0.88213   0.26294   0.52023   0.00000  Uiso   1.00
C98    C     0.09262   0.21536   0.77549   0.00000  Uiso   1.00
C99    C     0.15989   0.20681   0.78016   0.00000  Uiso   1.00
C100   C     0.20529   0.25277   0.81539   0.00000  Uiso   1.00
C101   C     0.29864   0.31368   0.86700   0.00000  Uiso   1.00
C102   C     0.99013   0.16056   0.78618   0.00000  Uiso   1.00
C103   C     0.97124   0.10593   0.79986   0.00000  Uiso   1.00
C104   C     0.93038   0.10576   0.84411   0.00000  Uiso   1.00
C105   C     0.86461   0.08157   0.91233   0.00000  Uiso   1.00
C106   C     0.99560   0.26779   0.79363   0.00000  Uiso   1.00
C107   C     0.97310   0.25596   0.72310   0.00000  Uiso   1.00
C108   C     0.93573   0.29187   0.68949   0.00000  Uiso   1.00
C109   C     0.92025   0.27330   0.62528   0.00000  Uiso   1.00
C110   C     0.07145   0.26794   0.80496   0.00000  Uiso   1.00
C111   C     0.11677   0.31393   0.84020   0.00000  Uiso   1.00
C112   C     0.18409   0.30546   0.84492   0.00000  Uiso   1.00
C113   C     0.96896   0.21314   0.81566   0.00000  Uiso   1.00
C114   C     0.92812   0.21305   0.85990   0.00000  Uiso   1.00
C115   C     0.90917   0.15844   0.87364   0.00000  Uiso   1.00
H116   H     0.05106   0.13004   0.71642   0.00000  Uiso   1.00
H117   H     0.99524   0.14406   0.60665   0.00000  Uiso   1.00
H118   H     0.17625   0.16611   0.75735   0.00000  Uiso   1.00
H119   H     0.98763   0.06525   0.77704   0.00000  Uiso   1.00
H120   H     0.92405   0.18280   0.49795   0.00000  Uiso   1.00
H121   H     0.30571   0.22929   0.81571   0.00000  Uiso   1.00
H122   H     0.90798   0.01661   0.85725   0.00000  Uiso   1.00
H123   H     0.97912   0.30874   0.81658   0.00000  Uiso   1.00
H124   H     0.91935   0.33256   0.71231   0.00000  Uiso   1.00
H125   H     0.10036   0.35461   0.86300   0.00000  Uiso   1.00
H126   H     0.91175   0.25375   0.88270   0.00000  Uiso   1.00
H127   H     0.86246   0.33580   0.58371   0.00000  Uiso   1.00
H128   H     0.24412   0.38229   0.90147   0.00000  Uiso   1.00
H129   H     0.84639   0.16960   0.94300   0.00000  Uiso   1.00
O130   O     0.85526   0.27175   0.47043   0.00000  Uiso   1.00
O131   O     0.35598   0.33275   0.88733   0.00000  Uiso   1.00
O132   O     0.83417   0.05371   0.94182   0.00000  Uiso   1.00
N133   N     0.91774   0.21553   0.53245   0.00000  Uiso   1.00
N134   N     0.27458   0.25900   0.82953   0.00000  Uiso   1.00
N135   N     0.90275   0.06016   0.86837   0.00000  Uiso   1.00
N136   N     0.88460   0.29786   0.57859   0.00000  Uiso   1.00
N137   N     0.24144   0.34133   0.87567   0.00000  Uiso   1.00
N138   N     0.86960   0.14249   0.91451   0.00000  Uiso   1.00
C139   C     0.37686   0.81335   0.50888   0.00000  Uiso   1.00
C140   C     0.32696   0.84503   0.47023   0.00000  Uiso   1.00
C141   C     0.26703   0.81911   0.43308   0.00000  Uiso   1.00
C142   C     0.22838   0.85563   0.40142   0.00000  Uiso   1.00
C143   C     0.14775   0.89565   0.34061   0.00000  Uiso   1.00
C144   C     0.38633   0.84754   0.57568   0.00000  Uiso   1.00
C145   C     0.37632   0.82372   0.62720   0.00000  Uiso   1.00
C146   C     0.38766   0.86235   0.68431   0.00000  Uiso   1.00
C147   C     0.39924   0.90625   0.78722   0.00000  Uiso   1.00
C148   C     0.44329   0.82354   0.48747   0.00000  Uiso   1.00
C149   C     0.48119   0.77954   0.46484   0.00000  Uiso   1.00
C150   C     0.54050   0.79797   0.44770   0.00000  Uiso   1.00
C151   C     0.64053   0.80461   0.41366   0.00000  Uiso   1.00
C152   C     0.41480   0.92431   0.51870   0.00000  Uiso   1.00
C153   C     0.34757   0.90530   0.47556   0.00000  Uiso   1.00
C154   C     0.30900   0.94187   0.44394   0.00000  Uiso   1.00
C155   C     0.24902   0.91601   0.40676   0.00000  Uiso   1.00
C156   C     0.40693   0.90780   0.58101   0.00000  Uiso   1.00
C157   C     0.41829   0.94648   0.63806   0.00000  Uiso   1.00
C158   C     0.40830   0.92273   0.68965   0.00000  Uiso   1.00
C159   C     0.46390   0.88381   0.49280   0.00000  Uiso   1.00
C160   C     0.52316   0.90231   0.47570   0.00000  Uiso   1.00
C161   C     0.56114   0.85835   0.45304   0.00000  Uiso   1.00
H162   H     0.36082   0.76643   0.50474   0.00000  Uiso   1.00
H163   H     0.25110   0.77246   0.42897   0.00000  Uiso   1.00
H164   H     0.36038   0.77707   0.62306   0.00000  Uiso   1.00
H165   H     0.46523   0.73291   0.46072   0.00000  Uiso   1.00
H166   H     0.13853   0.80574   0.34735   0.00000  Uiso   1.00
H167   H     0.36898   0.81545   0.75659   0.00000  Uiso   1.00
H168   H     0.59008   0.72231   0.41428   0.00000  Uiso   1.00
H169   H     0.43084   0.97124   0.52285   0.00000  Uiso   1.00
H170   H     0.32496   0.98851   0.44808   0.00000  Uiso   1.00
H171   H     0.43424   0.99311   0.64217   0.00000  Uiso   1.00
H172   H     0.53909   0.94895   0.47983   0.00000  Uiso   1.00
H173   H     0.19847   0.98109   0.36285   0.00000  Uiso   1.00
H174   H     0.42893   0.99079   0.77210   0.00000  Uiso   1.00
H175   H     0.65003   0.89766   0.42978   0.00000  Uiso   1.00
O176   O     0.09757   0.90108   0.30560   0.00000  Uiso   1.00
O177   O     0.39993   0.91382   0.84252   0.00000  Uiso   1.00
O178   O     0.69000   0.79163   0.39341   0.00000  Uiso   1.00
N179   N     0.16717   0.84463   0.36125   0.00000  Uiso   1.00
N180   N     0.38262   0.85371   0.74387   0.00000  Uiso   1.00
N181   N     0.58934   0.76664   0.42385   0.00000  Uiso   1.00
N182   N     0.19943   0.93899   0.36959   0.00000  Uiso   1.00
N183   N     0.41488   0.94807   0.75221   0.00000  Uiso   1.00
N184   N     0.62160   0.86099   0.43219   0.00000  Uiso   1.00
C185   C     0.77959   0.55739   0.33227   0.00000  Uiso   1.00
C186   C     0.80387   0.52462   0.27540   0.00000  Uiso   1.00
C187   C     0.76352   0.49652   0.21987   0.00000  Uiso   1.00
C188   C     0.79535   0.46904   0.17344   0.00000  Uiso   1.00
C189   C     0.82246   0.41808   0.08378   0.00000  Uiso   1.00
C190   C     0.81493   0.62004   0.34606   0.00000  Uiso   1.00
C191   C     0.78388   0.67217   0.34994   0.00000  Uiso   1.00
C192   C     0.82503   0.72501   0.36299   0.00000  Uiso   1.00
C193   C     0.86931   0.82220   0.38307   0.00000  Uiso   1.00
C194   C     0.80788   0.52833   0.38651   0.00000  Uiso   1.00
C195   C     0.77090   0.50335   0.42443   0.00000  Uiso   1.00
C196   C     0.80611   0.47900   0.47155   0.00000  Uiso   1.00
C197   C     0.83944   0.43378   0.55444   0.00000  Uiso   1.00
C198   C     0.90787   0.55857   0.34856   0.00000  Uiso   1.00
C199   C     0.87355   0.52526   0.28425   0.00000  Uiso   1.00
C200   C     0.90545   0.49782   0.23789   0.00000  Uiso   1.00
C201   C     0.86516   0.46967   0.18230   0.00000  Uiso   1.00
C202   C     0.88461   0.62068   0.35490   0.00000  Uiso   1.00
C203   C     0.92581   0.67347   0.36796   0.00000  Uiso   1.00
C204   C     0.89484   0.72566   0.37185   0.00000  Uiso   1.00
C205   C     0.87756   0.52897   0.39536   0.00000  Uiso   1.00
C206   C     0.91283   0.50465   0.44244   0.00000  Uiso   1.00
C207   C     0.87592   0.47964   0.48041   0.00000  Uiso   1.00
H208   H     0.72534   0.55690   0.32539   0.00000  Uiso   1.00
H209   H     0.70960   0.49604   0.21304   0.00000  Uiso   1.00
H210   H     0.72996   0.67166   0.34309   0.00000  Uiso   1.00
H211   H     0.71698   0.50287   0.41756   0.00000  Uiso   1.00
H212   H     0.72287   0.42886   0.09238   0.00000  Uiso   1.00
H213   H     0.76581   0.79917   0.36662   0.00000  Uiso   1.00
H214   H     0.73844   0.44324   0.52366   0.00000  Uiso   1.00
H215   H     0.96212   0.55907   0.35545   0.00000  Uiso   1.00
H216   H     0.95937   0.49832   0.24475   0.00000  Uiso   1.00
H217   H     0.97973   0.67394   0.37481   0.00000  Uiso   1.00
H218   H     0.96675   0.50515   0.44928   0.00000  Uiso   1.00
H219   H     0.92560   0.43071   0.11812   0.00000  Uiso   1.00
H220   H     0.96853   0.80102   0.39236   0.00000  Uiso   1.00
H221   H     0.94116   0.44509   0.54940   0.00000  Uiso   1.00
O222   O     0.81816   0.38980   0.03188   0.00000  Uiso   1.00
O223   O     0.87448   0.87563   0.39169   0.00000  Uiso   1.00
O224   O     0.83857   0.40866   0.59772   0.00000  Uiso   1.00
N225   N     0.77096   0.43762   0.11364   0.00000  Uiso   1.00
N226   N     0.81110   0.78384   0.37002   0.00000  Uiso   1.00
N227   N     0.78552   0.45109   0.51685   0.00000  Uiso   1.00
N228   N     0.88005   0.43862   0.12748   0.00000  Uiso   1.00
N229   N     0.92019   0.78484   0.38387   0.00000  Uiso   1.00
N230   N     0.89460   0.45209   0.53070   0.00000  Uiso   1.00
C231   C     0.56703   0.44414   0.69102   0.00000  Uiso   1.00
C232   C     0.52776   0.39907   0.71766   0.00000  Uiso   1.00
C233   C     0.48970   0.34807   0.68355   0.00000  Uiso   1.00
C234   C     0.45759   0.31258   0.71657   0.00000  Uiso   1.00
C235   C     0.39576   0.24031   0.74808   0.00000  Uiso   1.00
C236   C     0.63905   0.44838   0.72516   0.00000  Uiso   1.00
C237   C     0.69457   0.43884   0.69735   0.00000  Uiso   1.00
C238   C     0.75614   0.44487   0.73668   0.00000  Uiso   1.00
C239   C     0.86710   0.44919   0.77983   0.00000  Uiso   1.00
C240   C     0.54159   0.50392   0.71201   0.00000  Uiso   1.00
C241   C     0.51518   0.54109   0.67314   0.00000  Uiso   1.00
C242   C     0.49472   0.59389   0.70141   0.00000  Uiso   1.00
C243   C     0.45435   0.68444   0.72414   0.00000  Uiso   1.00
C244   C     0.57769   0.47181   0.81034   0.00000  Uiso   1.00
C245   C     0.53355   0.41410   0.78247   0.00000  Uiso   1.00
C246   C     0.50149   0.37868   0.81556   0.00000  Uiso   1.00
C247   C     0.46339   0.32764   0.78150   0.00000  Uiso   1.00
C248   C     0.64484   0.46341   0.78997   0.00000  Uiso   1.00
C249   C     0.70635   0.46946   0.82936   0.00000  Uiso   1.00
C250   C     0.76194   0.45993   0.80161   0.00000  Uiso   1.00
C251   C     0.54738   0.51895   0.77682   0.00000  Uiso   1.00
C252   C     0.52696   0.57170   0.80515   0.00000  Uiso   1.00
C253   C     0.50052   0.60895   0.76634   0.00000  Uiso   1.00
H254   H     0.56253   0.43244   0.64057   0.00000  Uiso   1.00
H255   H     0.48524   0.33645   0.63339   0.00000  Uiso   1.00
H256   H     0.69007   0.42722   0.64719   0.00000  Uiso   1.00
H257   H     0.51071   0.52945   0.62299   0.00000  Uiso   1.00
H258   H     0.40212   0.23665   0.65402   0.00000  Uiso   1.00
H259   H     0.83402   0.42805   0.68312   0.00000  Uiso   1.00
H260   H     0.45580   0.64363   0.63209   0.00000  Uiso   1.00
H261   H     0.58219   0.48351   0.86080   0.00000  Uiso   1.00
H262   H     0.50598   0.39033   0.86571   0.00000  Uiso   1.00
H263   H     0.71081   0.48109   0.87951   0.00000  Uiso   1.00
H264   H     0.53145   0.58332   0.85531   0.00000  Uiso   1.00
H265   H     0.41895   0.28038   0.84258   0.00000  Uiso   1.00
H266   H     0.85086   0.47178   0.87167   0.00000  Uiso   1.00
H267   H     0.47264   0.68735   0.82064   0.00000  Uiso   1.00
O268   O     0.36006   0.19628   0.74756   0.00000  Uiso   1.00
O269   O     0.92670   0.44741   0.78573   0.00000  Uiso   1.00
O270   O     0.43048   0.73023   0.71878   0.00000  Uiso   1.00
N271   N     0.41653   0.25974   0.69772   0.00000  Uiso   1.00
N272   N     0.82033   0.43868   0.72492   0.00000  Uiso   1.00
N273   N     0.46674   0.64023   0.67722   0.00000  Uiso   1.00
N274   N     0.42559   0.28327   0.79919   0.00000  Uiso   1.00
N275   N     0.82939   0.46220   0.82639   0.00000  Uiso   1.00
N276   N     0.47580   0.66376   0.77868   0.00000  Uiso   1.00
C277   C     0.09134   0.97821   0.61711   0.00000  Uiso   1.00
C278   C     0.14270   0.01866   0.59721   0.00000  Uiso   1.00
C279   C     0.19903   0.05028   0.63575   0.00000  Uiso   1.00
C280   C     0.23982   0.08477   0.60863   0.00000  Uiso   1.00
C281   C     0.32189   0.14714   0.58736   0.00000  Uiso   1.00
C282   C     0.08834   0.91778   0.57492   0.00000  Uiso   1.00
C283   C     0.09896   0.86458   0.59472   0.00000  Uiso   1.00
C284   C     0.09397   0.81415   0.54883   0.00000  Uiso   1.00
C285   C     0.09160   0.71989   0.49296   0.00000  Uiso   1.00
C286   C     0.02396   0.00164   0.59924   0.00000  Uiso   1.00
C287   C     0.98043   0.01893   0.63948   0.00000  Uiso   1.00
C288   C     0.92124   0.03909   0.61407   0.00000  Uiso   1.00
C289   C     0.81890   0.07503   0.59595   0.00000  Uiso   1.00
C290   C     0.06360   0.98323   0.50043   0.00000  Uiso   1.00
C291   C     0.12764   0.02138   0.53383   0.00000  Uiso   1.00
C292   C     0.16834   0.05584   0.50665   0.00000  Uiso   1.00
C293   C     0.22473   0.08751   0.54514   0.00000  Uiso   1.00
C294   C     0.07328   0.92050   0.51154   0.00000  Uiso   1.00
C295   C     0.06827   0.87014   0.46562   0.00000  Uiso   1.00
C296   C     0.07888   0.81688   0.48534   0.00000  Uiso   1.00
C297   C     0.00889   0.00437   0.53586   0.00000  Uiso   1.00
C298   C     0.94975   0.02449   0.51038   0.00000  Uiso   1.00
C299   C     0.90614   0.04182   0.55057   0.00000  Uiso   1.00
H300   H     0.10307   0.97609   0.66646   0.00000  Uiso   1.00
H301   H     0.21068   0.04816   0.68480   0.00000  Uiso   1.00
H302   H     0.11061   0.86249   0.64377   0.00000  Uiso   1.00
H303   H     0.99211   0.01682   0.68852   0.00000  Uiso   1.00
H304   H     0.32336   0.12924   0.67717   0.00000  Uiso   1.00
H305   H     0.11234   0.73774   0.59067   0.00000  Uiso   1.00
H306   H     0.86245   0.06318   0.68504   0.00000  Uiso   1.00
H307   H     0.05187   0.98536   0.45108   0.00000  Uiso   1.00
H308   H     0.15667   0.05794   0.45760   0.00000  Uiso   1.00
H309   H     0.05661   0.87226   0.41658   0.00000  Uiso   1.00
H310   H     0.93811   0.02660   0.46133   0.00000  Uiso   1.00
H311   H     0.27953   0.13718   0.49277   0.00000  Uiso   1.00
H312   H     0.06850   0.74568   0.40627   0.00000  Uiso   1.00
H313   H     0.81862   0.07112   0.50064   0.00000  Uiso   1.00
O314   O     0.37132   0.18077   0.59314   0.00000  Uiso   1.00
O315   O     0.09446   0.66714   0.47965   0.00000  Uiso   1.00
O316   O     0.76662   0.09411   0.60347   0.00000  Uiso   1.00
N317   N     0.29865   0.12116   0.63288   0.00000  Uiso   1.00
N318   N     0.10137   0.75513   0.55201   0.00000  Uiso   1.00
N319   N     0.86774   0.05937   0.64023   0.00000  Uiso   1.00
N320   N     0.27507   0.12543   0.53365   0.00000  Uiso   1.00
N321   N     0.07778   0.75940   0.45278   0.00000  Uiso   1.00
N322   N     0.84415   0.06365   0.54101   0.00000  Uiso   1.00
C323   C     0.66233   0.13388   0.82653   0.00000  Uiso   1.00
C324   C     0.64339   0.18934   0.86593   0.00000  Uiso   1.00
C325   C     0.68774   0.23583   0.90156   0.00000  Uiso   1.00
C326   C     0.66050   0.28256   0.93425   0.00000  Uiso   1.00
C327   C     0.64161   0.36866   0.99584   0.00000  Uiso   1.00
C328   C     0.62450   0.13119   0.76054   0.00000  Uiso   1.00
C329   C     0.65297   0.12877   0.70756   0.00000  Uiso   1.00
C330   C     0.60983   0.12653   0.65153   0.00000  Uiso   1.00
C331   C     0.56161   0.12230   0.54949   0.00000  Uiso   1.00
C332   C     0.63188   0.08133   0.84948   0.00000  Uiso   1.00
C333   C     0.66656   0.03698   0.87127   0.00000  Uiso   1.00
C334   C     0.62963   0.99276   0.89012   0.00000  Uiso   1.00
C335   C     0.59287   0.91113   0.92618   0.00000  Uiso   1.00
C336   C     0.53508   0.13420   0.82123   0.00000  Uiso   1.00
C337   C     0.57428   0.18951   0.86305   0.00000  Uiso   1.00
C338   C     0.54696   0.23618   0.89570   0.00000  Uiso   1.00
C339   C     0.59126   0.28273   0.93137   0.00000  Uiso   1.00
C340   C     0.55539   0.13136   0.75765   0.00000  Uiso   1.00
C341   C     0.51219   0.12912   0.70169   0.00000  Uiso   1.00
C342   C     0.54059   0.12670   0.64864   0.00000  Uiso   1.00
C343   C     0.56277   0.08150   0.84660   0.00000  Uiso   1.00
C344   C     0.52578   0.03734   0.86541   0.00000  Uiso   1.00
C345   C     0.56039   0.99293   0.88723   0.00000  Uiso   1.00
H346   H     0.71613   0.13375   0.82877   0.00000  Uiso   1.00
H347   H     0.74123   0.23568   0.90377   0.00000  Uiso   1.00
H348   H     0.70646   0.12863   0.70980   0.00000  Uiso   1.00
H349   H     0.72004   0.03686   0.87350   0.00000  Uiso   1.00
H350   H     0.73856   0.34878   0.98564   0.00000  Uiso   1.00
H351   H     0.66525   0.12303   0.57663   0.00000  Uiso   1.00
H352   H     0.69390   0.92953   0.92182   0.00000  Uiso   1.00
H353   H     0.48127   0.13433   0.81898   0.00000  Uiso   1.00
H354   H     0.49347   0.23630   0.89346   0.00000  Uiso   1.00
H355   H     0.45871   0.12925   0.69948   0.00000  Uiso   1.00
H356   H     0.47229   0.03748   0.86317   0.00000  Uiso   1.00
H357   H     0.53748   0.34929   0.97727   0.00000  Uiso   1.00
H358   H     0.46417   0.12353   0.56825   0.00000  Uiso   1.00
H359   H     0.49281   0.93003   0.91344   0.00000  Uiso   1.00
O360   O     0.65029   0.41612   0.03061   0.00000  Uiso   1.00
O361   O     0.55411   0.11993   0.49400   0.00000  Uiso   1.00
O362   O     0.59169   0.86606   0.94688   0.00000  Uiso   1.00
N363   N     0.68956   0.33490   0.97346   0.00000  Uiso   1.00
N364   N     0.62102   0.12385   0.59106   0.00000  Uiso   1.00
N365   N     0.64780   0.94293   0.91377   0.00000  Uiso   1.00
N366   N     0.58136   0.33517   0.96896   0.00000  Uiso   1.00
N367   N     0.51282   0.12412   0.58656   0.00000  Uiso   1.00
N368   N     0.53960   0.94320   0.90926   0.00000  Uiso   1.00
C369   C     0.84422   0.69371   0.01508   0.00000  Uiso   1.00
C370   C     0.88637   0.69380   0.07874   0.00000  Uiso   1.00
C371   C     0.91130   0.74374   0.12370   0.00000  Uiso   1.00
C372   C     0.94874   0.73446   0.17890   0.00000  Uiso   1.00
C373   C     0.01233   0.74329   0.27627   0.00000  Uiso   1.00
C374   C     0.78010   0.65425   0.01161   0.00000  Uiso   1.00
C375   C     0.71570   0.67095   0.00012   0.00000  Uiso   1.00
C376   C     0.66368   0.62838   0.99881   0.00000  Uiso   1.00
C377   C     0.56229   0.57581   0.99191   0.00000  Uiso   1.00
C378   C     0.88136   0.66093   0.96730   0.00000  Uiso   1.00
C379   C     0.90208   0.68323   0.91853   0.00000  Uiso   1.00
C380   C     0.93530   0.64628   0.87989   0.00000  Uiso   1.00
C381   C     0.99113   0.60407   0.80418   0.00000  Uiso   1.00
C382   C     0.86637   0.58843   0.03318   0.00000  Uiso   1.00
C383   C     0.89839   0.63661   0.08857   0.00000  Uiso   1.00
C384   C     0.93581   0.62725   0.14372   0.00000  Uiso   1.00
C385   C     0.96080   0.67717   0.18875   0.00000  Uiso   1.00
C386   C     0.79213   0.59707   0.02144   0.00000  Uiso   1.00
C387   C     0.74020   0.55446   0.02014   0.00000  Uiso   1.00
C388   C     0.67573   0.57109   0.00866   0.00000  Uiso   1.00
C389   C     0.89339   0.60374   0.97713   0.00000  Uiso   1.00
C390   C     0.92659   0.56675   0.93855   0.00000  Uiso   1.00
C391   C     0.94736   0.58899   0.88974   0.00000  Uiso   1.00
H392   H     0.83485   0.73823   0.00743   0.00000  Uiso   1.00
H393   H     0.90198   0.78798   0.11607   0.00000  Uiso   1.00
H394   H     0.70640   0.71520   0.99251   0.00000  Uiso   1.00
H395   H     0.89276   0.72748   0.91093   0.00000  Uiso   1.00
H396   H     0.98169   0.81793   0.24087   0.00000  Uiso   1.00
H397   H     0.56930   0.66446   0.98031   0.00000  Uiso   1.00
H398   H     0.96227   0.69036   0.80829   0.00000  Uiso   1.00
H399   H     0.87573   0.54390   0.04083   0.00000  Uiso   1.00
H400   H     0.94511   0.58299   0.15132   0.00000  Uiso   1.00
H401   H     0.74953   0.51021   0.02775   0.00000  Uiso   1.00
H402   H     0.93589   0.52250   0.94617   0.00000  Uiso   1.00
H403   H     0.01669   0.65155   0.26948   0.00000  Uiso   1.00
H404   H     0.60431   0.49808   0.00891   0.00000  Uiso   1.00
H405   H     0.99728   0.52398   0.83689   0.00000  Uiso   1.00
O406   O     0.04407   0.76396   0.32726   0.00000  Uiso   1.00
O407   O     0.50304   0.56261   0.98540   0.00000  Uiso   1.00
O408   O     0.01861   0.59659   0.75971   0.00000  Uiso   1.00
N409   N     0.98042   0.77340   0.23244   0.00000  Uiso   1.00
N410   N     0.59486   0.62992   0.98884   0.00000  Uiso   1.00
N411   N     0.96224   0.65413   0.82800   0.00000  Uiso   1.00
N412   N     0.99925   0.68388   0.24783   0.00000  Uiso   1.00
N413   N     0.61370   0.54040   0.00423   0.00000  Uiso   1.00
N414   N     0.98108   0.56461   0.84339   0.00000  Uiso   1.00
C415   C     0.59876   0.40895   0.34947   0.00000  Uiso   1.00
C416   C     0.60880   0.35215   0.37509   0.00000  Uiso   1.00
C417   C     0.66983   0.33387   0.39854   0.00000  Uiso   1.00
C418   C     0.66842   0.28052   0.41974   0.00000  Uiso   1.00
C419   C     0.69318   0.19746   0.45983   0.00000  Uiso   1.00
C420   C     0.55919   0.38960   0.28341   0.00000  Uiso   1.00
C421   C     0.57852   0.40282   0.22978   0.00000  Uiso   1.00
C422   C     0.53534   0.38101   0.17381   0.00000  Uiso   1.00
C423   C     0.48307   0.35613   0.07158   0.00000  Uiso   1.00
C424   C     0.55219   0.44244   0.38712   0.00000  Uiso   1.00
C425   C     0.56563   0.50009   0.42068   0.00000  Uiso   1.00
C426   C     0.51655   0.52276   0.45202   0.00000  Uiso   1.00
C427   C     0.45341   0.57991   0.51081   0.00000  Uiso   1.00
C428   C     0.48771   0.34671   0.34543   0.00000  Uiso   1.00
C429   C     0.54848   0.31834   0.37290   0.00000  Uiso   1.00
C430   C     0.54697   0.26501   0.39408   0.00000  Uiso   1.00
C431   C     0.60800   0.24666   0.41755   0.00000  Uiso   1.00
C432   C     0.49887   0.35580   0.28122   0.00000  Uiso   1.00
C433   C     0.45566   0.33396   0.22532   0.00000  Uiso   1.00
C434   C     0.47492   0.34714   0.17162   0.00000  Uiso   1.00
C435   C     0.49187   0.40863   0.38494   0.00000  Uiso   1.00
C436   C     0.44277   0.43122   0.41622   0.00000  Uiso   1.00
C437   C     0.45613   0.48889   0.44982   0.00000  Uiso   1.00
H438   H     0.64572   0.43527   0.35117   0.00000  Uiso   1.00
H439   H     0.71650   0.36004   0.40022   0.00000  Uiso   1.00
H440   H     0.62519   0.42899   0.23149   0.00000  Uiso   1.00
H441   H     0.61231   0.52623   0.42236   0.00000  Uiso   1.00
H442   H     0.76838   0.26172   0.45361   0.00000  Uiso   1.00
H443   H     0.57585   0.40712   0.09785   0.00000  Uiso   1.00
H444   H     0.54867   0.61218   0.50034   0.00000  Uiso   1.00
H445   H     0.44075   0.32039   0.34373   0.00000  Uiso   1.00
H446   H     0.50029   0.23886   0.39237   0.00000  Uiso   1.00
H447   H     0.40898   0.30780   0.22365   0.00000  Uiso   1.00
H448   H     0.39610   0.40505   0.41452   0.00000  Uiso   1.00
H449   H     0.59290   0.16336   0.44724   0.00000  Uiso   1.00
H450   H     0.40036   0.30876   0.09148   0.00000  Uiso   1.00
H451   H     0.37319   0.51382   0.49397   0.00000  Uiso   1.00
O452   O     0.72351   0.16097   0.48254   0.00000  Uiso   1.00
O453   O     0.47090   0.35174   0.01580   0.00000  Uiso   1.00
O454   O     0.43525   0.62077   0.54385   0.00000  Uiso   1.00
N455   N     0.71891   0.24977   0.44545   0.00000  Uiso   1.00
N456   N     0.53891   0.38570   0.11283   0.00000  Uiso   1.00
N457   N     0.51349   0.57742   0.48911   0.00000  Uiso   1.00
N458   N     0.62448   0.19684   0.44202   0.00000  Uiso   1.00
N459   N     0.44448   0.33277   0.10940   0.00000  Uiso   1.00
N460   N     0.41906   0.52449   0.48568   0.00000  Uiso   1.00
C461   C     0.29776   0.48818   0.71308   0.00000  Uiso   1.00
C462   C     0.28121   0.51982   0.77433   0.00000  Uiso   1.00
C463   C     0.32648   0.53902   0.82951   0.00000  Uiso   1.00
C464   C     0.30145   0.56704   0.88039   0.00000  Uiso   1.00
C465   C     0.28607   0.61485   0.97616   0.00000  Uiso   1.00
C466   C     0.25268   0.42999   0.69493   0.00000  Uiso   1.00
C467   C     0.27397   0.37367   0.68334   0.00000  Uiso   1.00
C468   C     0.22492   0.32607   0.66738   0.00000  Uiso   1.00
C469   C     0.16524   0.23442   0.63983   0.00000  Uiso   1.00
C470   C     0.27375   0.52541   0.66466   0.00000  Uiso   1.00
C471   C     0.31275   0.54931   0.62760   0.00000  Uiso   1.00
C472   C     0.28143   0.58204   0.58614   0.00000  Uiso   1.00
C473   C     0.25447   0.63855   0.51159   0.00000  Uiso   1.00
C474   C     0.17279   0.50379   0.70534   0.00000  Uiso   1.00
C475   C     0.21333   0.52829   0.77013   0.00000  Uiso   1.00
C476   C     0.18822   0.55629   0.82095   0.00000  Uiso   1.00
C477   C     0.23345   0.57553   0.87619   0.00000  Uiso   1.00
C478   C     0.18480   0.43847   0.69073   0.00000  Uiso   1.00
C479   C     0.13571   0.39094   0.67478   0.00000  Uiso   1.00
C480   C     0.15692   0.33456   0.66317   0.00000  Uiso   1.00
C481   C     0.20587   0.53389   0.66046   0.00000  Uiso   1.00
C482   C     0.17448   0.56658   0.61904   0.00000  Uiso   1.00
C483   C     0.21343   0.59053   0.58193   0.00000  Uiso   1.00
H484   H     0.35060   0.48157   0.71635   0.00000  Uiso   1.00
H485   H     0.37901   0.53245   0.83274   0.00000  Uiso   1.00
H486   H     0.32650   0.36712   0.68659   0.00000  Uiso   1.00
H487   H     0.36527   0.54274   0.63086   0.00000  Uiso   1.00
H488   H     0.38056   0.59257   0.95994   0.00000  Uiso   1.00
H489   H     0.26984   0.24397   0.65175   0.00000  Uiso   1.00
H490   H     0.35160   0.61430   0.53423   0.00000  Uiso   1.00
H491   H     0.11994   0.51038   0.70207   0.00000  Uiso   1.00
H492   H     0.13569   0.56285   0.81768   0.00000  Uiso   1.00
H493   H     0.08318   0.39752   0.67153   0.00000  Uiso   1.00
H494   H     0.12196   0.57313   0.61580   0.00000  Uiso   1.00
H495   H     0.18308   0.61724   0.94772   0.00000  Uiso   1.00
H496   H     0.07236   0.26864   0.63952   0.00000  Uiso   1.00
H497   H     0.15412   0.63897   0.52202   0.00000  Uiso   1.00
O498   O     0.29634   0.63888   0.03015   0.00000  Uiso   1.00
O499   O     0.15108   0.18153   0.62580   0.00000  Uiso   1.00
O500   O     0.25835   0.66739   0.47163   0.00000  Uiso   1.00
N501   N     0.33193   0.59119   0.94119   0.00000  Uiso   1.00
N502   N     0.22841   0.26527   0.65306   0.00000  Uiso   1.00
N503   N     0.30485   0.61148   0.54319   0.00000  Uiso   1.00
N504   N     0.22566   0.60446   0.93462   0.00000  Uiso   1.00
N505   N     0.12215   0.27854   0.64648   0.00000  Uiso   1.00
N506   N     0.19858   0.62475   0.53661   0.00000  Uiso   1.00
C507   C     0.41836   0.72415   0.29036   0.00000  Uiso   1.00
C508   C     0.42151   0.78164   0.26505   0.00000  Uiso   1.00
C509   C     0.45264   0.83613   0.29783   0.00000  Uiso   1.00
C510   C     0.44993   0.88337   0.26640   0.00000  Uiso   1.00
C511   C     0.45975   0.97372   0.23655   0.00000  Uiso   1.00
C512   C     0.34438   0.70293   0.28165   0.00000  Uiso   1.00
C513   C     0.31068   0.69125   0.32839   0.00000  Uiso   1.00
C514   C     0.24304   0.67223   0.31093   0.00000  Uiso   1.00
C515   C     0.13313   0.64035   0.30685   0.00000  Uiso   1.00
C516   C     0.44796   0.67897   0.24617   0.00000  Uiso   1.00
C517   C     0.50134   0.64712   0.26306   0.00000  Uiso   1.00
C518   C     0.52090   0.60792   0.21572   0.00000  Uiso   1.00
C519   C     0.57182   0.53883   0.15654   0.00000  Uiso   1.00
C520   C     0.35818   0.71115   0.17625   0.00000  Uiso   1.00
C521   C     0.38881   0.77457   0.20308   0.00000  Uiso   1.00
C522   C     0.38606   0.82175   0.17159   0.00000  Uiso   1.00
C523   C     0.41719   0.87630   0.20432   0.00000  Uiso   1.00
C524   C     0.31169   0.69588   0.21968   0.00000  Uiso   1.00
C525   C     0.24409   0.67687   0.20215   0.00000  Uiso   1.00
C526   C     0.21029   0.66516   0.24884   0.00000  Uiso   1.00
C527   C     0.41527   0.67191   0.18419   0.00000  Uiso   1.00
C528   C     0.43475   0.63275   0.13682   0.00000  Uiso   1.00
C529   C     0.48815   0.60085   0.15364   0.00000  Uiso   1.00
H530   H     0.44381   0.72964   0.33861   0.00000  Uiso   1.00
H531   H     0.47793   0.84157   0.34579   0.00000  Uiso   1.00
H532   H     0.33599   0.69671   0.37634   0.00000  Uiso   1.00
H533   H     0.52662   0.65259   0.31102   0.00000  Uiso   1.00
H534   H     0.50132   0.96256   0.32644   0.00000  Uiso   1.00
H535   H     0.20203   0.65709   0.39085   0.00000  Uiso   1.00
H536   H     0.60402   0.56406   0.25312   0.00000  Uiso   1.00
H537   H     0.33273   0.70566   0.12800   0.00000  Uiso   1.00
H538   H     0.36076   0.81627   0.12363   0.00000  Uiso   1.00
H539   H     0.21881   0.67141   0.15419   0.00000  Uiso   1.00
H540   H     0.40945   0.62729   0.08887   0.00000  Uiso   1.00
H541   H     0.40622   0.94203   0.14613   0.00000  Uiso   1.00
H542   H     0.10693   0.63655   0.21054   0.00000  Uiso   1.00
H543   H     0.50892   0.54353   0.07280   0.00000  Uiso   1.00
O544   O     0.47419   0.02550   0.23721   0.00000  Uiso   1.00
O545   O     0.08154   0.62472   0.32172   0.00000  Uiso   1.00
O546   O     0.60894   0.50267   0.14102   0.00000  Uiso   1.00
N547   N     0.47511   0.94255   0.28460   0.00000  Uiso   1.00
N548   N     0.19528   0.65696   0.34482   0.00000  Uiso   1.00
N549   N     0.57110   0.56997   0.21605   0.00000  Uiso   1.00
N550   N     0.42393   0.93150   0.18757   0.00000  Uiso   1.00
N551   N     0.14411   0.64591   0.24780   0.00000  Uiso   1.00
N552   N     0.51992   0.55892   0.11903   0.00000  Uiso   1.00
