data_job_02913
_audit_creation_date              2018-12-19
_audit_creation_method            'Materials Studio'
_symmetry_space_group_name_H-M    'P1'
_symmetry_Int_Tables_number       1
_symmetry_cell_setting            triclinic
loop_
_symmetry_equiv_pos_as_xyz
  x,y,z
_cell_length_a                    12.0235
_cell_length_b                    12.0235
_cell_length_c                    31.9810
_cell_angle_alpha                 90.0000
_cell_angle_beta                  90.0000
_cell_angle_gamma                 120.0000
loop_
_atom_site_label
_atom_site_type_symbol
_atom_site_fract_x
_atom_site_fract_y
_atom_site_fract_z
_atom_site_U_iso_or_equiv
_atom_site_adp_type
_atom_site_occupancy
C1     C     0.84750   0.09301   0.04780   0.00000  Uiso   1.00
C2     C     0.98721   0.19990   0.04454   0.00000  Uiso   1.00
C3     C     0.09135   0.19980   0.06322   0.00000  Uiso   1.00
C4     C     0.21146   0.30666   0.05647   0.00000  Uiso   1.00
C5     C     0.42606   0.45697   0.05516   0.00000  Uiso   1.00
C6     C     0.77364   0.15573   0.06489   0.00000  Uiso   1.00
C7     C     0.69820   0.11847   0.10066   0.00000  Uiso   1.00
C8     C     0.63852   0.18815   0.11103   0.00000  Uiso   1.00
C9     C     0.52147   0.26981   0.14129   0.00000  Uiso   1.00
C10    C     0.80093   0.05359   0.00301   0.00000  Uiso   1.00
C11    C     0.74839   0.93045   0.98675   0.00000  Uiso   1.00
C12    C     0.71166   0.91412   0.94502   0.00000  Uiso   1.00
C13    C     0.63698   0.83719   0.87920   0.00000  Uiso   1.00
C14    C     0.87563   0.28296   0.00260   0.00000  Uiso   1.00
C15    C     0.00249   0.30307   0.01999   0.00000  Uiso   1.00
C16    C     0.12248   0.40996   0.01321   0.00000  Uiso   1.00
C17    C     0.22677   0.41002   0.03187   0.00000  Uiso   1.00
C18    C     0.78892   0.25890   0.04034   0.00000  Uiso   1.00
C19    C     0.72933   0.32864   0.05065   0.00000  Uiso   1.00
C20    C     0.65383   0.29151   0.08644   0.00000  Uiso   1.00
C21    C     0.81621   0.15676   0.97845   0.00000  Uiso   1.00
C22    C     0.77953   0.14062   0.93674   0.00000  Uiso   1.00
C23    C     0.72696   0.01748   0.92043   0.00000  Uiso   1.00
H24    H     0.83560   0.01269   0.06692   0.00000  Uiso   1.00
H25    H     0.07948   0.11994   0.08222   0.00000  Uiso   1.00
H26    H     0.68638   0.03862   0.11965   0.00000  Uiso   1.00
H27    H     0.73658   0.85063   0.00576   0.00000  Uiso   1.00
H28    H     0.35660   0.28437   0.08837   0.00000  Uiso   1.00
H29    H     0.52770   0.11288   0.16729   0.00000  Uiso   1.00
H30    H     0.63355   0.71646   0.92713   0.00000  Uiso   1.00
H31    H     0.88753   0.36329   0.98349   0.00000  Uiso   1.00
H32    H     0.13427   0.48979   0.99421   0.00000  Uiso   1.00
H33    H     0.74117   0.40847   0.03165   0.00000  Uiso   1.00
H34    H     0.79137   0.22048   0.91776   0.00000  Uiso   1.00
H35    H     0.40107   0.58456   0.01694   0.00000  Uiso   1.00
H36    H     0.57216   0.41306   0.09586   0.00000  Uiso   1.00
H37    H     0.67802   0.01664   0.85570   0.00000  Uiso   1.00
O38    O     0.54021   0.51137   0.06122   0.00000  Uiso   1.00
O39    O     0.45270   0.28636   0.16476   0.00000  Uiso   1.00
O40    O     0.59158   0.76627   0.84968   0.00000  Uiso   1.00
N41    N     0.33321   0.33765   0.07008   0.00000  Uiso   1.00
N42    N     0.55825   0.17733   0.14387   0.00000  Uiso   1.00
N43    N     0.65718   0.80670   0.91934   0.00000  Uiso   1.00
N44    N     0.35714   0.49918   0.03164   0.00000  Uiso   1.00
N45    N     0.58218   0.33885   0.10544   0.00000  Uiso   1.00
N46    N     0.68111   0.96823   0.88091   0.00000  Uiso   1.00
C47    C     0.90699   0.75449   0.71447   0.00000  Uiso   1.00
C48    C     0.80010   0.78731   0.71121   0.00000  Uiso   1.00
C49    C     0.80020   0.89155   0.72988   0.00000  Uiso   1.00
C50    C     0.69334   0.90480   0.72313   0.00000  Uiso   1.00
C51    C     0.54303   0.96910   0.72182   0.00000  Uiso   1.00
C52    C     0.84427   0.61792   0.73155   0.00000  Uiso   1.00
C53    C     0.88153   0.57973   0.76733   0.00000  Uiso   1.00
C54    C     0.81185   0.45037   0.77770   0.00000  Uiso   1.00
C55    C     0.73019   0.25166   0.80796   0.00000  Uiso   1.00
C56    C     0.94641   0.74734   0.66967   0.00000  Uiso   1.00
C57    C     0.06955   0.81795   0.65342   0.00000  Uiso   1.00
C58    C     0.08588   0.79754   0.61169   0.00000  Uiso   1.00
C59    C     0.16281   0.79978   0.54587   0.00000  Uiso   1.00
C60    C     0.71704   0.59267   0.66927   0.00000  Uiso   1.00
C61    C     0.69693   0.69941   0.68666   0.00000  Uiso   1.00
C62    C     0.59004   0.71251   0.67988   0.00000  Uiso   1.00
C63    C     0.58998   0.81675   0.69854   0.00000  Uiso   1.00
C64    C     0.74110   0.53002   0.70700   0.00000  Uiso   1.00
C65    C     0.67136   0.40069   0.71732   0.00000  Uiso   1.00
C66    C     0.70849   0.36232   0.75310   0.00000  Uiso   1.00
C67    C     0.84324   0.65945   0.64512   0.00000  Uiso   1.00
C68    C     0.85938   0.63892   0.60341   0.00000  Uiso   1.00
C69    C     0.98252   0.70948   0.58710   0.00000  Uiso   1.00
H70    H     0.98731   0.82291   0.73358   0.00000  Uiso   1.00
H71    H     0.88006   0.95954   0.74888   0.00000  Uiso   1.00
H72    H     0.96138   0.64776   0.78632   0.00000  Uiso   1.00
H73    H     0.14937   0.88595   0.67243   0.00000  Uiso   1.00
H74    H     0.71563   0.07223   0.75503   0.00000  Uiso   1.00
H75    H     0.88712   0.41483   0.83396   0.00000  Uiso   1.00
H76    H     0.28354   0.91709   0.59380   0.00000  Uiso   1.00
H77    H     0.63671   0.52424   0.65016   0.00000  Uiso   1.00
H78    H     0.51021   0.64448   0.66088   0.00000  Uiso   1.00
H79    H     0.59153   0.33270   0.69831   0.00000  Uiso   1.00
H80    H     0.77952   0.57089   0.58442   0.00000  Uiso   1.00
H81    H     0.41544   0.81651   0.68361   0.00000  Uiso   1.00
H82    H     0.58694   0.15910   0.76253   0.00000  Uiso   1.00
H83    H     0.98336   0.66137   0.52237   0.00000  Uiso   1.00
O84    O     0.48863   0.02884   0.72789   0.00000  Uiso   1.00
O85    O     0.71364   0.16635   0.83143   0.00000  Uiso   1.00
O86    O     0.23373   0.82531   0.51635   0.00000  Uiso   1.00
N87    N     0.66235   0.99556   0.73674   0.00000  Uiso   1.00
N88    N     0.82267   0.38093   0.81054   0.00000  Uiso   1.00
N89    N     0.19330   0.85048   0.58601   0.00000  Uiso   1.00
N90    N     0.50082   0.85796   0.69831   0.00000  Uiso   1.00
N91    N     0.66115   0.24333   0.77210   0.00000  Uiso   1.00
N92    N     0.03177   0.71288   0.54758   0.00000  Uiso   1.00
C93    C     0.24551   0.15250   0.38114   0.00000  Uiso   1.00
C94    C     0.21269   0.01279   0.37788   0.00000  Uiso   1.00
C95    C     0.10845   0.90865   0.39655   0.00000  Uiso   1.00
C96    C     0.09520   0.78854   0.38980   0.00000  Uiso   1.00
C97    C     0.03090   0.57394   0.38849   0.00000  Uiso   1.00
C98    C     0.38208   0.22636   0.39822   0.00000  Uiso   1.00
C99    C     0.42027   0.30180   0.43399   0.00000  Uiso   1.00
C100   C     0.54963   0.36148   0.44436   0.00000  Uiso   1.00
C101   C     0.74834   0.47853   0.47462   0.00000  Uiso   1.00
C102   C     0.25266   0.19907   0.33634   0.00000  Uiso   1.00
C103   C     0.18205   0.25161   0.32009   0.00000  Uiso   1.00
C104   C     0.20246   0.28834   0.27836   0.00000  Uiso   1.00
C105   C     0.20022   0.36302   0.21254   0.00000  Uiso   1.00
C106   C     0.40733   0.12437   0.33594   0.00000  Uiso   1.00
C107   C     0.30059   0.99751   0.35333   0.00000  Uiso   1.00
C108   C     0.28749   0.87752   0.34654   0.00000  Uiso   1.00
C109   C     0.18325   0.77323   0.36520   0.00000  Uiso   1.00
C110   C     0.46998   0.21108   0.37367   0.00000  Uiso   1.00
C111   C     0.59931   0.27067   0.38399   0.00000  Uiso   1.00
C112   C     0.63768   0.34617   0.41977   0.00000  Uiso   1.00
C113   C     0.34055   0.18379   0.31179   0.00000  Uiso   1.00
C114   C     0.36108   0.22047   0.27008   0.00000  Uiso   1.00
C115   C     0.29052   0.27304   0.25376   0.00000  Uiso   1.00
H116   H     0.17709   0.16440   0.40025   0.00000  Uiso   1.00
H117   H     0.04046   0.92052   0.41555   0.00000  Uiso   1.00
H118   H     0.35224   0.31362   0.45298   0.00000  Uiso   1.00
H119   H     0.11405   0.26342   0.33909   0.00000  Uiso   1.00
H120   H     0.92777   0.64340   0.42170   0.00000  Uiso   1.00
H121   H     0.58517   0.47230   0.50062   0.00000  Uiso   1.00
H122   H     0.08291   0.36645   0.26046   0.00000  Uiso   1.00
H123   H     0.47576   0.11247   0.31682   0.00000  Uiso   1.00
H124   H     0.35552   0.86573   0.32754   0.00000  Uiso   1.00
H125   H     0.66730   0.25883   0.36498   0.00000  Uiso   1.00
H126   H     0.42911   0.20863   0.25109   0.00000  Uiso   1.00
H127   H     0.18349   0.59893   0.35027   0.00000  Uiso   1.00
H128   H     0.84090   0.42784   0.42920   0.00000  Uiso   1.00
H129   H     0.33863   0.32198   0.18904   0.00000  Uiso   1.00
O130   O     0.97116   0.45979   0.39456   0.00000  Uiso   1.00
O131   O     0.83365   0.54730   0.49810   0.00000  Uiso   1.00
O132   O     0.17469   0.40842   0.18301   0.00000  Uiso   1.00
N133   N     0.00444   0.66679   0.40341   0.00000  Uiso   1.00
N134   N     0.61907   0.44175   0.47721   0.00000  Uiso   1.00
N135   N     0.14952   0.34282   0.25268   0.00000  Uiso   1.00
N136   N     0.14204   0.64286   0.36498   0.00000  Uiso   1.00
N137   N     0.75667   0.41782   0.43877   0.00000  Uiso   1.00
N138   N     0.28712   0.31889   0.21424   0.00000  Uiso   1.00
C139   C     0.09301   0.84750   0.95220   0.00000  Uiso   1.00
C140   C     0.19990   0.98721   0.95546   0.00000  Uiso   1.00
C141   C     0.19980   0.09135   0.93678   0.00000  Uiso   1.00
C142   C     0.30666   0.21146   0.94353   0.00000  Uiso   1.00
C143   C     0.45697   0.42606   0.94484   0.00000  Uiso   1.00
C144   C     0.15573   0.77364   0.93511   0.00000  Uiso   1.00
C145   C     0.11847   0.69820   0.89934   0.00000  Uiso   1.00
C146   C     0.18815   0.63852   0.88897   0.00000  Uiso   1.00
C147   C     0.26981   0.52147   0.85871   0.00000  Uiso   1.00
C148   C     0.05359   0.80093   0.99699   0.00000  Uiso   1.00
C149   C     0.93045   0.74839   0.01325   0.00000  Uiso   1.00
C150   C     0.91412   0.71166   0.05498   0.00000  Uiso   1.00
C151   C     0.83719   0.63698   0.12080   0.00000  Uiso   1.00
C152   C     0.28296   0.87563   0.99740   0.00000  Uiso   1.00
C153   C     0.30307   0.00249   0.98001   0.00000  Uiso   1.00
C154   C     0.40996   0.12248   0.98679   0.00000  Uiso   1.00
C155   C     0.41002   0.22677   0.96813   0.00000  Uiso   1.00
C156   C     0.25890   0.78892   0.95966   0.00000  Uiso   1.00
C157   C     0.32864   0.72933   0.94935   0.00000  Uiso   1.00
C158   C     0.29151   0.65383   0.91356   0.00000  Uiso   1.00
C159   C     0.15676   0.81621   0.02155   0.00000  Uiso   1.00
C160   C     0.14062   0.77953   0.06326   0.00000  Uiso   1.00
C161   C     0.01748   0.72696   0.07957   0.00000  Uiso   1.00
H162   H     0.01269   0.83560   0.93308   0.00000  Uiso   1.00
H163   H     0.11994   0.07948   0.91778   0.00000  Uiso   1.00
H164   H     0.03862   0.68638   0.88035   0.00000  Uiso   1.00
H165   H     0.85063   0.73658   0.99424   0.00000  Uiso   1.00
H166   H     0.28437   0.35660   0.91163   0.00000  Uiso   1.00
H167   H     0.11288   0.52770   0.83271   0.00000  Uiso   1.00
H168   H     0.71646   0.63355   0.07287   0.00000  Uiso   1.00
H169   H     0.36329   0.88753   0.01651   0.00000  Uiso   1.00
H170   H     0.48979   0.13427   0.00579   0.00000  Uiso   1.00
H171   H     0.40847   0.74117   0.96835   0.00000  Uiso   1.00
H172   H     0.22048   0.79137   0.08224   0.00000  Uiso   1.00
H173   H     0.58456   0.40107   0.98306   0.00000  Uiso   1.00
H174   H     0.41306   0.57216   0.90414   0.00000  Uiso   1.00
H175   H     0.01664   0.67802   0.14430   0.00000  Uiso   1.00
O176   O     0.51137   0.54021   0.93878   0.00000  Uiso   1.00
O177   O     0.28636   0.45270   0.83524   0.00000  Uiso   1.00
O178   O     0.76627   0.59158   0.15032   0.00000  Uiso   1.00
N179   N     0.33765   0.33321   0.92992   0.00000  Uiso   1.00
N180   N     0.17733   0.55825   0.85613   0.00000  Uiso   1.00
N181   N     0.80670   0.65718   0.08066   0.00000  Uiso   1.00
N182   N     0.49918   0.35714   0.96836   0.00000  Uiso   1.00
N183   N     0.33885   0.58218   0.89456   0.00000  Uiso   1.00
N184   N     0.96823   0.68111   0.11909   0.00000  Uiso   1.00
C185   C     0.75449   0.90699   0.28553   0.00000  Uiso   1.00
C186   C     0.78731   0.80010   0.28879   0.00000  Uiso   1.00
C187   C     0.89155   0.80020   0.27012   0.00000  Uiso   1.00
C188   C     0.90480   0.69334   0.27687   0.00000  Uiso   1.00
C189   C     0.96910   0.54303   0.27818   0.00000  Uiso   1.00
C190   C     0.61792   0.84427   0.26845   0.00000  Uiso   1.00
C191   C     0.57973   0.88153   0.23267   0.00000  Uiso   1.00
C192   C     0.45037   0.81185   0.22230   0.00000  Uiso   1.00
C193   C     0.25166   0.73019   0.19204   0.00000  Uiso   1.00
C194   C     0.74734   0.94641   0.33033   0.00000  Uiso   1.00
C195   C     0.81795   0.06955   0.34658   0.00000  Uiso   1.00
C196   C     0.79754   0.08588   0.38831   0.00000  Uiso   1.00
C197   C     0.79978   0.16281   0.45413   0.00000  Uiso   1.00
C198   C     0.59267   0.71704   0.33073   0.00000  Uiso   1.00
C199   C     0.69941   0.69693   0.31334   0.00000  Uiso   1.00
C200   C     0.71251   0.59004   0.32012   0.00000  Uiso   1.00
C201   C     0.81675   0.58998   0.30146   0.00000  Uiso   1.00
C202   C     0.53002   0.74110   0.29300   0.00000  Uiso   1.00
C203   C     0.40069   0.67136   0.28268   0.00000  Uiso   1.00
C204   C     0.36232   0.70849   0.24690   0.00000  Uiso   1.00
C205   C     0.65945   0.84324   0.35488   0.00000  Uiso   1.00
C206   C     0.63892   0.85938   0.39659   0.00000  Uiso   1.00
C207   C     0.70948   0.98252   0.41290   0.00000  Uiso   1.00
H208   H     0.82291   0.98731   0.26642   0.00000  Uiso   1.00
H209   H     0.95954   0.88006   0.25112   0.00000  Uiso   1.00
H210   H     0.64776   0.96138   0.21368   0.00000  Uiso   1.00
H211   H     0.88595   0.14937   0.32757   0.00000  Uiso   1.00
H212   H     0.07223   0.71563   0.24497   0.00000  Uiso   1.00
H213   H     0.41483   0.88712   0.16604   0.00000  Uiso   1.00
H214   H     0.91709   0.28354   0.40620   0.00000  Uiso   1.00
H215   H     0.52424   0.63671   0.34984   0.00000  Uiso   1.00
H216   H     0.64448   0.51021   0.33912   0.00000  Uiso   1.00
H217   H     0.33270   0.59153   0.30169   0.00000  Uiso   1.00
H218   H     0.57089   0.77952   0.41558   0.00000  Uiso   1.00
H219   H     0.81651   0.41544   0.31639   0.00000  Uiso   1.00
H220   H     0.15910   0.58694   0.23747   0.00000  Uiso   1.00
H221   H     0.66137   0.98336   0.47763   0.00000  Uiso   1.00
O222   O     0.02884   0.48863   0.27211   0.00000  Uiso   1.00
O223   O     0.16635   0.71364   0.16857   0.00000  Uiso   1.00
O224   O     0.82531   0.23373   0.48365   0.00000  Uiso   1.00
N225   N     0.99556   0.66235   0.26326   0.00000  Uiso   1.00
N226   N     0.38093   0.82267   0.18946   0.00000  Uiso   1.00
N227   N     0.85048   0.19330   0.41399   0.00000  Uiso   1.00
N228   N     0.85796   0.50082   0.30169   0.00000  Uiso   1.00
N229   N     0.24333   0.66115   0.22790   0.00000  Uiso   1.00
N230   N     0.71288   0.03177   0.45242   0.00000  Uiso   1.00
C231   C     0.15250   0.24551   0.61886   0.00000  Uiso   1.00
C232   C     0.01279   0.21269   0.62212   0.00000  Uiso   1.00
C233   C     0.90865   0.10845   0.60345   0.00000  Uiso   1.00
C234   C     0.78854   0.09520   0.61020   0.00000  Uiso   1.00
C235   C     0.57394   0.03090   0.61151   0.00000  Uiso   1.00
C236   C     0.22636   0.38208   0.60178   0.00000  Uiso   1.00
C237   C     0.30180   0.42027   0.56601   0.00000  Uiso   1.00
C238   C     0.36148   0.54963   0.55564   0.00000  Uiso   1.00
C239   C     0.47853   0.74834   0.52538   0.00000  Uiso   1.00
C240   C     0.19907   0.25266   0.66366   0.00000  Uiso   1.00
C241   C     0.25161   0.18205   0.67991   0.00000  Uiso   1.00
C242   C     0.28834   0.20246   0.72164   0.00000  Uiso   1.00
C243   C     0.36302   0.20022   0.78746   0.00000  Uiso   1.00
C244   C     0.12437   0.40733   0.66406   0.00000  Uiso   1.00
C245   C     0.99751   0.30059   0.64667   0.00000  Uiso   1.00
C246   C     0.87752   0.28749   0.65346   0.00000  Uiso   1.00
C247   C     0.77323   0.18325   0.63480   0.00000  Uiso   1.00
C248   C     0.21108   0.46998   0.62633   0.00000  Uiso   1.00
C249   C     0.27067   0.59931   0.61601   0.00000  Uiso   1.00
C250   C     0.34617   0.63768   0.58023   0.00000  Uiso   1.00
C251   C     0.18379   0.34055   0.68821   0.00000  Uiso   1.00
C252   C     0.22047   0.36108   0.72992   0.00000  Uiso   1.00
C253   C     0.27304   0.29052   0.74624   0.00000  Uiso   1.00
H254   H     0.16440   0.17709   0.59975   0.00000  Uiso   1.00
H255   H     0.92052   0.04046   0.58445   0.00000  Uiso   1.00
H256   H     0.31362   0.35224   0.54702   0.00000  Uiso   1.00
H257   H     0.26342   0.11405   0.66091   0.00000  Uiso   1.00
H258   H     0.64340   0.92777   0.57830   0.00000  Uiso   1.00
H259   H     0.47230   0.58517   0.49938   0.00000  Uiso   1.00
H260   H     0.36645   0.08291   0.73954   0.00000  Uiso   1.00
H261   H     0.11247   0.47576   0.68318   0.00000  Uiso   1.00
H262   H     0.86573   0.35552   0.67246   0.00000  Uiso   1.00
H263   H     0.25883   0.66730   0.63502   0.00000  Uiso   1.00
H264   H     0.20863   0.42911   0.74891   0.00000  Uiso   1.00
H265   H     0.59893   0.18349   0.64973   0.00000  Uiso   1.00
H266   H     0.42784   0.84090   0.57080   0.00000  Uiso   1.00
H267   H     0.32198   0.33863   0.81096   0.00000  Uiso   1.00
O268   O     0.45979   0.97116   0.60544   0.00000  Uiso   1.00
O269   O     0.54730   0.83365   0.50190   0.00000  Uiso   1.00
O270   O     0.40842   0.17469   0.81699   0.00000  Uiso   1.00
N271   N     0.66679   0.00444   0.59659   0.00000  Uiso   1.00
N272   N     0.44175   0.61907   0.52279   0.00000  Uiso   1.00
N273   N     0.34282   0.14952   0.74732   0.00000  Uiso   1.00
N274   N     0.64286   0.14204   0.63502   0.00000  Uiso   1.00
N275   N     0.41782   0.75667   0.56123   0.00000  Uiso   1.00
N276   N     0.31889   0.28712   0.78576   0.00000  Uiso   1.00
