data_job_06592
_audit_creation_date              2018-12-19
_audit_creation_method            'Materials Studio'
_symmetry_space_group_name_H-M    'P1'
_symmetry_Int_Tables_number       1
_symmetry_cell_setting            triclinic
loop_
_symmetry_equiv_pos_as_xyz
  x,y,z
_cell_length_a                    21.7791
_cell_length_b                    22.0481
_cell_length_c                    23.3305
_cell_angle_alpha                 116.1854
_cell_angle_beta                  64.2051
_cell_angle_gamma                 117.3737
loop_
_atom_site_label
_atom_site_type_symbol
_atom_site_fract_x
_atom_site_fract_y
_atom_site_fract_z
_atom_site_U_iso_or_equiv
_atom_site_adp_type
_atom_site_occupancy
C1     C     0.66766   0.68220   0.12851   0.00000  Uiso   1.00
C2     C     0.61489   0.72190   0.15304   0.00000  Uiso   1.00
C3     C     0.62770   0.79453   0.18637   0.00000  Uiso   1.00
C4     C     0.57255   0.82060   0.20464   0.00000  Uiso   1.00
C5     C     0.50058   0.88909   0.24497   0.00000  Uiso   1.00
C6     C     0.62806   0.62181   0.16031   0.00000  Uiso   1.00
C7     C     0.65195   0.61029   0.19974   0.00000  Uiso   1.00
C8     C     0.60789   0.55209   0.22412   0.00000  Uiso   1.00
C9     C     0.55638   0.46516   0.27569   0.00000  Uiso   1.00
C10    C     0.67730   0.64609   0.05382   0.00000  Uiso   1.00
C11    C     0.74260   0.65496   0.00372   0.00000  Uiso   1.00
C12    C     0.73999   0.61718   0.93846   0.00000  Uiso   1.00
C13    C     0.76494   0.56795   0.82470   0.00000  Uiso   1.00
C14    C     0.54694   0.59933   0.10169   0.00000  Uiso   1.00
C15    C     0.54932   0.67689   0.13847   0.00000  Uiso   1.00
C16    C     0.49414   0.70285   0.15670   0.00000  Uiso   1.00
C17    C     0.50687   0.77551   0.19005   0.00000  Uiso   1.00
C18    C     0.56249   0.57681   0.14574   0.00000  Uiso   1.00
C19    C     0.51838   0.51861   0.17007   0.00000  Uiso   1.00
C20    C     0.54220   0.50700   0.20953   0.00000  Uiso   1.00
C21    C     0.61173   0.60108   0.03926   0.00000  Uiso   1.00
C22    C     0.60903   0.56328   0.97406   0.00000  Uiso   1.00
C23    C     0.67430   0.57209   0.92387   0.00000  Uiso   1.00
H24    H     0.71871   0.71723   0.13985   0.00000  Uiso   1.00
H25    H     0.67845   0.82935   0.19764   0.00000  Uiso   1.00
H26    H     0.70270   0.64512   0.21100   0.00000  Uiso   1.00
H27    H     0.79333   0.68979   0.01502   0.00000  Uiso   1.00
H28    H     0.60489   0.93379   0.25529   0.00000  Uiso   1.00
H29    H     0.65602   0.54533   0.28345   0.00000  Uiso   1.00
H30    H     0.84714   0.63952   0.87018   0.00000  Uiso   1.00
H31    H     0.49589   0.56429   0.09035   0.00000  Uiso   1.00
H32    H     0.44340   0.66801   0.14542   0.00000  Uiso   1.00
H33    H     0.46765   0.48379   0.15878   0.00000  Uiso   1.00
H34    H     0.55828   0.52846   0.96280   0.00000  Uiso   1.00
H35    H     0.41411   0.80284   0.21292   0.00000  Uiso   1.00
H36    H     0.46525   0.41438   0.24107   0.00000  Uiso   1.00
H37    H     0.65636   0.50857   0.82781   0.00000  Uiso   1.00
O38    O     0.47899   0.93930   0.27124   0.00000  Uiso   1.00
O39    O     0.54608   0.42966   0.30817   0.00000  Uiso   1.00
O40    O     0.79681   0.55323   0.76598   0.00000  Uiso   1.00
N41    N     0.56720   0.88874   0.23775   0.00000  Uiso   1.00
N42    N     0.61500   0.52556   0.26409   0.00000  Uiso   1.00
N43    N     0.79368   0.61360   0.87772   0.00000  Uiso   1.00
N44    N     0.46455   0.81828   0.21495   0.00000  Uiso   1.00
N45    N     0.51235   0.45510   0.24128   0.00000  Uiso   1.00
N46    N     0.69102   0.54314   0.85491   0.00000  Uiso   1.00
C47    C     0.16606   0.96519   0.09356   0.00000  Uiso   1.00
C48    C     0.14643   0.91513   0.13226   0.00000  Uiso   1.00
C49    C     0.07780   0.88543   0.17098   0.00000  Uiso   1.00
C50    C     0.07105   0.84098   0.20241   0.00000  Uiso   1.00
C51    C     0.03148   0.76544   0.26361   0.00000  Uiso   1.00
C52    C     0.22496   0.03273   0.11832   0.00000  Uiso   1.00
C53    C     0.22236   0.10189   0.14530   0.00000  Uiso   1.00
C54    C     0.28171   0.15643   0.16499   0.00000  Uiso   1.00
C55    C     0.36408   0.26346   0.20448   0.00000  Uiso   1.00
C56    C     0.20221   0.92981   0.02118   0.00000  Uiso   1.00
C57    C     0.18050   0.91246   0.96648   0.00000  Uiso   1.00
C58    C     0.22071   0.88037   0.90438   0.00000  Uiso   1.00
C59    C     0.26776   0.82762   0.79305   0.00000  Uiso   1.00
C60    C     0.27610   0.93907   0.08052   0.00000  Uiso   1.00
C61    C     0.20620   0.90095   0.12517   0.00000  Uiso   1.00
C62    C     0.19955   0.85653   0.15655   0.00000  Uiso   1.00
C63    C     0.13092   0.82676   0.19531   0.00000  Uiso   1.00
C64    C     0.28472   0.01854   0.11123   0.00000  Uiso   1.00
C65    C     0.34410   0.07299   0.13087   0.00000  Uiso   1.00
C66    C     0.34159   0.14222   0.15789   0.00000  Uiso   1.00
C67    C     0.26198   0.91562   0.01409   0.00000  Uiso   1.00
C68    C     0.30224   0.88356   0.95206   0.00000  Uiso   1.00
C69    C     0.28059   0.86616   0.89728   0.00000  Uiso   1.00
H70    H     0.11953   0.97624   0.09908   0.00000  Uiso   1.00
H71    H     0.03156   0.89643   0.17646   0.00000  Uiso   1.00
H72    H     0.17610   0.11286   0.15078   0.00000  Uiso   1.00
H73    H     0.13424   0.92345   0.97199   0.00000  Uiso   1.00
H74    H     0.96039   0.80171   0.25914   0.00000  Uiso   1.00
H75    H     0.26517   0.25806   0.20497   0.00000  Uiso   1.00
H76    H     0.17691   0.85867   0.82796   0.00000  Uiso   1.00
H77    H     0.32263   0.92802   0.07500   0.00000  Uiso   1.00
H78    H     0.24581   0.84556   0.15106   0.00000  Uiso   1.00
H79    H     0.39034   0.06199   0.12538   0.00000  Uiso   1.00
H80    H     0.34849   0.87259   0.94659   0.00000  Uiso   1.00
H81    H     0.13428   0.76042   0.23853   0.00000  Uiso   1.00
H82    H     0.43906   0.21677   0.18436   0.00000  Uiso   1.00
H83    H     0.35080   0.81738   0.80734   0.00000  Uiso   1.00
O84    O     0.99314   0.72771   0.29933   0.00000  Uiso   1.00
O85    O     0.39299   0.32642   0.22824   0.00000  Uiso   1.00
O86    O     0.27720   0.80243   0.73361   0.00000  Uiso   1.00
N87    N     0.01186   0.80330   0.24384   0.00000  Uiso   1.00
N88    N     0.29680   0.22995   0.19320   0.00000  Uiso   1.00
N89    N     0.21429   0.85658   0.84073   0.00000  Uiso   1.00
N90    N     0.10543   0.78108   0.23275   0.00000  Uiso   1.00
N91    N     0.39037   0.20774   0.18211   0.00000  Uiso   1.00
N92    N     0.30786   0.83436   0.82963   0.00000  Uiso   1.00
C93    C     0.99605   0.35157   0.10320   0.00000  Uiso   1.00
C94    C     0.07291   0.40370   0.09984   0.00000  Uiso   1.00
C95    C     0.12007   0.40462   0.12565   0.00000  Uiso   1.00
C96    C     0.18805   0.45655   0.11747   0.00000  Uiso   1.00
C97    C     0.30434   0.53003   0.11728   0.00000  Uiso   1.00
C98    C     0.94748   0.39761   0.13712   0.00000  Uiso   1.00
C99    C     0.88917   0.39340   0.19426   0.00000  Uiso   1.00
C100   C     0.85155   0.44020   0.21745   0.00000  Uiso   1.00
C101   C     0.77307   0.50419   0.27509   0.00000  Uiso   1.00
C102   C     0.99303   0.31550   0.03124   0.00000  Uiso   1.00
C103   C     0.97299   0.24226   0.99936   0.00000  Uiso   1.00
C104   C     0.97370   0.21993   0.93341   0.00000  Uiso   1.00
C105   C     0.96594   0.15644   0.82666   0.00000  Uiso   1.00
C106   C     0.03293   0.44217   0.04277   0.00000  Uiso   1.00
C107   C     0.09294   0.45291   0.06702   0.00000  Uiso   1.00
C108   C     0.16087   0.50486   0.05879   0.00000  Uiso   1.00
C109   C     0.20812   0.50585   0.08459   0.00000  Uiso   1.00
C110   C     0.96751   0.44682   0.10430   0.00000  Uiso   1.00
C111   C     0.92997   0.49364   0.12740   0.00000  Uiso   1.00
C112   C     0.87162   0.48950   0.18456   0.00000  Uiso   1.00
C113   C     0.01306   0.36471   0.99841   0.00000  Uiso   1.00
C114   C     0.01380   0.34250   0.93250   0.00000  Uiso   1.00
C115   C     0.99377   0.26923   0.90053   0.00000  Uiso   1.00
H116   H     0.98045   0.31326   0.12876   0.00000  Uiso   1.00
H117   H     0.10454   0.36653   0.15106   0.00000  Uiso   1.00
H118   H     0.87367   0.35531   0.21964   0.00000  Uiso   1.00
H119   H     0.95749   0.20419   0.02477   0.00000  Uiso   1.00
H120   H     0.25095   0.44730   0.16132   0.00000  Uiso   1.00
H121   H     0.76413   0.42362   0.30593   0.00000  Uiso   1.00
H122   H     0.94087   0.10496   0.89502   0.00000  Uiso   1.00
H123   H     0.04852   0.48049   0.01722   0.00000  Uiso   1.00
H124   H     0.17636   0.54293   0.03339   0.00000  Uiso   1.00
H125   H     0.94548   0.53171   0.10199   0.00000  Uiso   1.00
H126   H     0.02930   0.38059   0.90712   0.00000  Uiso   1.00
H127   H     0.30923   0.59048   0.06583   0.00000  Uiso   1.00
H128   H     0.82241   0.56680   0.21044   0.00000  Uiso   1.00
H129   H     0.99916   0.24814   0.79952   0.00000  Uiso   1.00
O130   O     0.36294   0.55697   0.12625   0.00000  Uiso   1.00
O131   O     0.72425   0.52589   0.31596   0.00000  Uiso   1.00
O132   O     0.95614   0.10782   0.77685   0.00000  Uiso   1.00
N133   N     0.24713   0.47242   0.13662   0.00000  Uiso   1.00
N134   N     0.79199   0.45029   0.27183   0.00000  Uiso   1.00
N135   N     0.95721   0.15237   0.88766   0.00000  Uiso   1.00
N136   N     0.27849   0.54946   0.08523   0.00000  Uiso   1.00
N137   N     0.82335   0.52733   0.22044   0.00000  Uiso   1.00
N138   N     0.98857   0.22941   0.83627   0.00000  Uiso   1.00
C139   C     0.36158   0.14930   0.63604   0.00000  Uiso   1.00
C140   C     0.42974   0.19020   0.65865   0.00000  Uiso   1.00
C141   C     0.44660   0.25941   0.70173   0.00000  Uiso   1.00
C142   C     0.51156   0.28731   0.71626   0.00000  Uiso   1.00
C143   C     0.61032   0.35688   0.75558   0.00000  Uiso   1.00
C144   C     0.32623   0.08009   0.65471   0.00000  Uiso   1.00
C145   C     0.25604   0.05671   0.69448   0.00000  Uiso   1.00
C146   C     0.23386   0.99192   0.70569   0.00000  Uiso   1.00
C147   C     0.17189   0.89051   0.73886   0.00000  Uiso   1.00
C148   C     0.38729   0.12723   0.55995   0.00000  Uiso   1.00
C149   C     0.36844   0.14347   0.52003   0.00000  Uiso   1.00
C150   C     0.39766   0.11834   0.45145   0.00000  Uiso   1.00
C151   C     0.43050   0.09013   0.33748   0.00000  Uiso   1.00
C152   C     0.44697   0.07579   0.58522   0.00000  Uiso   1.00
C153   C     0.47612   0.15027   0.63104   0.00000  Uiso   1.00
C154   C     0.54107   0.17808   0.64550   0.00000  Uiso   1.00
C155   C     0.55802   0.24731   0.68860   0.00000  Uiso   1.00
C156   C     0.37260   0.04016   0.62711   0.00000  Uiso   1.00
C157   C     0.35051   0.97538   0.63825   0.00000  Uiso   1.00
C158   C     0.28032   0.95191   0.67803   0.00000  Uiso   1.00
C159   C     0.43367   0.08730   0.53234   0.00000  Uiso   1.00
C160   C     0.46291   0.06214   0.46380   0.00000  Uiso   1.00
C161   C     0.44412   0.07834   0.42379   0.00000  Uiso   1.00
H162   H     0.32547   0.18038   0.65754   0.00000  Uiso   1.00
H163   H     0.41069   0.29029   0.72309   0.00000  Uiso   1.00
H164   H     0.22017   0.08762   0.71583   0.00000  Uiso   1.00
H165   H     0.33255   0.17437   0.54141   0.00000  Uiso   1.00
H166   H     0.52561   0.39452   0.78362   0.00000  Uiso   1.00
H167   H     0.12387   0.96717   0.76830   0.00000  Uiso   1.00
H168   H     0.36085   0.15009   0.40049   0.00000  Uiso   1.00
H169   H     0.48307   0.04470   0.56373   0.00000  Uiso   1.00
H170   H     0.57694   0.14716   0.62413   0.00000  Uiso   1.00
H171   H     0.38642   0.94449   0.61688   0.00000  Uiso   1.00
H172   H     0.49880   0.03124   0.44246   0.00000  Uiso   1.00
H173   H     0.66055   0.27836   0.70330   0.00000  Uiso   1.00
H174   H     0.25880   0.85100   0.68798   0.00000  Uiso   1.00
H175   H     0.49579   0.03393   0.32018   0.00000  Uiso   1.00
O176   O     0.65197   0.40628   0.78491   0.00000  Uiso   1.00
O177   O     0.12490   0.84561   0.76480   0.00000  Uiso   1.00
O178   O     0.43582   0.08560   0.28225   0.00000  Uiso   1.00
N179   N     0.54449   0.35313   0.75641   0.00000  Uiso   1.00
N180   N     0.16889   0.95359   0.74210   0.00000  Uiso   1.00
N181   N     0.39043   0.12458   0.39823   0.00000  Uiso   1.00
N182   N     0.61710   0.29062   0.71320   0.00000  Uiso   1.00
N183   N     0.24150   0.89108   0.69888   0.00000  Uiso   1.00
N184   N     0.46304   0.06208   0.35502   0.00000  Uiso   1.00
C185   C     0.12860   0.55457   0.59958   0.00000  Uiso   1.00
C186   C     0.09134   0.48774   0.62229   0.00000  Uiso   1.00
C187   C     0.11420   0.47159   0.65924   0.00000  Uiso   1.00
C188   C     0.07266   0.40783   0.67502   0.00000  Uiso   1.00
C189   C     0.02423   0.31106   0.71342   0.00000  Uiso   1.00
C190   C     0.07169   0.59017   0.62677   0.00000  Uiso   1.00
C191   C     0.07805   0.66014   0.66748   0.00000  Uiso   1.00
C192   C     0.01998   0.68260   0.68701   0.00000  Uiso   1.00
C193   C     0.94108   0.74487   0.73232   0.00000  Uiso   1.00
C194   C     0.14435   0.52789   0.52387   0.00000  Uiso   1.00
C195   C     0.21179   0.54551   0.47806   0.00000  Uiso   1.00
C196   C     0.21488   0.51555   0.41096   0.00000  Uiso   1.00
C197   C     0.24879   0.48112   0.29651   0.00000  Uiso   1.00
C198   C     0.01417   0.47006   0.56189   0.00000  Uiso   1.00
C199   C     0.02918   0.44184   0.60181   0.00000  Uiso   1.00
C200   C     0.98760   0.37808   0.61753   0.00000  Uiso   1.00
C201   C     0.01040   0.36184   0.65451   0.00000  Uiso   1.00
C202   C     0.00954   0.54427   0.60629   0.00000  Uiso   1.00
C203   C     0.95145   0.56663   0.62577   0.00000  Uiso   1.00
C204   C     0.95771   0.63662   0.66650   0.00000  Uiso   1.00
C205   C     0.08219   0.48198   0.50339   0.00000  Uiso   1.00
C206   C     0.08518   0.45200   0.43635   0.00000  Uiso   1.00
C207   C     0.15261   0.46956   0.39045   0.00000  Uiso   1.00
H208   H     0.17699   0.59031   0.61553   0.00000  Uiso   1.00
H209   H     0.16230   0.50713   0.67509   0.00000  Uiso   1.00
H210   H     0.12616   0.69566   0.68331   0.00000  Uiso   1.00
H211   H     0.25987   0.58103   0.49393   0.00000  Uiso   1.00
H212   H     0.11859   0.39468   0.73211   0.00000  Uiso   1.00
H213   H     0.04240   0.79220   0.74943   0.00000  Uiso   1.00
H214   H     0.32436   0.55050   0.35008   0.00000  Uiso   1.00
H215   H     0.96578   0.43432   0.54594   0.00000  Uiso   1.00
H216   H     0.93950   0.34257   0.60168   0.00000  Uiso   1.00
H217   H     0.90336   0.53110   0.60991   0.00000  Uiso   1.00
H218   H     0.03707   0.41648   0.42053   0.00000  Uiso   1.00
H219   H     0.93776   0.26111   0.67254   0.00000  Uiso   1.00
H220   H     0.86157   0.65864   0.68985   0.00000  Uiso   1.00
H221   H     0.14353   0.41694   0.29050   0.00000  Uiso   1.00
O222   O     0.01469   0.27037   0.74026   0.00000  Uiso   1.00
O223   O     0.91473   0.79190   0.76298   0.00000  Uiso   1.00
O224   O     0.28466   0.47480   0.23904   0.00000  Uiso   1.00
N225   N     0.07965   0.37583   0.71043   0.00000  Uiso   1.00
N226   N     0.00841   0.74748   0.72663   0.00000  Uiso   1.00
N227   N     0.27201   0.52153   0.35327   0.00000  Uiso   1.00
N228   N     0.98234   0.30396   0.67837   0.00000  Uiso   1.00
N229   N     0.91110   0.67561   0.69457   0.00000  Uiso   1.00
N230   N     0.17471   0.44966   0.32121   0.00000  Uiso   1.00
C231   C     0.74928   0.82547   0.61183   0.00000  Uiso   1.00
C232   C     0.70804   0.87764   0.64047   0.00000  Uiso   1.00
C233   C     0.63844   0.86857   0.68381   0.00000  Uiso   1.00
C234   C     0.61027   0.92242   0.70432   0.00000  Uiso   1.00
C235   C     0.54016   0.99420   0.75216   0.00000  Uiso   1.00
C236   C     0.81948   0.86832   0.63105   0.00000  Uiso   1.00
C237   C     0.84357   0.85141   0.66646   0.00000  Uiso   1.00
C238   C     0.90922   0.89741   0.67903   0.00000  Uiso   1.00
C239   C     0.01215   0.95470   0.71220   0.00000  Uiso   1.00
C240   C     0.77085   0.80705   0.53613   0.00000  Uiso   1.00
C241   C     0.75409   0.73861   0.49173   0.00000  Uiso   1.00
C242   C     0.77882   0.73302   0.42438   0.00000  Uiso   1.00
C243   C     0.80625   0.69517   0.31019   0.00000  Uiso   1.00
C244   C     0.82302   0.93722   0.57118   0.00000  Uiso   1.00
C245   C     0.74809   0.93834   0.61839   0.00000  Uiso   1.00
C246   C     0.72003   0.99221   0.63883   0.00000  Uiso   1.00
C247   C     0.65040   0.98322   0.68219   0.00000  Uiso   1.00
C248   C     0.85953   0.92902   0.60897   0.00000  Uiso   1.00
C249   C     0.92516   0.97505   0.62148   0.00000  Uiso   1.00
C250   C     0.94935   0.95822   0.65690   0.00000  Uiso   1.00
C251   C     0.81091   0.86775   0.51405   0.00000  Uiso   1.00
C252   C     0.83568   0.86226   0.44675   0.00000  Uiso   1.00
C253   C     0.81895   0.79383   0.40226   0.00000  Uiso   1.00
H254   H     0.71810   0.77822   0.62903   0.00000  Uiso   1.00
H255   H     0.60746   0.82159   0.70089   0.00000  Uiso   1.00
H256   H     0.81257   0.80443   0.68354   0.00000  Uiso   1.00
H257   H     0.72309   0.69166   0.50884   0.00000  Uiso   1.00
H258   H     0.50247   0.89646   0.77085   0.00000  Uiso   1.00
H259   H     0.93497   0.86027   0.73423   0.00000  Uiso   1.00
H260   H     0.74630   0.62245   0.36585   0.00000  Uiso   1.00
H261   H     0.85421   0.98448   0.55399   0.00000  Uiso   1.00
H262   H     0.75104   0.03918   0.62173   0.00000  Uiso   1.00
H263   H     0.95615   0.02202   0.60438   0.00000  Uiso   1.00
H264   H     0.86667   0.90924   0.42968   0.00000  Uiso   1.00
H265   H     0.61901   0.07306   0.70660   0.00000  Uiso   1.00
H266   H     0.05150   0.03686   0.66999   0.00000  Uiso   1.00
H267   H     0.86283   0.79905   0.30160   0.00000  Uiso   1.00
O268   O     0.49042   0.01703   0.78466   0.00000  Uiso   1.00
O269   O     0.05784   0.96953   0.73661   0.00000  Uiso   1.00
O270   O     0.81031   0.65753   0.25330   0.00000  Uiso   1.00
N271   N     0.54405   0.93051   0.74642   0.00000  Uiso   1.00
N272   N     0.94840   0.89668   0.71220   0.00000  Uiso   1.00
N273   N     0.77203   0.67434   0.36778   0.00000  Uiso   1.00
N274   N     0.60676   0.02554   0.71185   0.00000  Uiso   1.00
N275   N     0.01111   0.99170   0.67763   0.00000  Uiso   1.00
N276   N     0.83474   0.76936   0.33321   0.00000  Uiso   1.00
C277   C     0.31608   0.26366   0.91610   0.00000  Uiso   1.00
C278   C     0.39077   0.25954   0.89724   0.00000  Uiso   1.00
C279   C     0.41537   0.20381   0.84887   0.00000  Uiso   1.00
C280   C     0.48541   0.21015   0.83908   0.00000  Uiso   1.00
C281   C     0.59473   0.19465   0.80410   0.00000  Uiso   1.00
C282   C     0.32894   0.33345   0.90717   0.00000  Uiso   1.00
C283   C     0.30156   0.33986   0.86715   0.00000  Uiso   1.00
C284   C     0.31955   0.40842   0.86572   0.00000  Uiso   1.00
C285   C     0.33284   0.50767   0.84619   0.00000  Uiso   1.00
C286   C     0.28379   0.27362   0.99092   0.00000  Uiso   1.00
C287   C     0.21843   0.22974   0.02133   0.00000  Uiso   1.00
C288   C     0.19841   0.24793   0.09042   0.00000  Uiso   1.00
C289   C     0.14160   0.25429   0.20093   0.00000  Uiso   1.00
C290   C     0.39672   0.37402   0.98473   0.00000  Uiso   1.00
C291   C     0.43457   0.31948   0.93452   0.00000  Uiso   1.00
C292   C     0.50459   0.32590   0.92480   0.00000  Uiso   1.00
C293   C     0.52929   0.27019   0.87642   0.00000  Uiso   1.00
C294   C     0.37274   0.39339   0.94444   0.00000  Uiso   1.00
C295   C     0.39077   0.46195   0.94308   0.00000  Uiso   1.00
C296   C     0.36343   0.46847   0.90307   0.00000  Uiso   1.00
C297   C     0.32759   0.33356   0.02820   0.00000  Uiso   1.00
C298   C     0.30766   0.35183   0.09726   0.00000  Uiso   1.00
C299   C     0.24228   0.30798   0.12776   0.00000  Uiso   1.00
H300   H     0.28198   0.21700   0.88708   0.00000  Uiso   1.00
H301   H     0.38146   0.15744   0.82003   0.00000  Uiso   1.00
H302   H     0.26766   0.29347   0.83831   0.00000  Uiso   1.00
H303   H     0.18456   0.18336   0.99246   0.00000  Uiso   1.00
H304   H     0.51108   0.11785   0.76211   0.00000  Uiso   1.00
H305   H     0.27110   0.40468   0.80068   0.00000  Uiso   1.00
H306   H     0.09586   0.17249   0.12574   0.00000  Uiso   1.00
H307   H     0.43082   0.42068   0.01376   0.00000  Uiso   1.00
H308   H     0.53847   0.37229   0.95366   0.00000  Uiso   1.00
H309   H     0.42467   0.50833   0.97194   0.00000  Uiso   1.00
H310   H     0.34156   0.39822   0.12609   0.00000  Uiso   1.00
H311   H     0.63851   0.29223   0.87057   0.00000  Uiso   1.00
H312   H     0.39853   0.57907   0.90914   0.00000  Uiso   1.00
H313   H     0.22329   0.34688   0.23420   0.00000  Uiso   1.00
O314   O     0.64293   0.16954   0.77450   0.00000  Uiso   1.00
O315   O     0.32808   0.54586   0.82511   0.00000  Uiso   1.00
O316   O     0.09817   0.24123   0.25159   0.00000  Uiso   1.00
N317   N     0.52629   0.16552   0.79589   0.00000  Uiso   1.00
N318   N     0.30194   0.43369   0.83194   0.00000  Uiso   1.00
N319   N     0.13809   0.21663   0.13585   0.00000  Uiso   1.00
N320   N     0.59486   0.25936   0.85425   0.00000  Uiso   1.00
N321   N     0.37051   0.52753   0.89030   0.00000  Uiso   1.00
N322   N     0.20666   0.31047   0.19421   0.00000  Uiso   1.00
C323   C     0.71266   0.93460   0.88763   0.00000  Uiso   1.00
C324   C     0.72345   0.98919   0.85779   0.00000  Uiso   1.00
C325   C     0.78892   0.02676   0.82122   0.00000  Uiso   1.00
C326   C     0.78743   0.07427   0.79825   0.00000  Uiso   1.00
C327   C     0.81401   0.15756   0.74990   0.00000  Uiso   1.00
C328   C     0.65703   0.86567   0.85956   0.00000  Uiso   1.00
C329   C     0.66664   0.79938   0.82448   0.00000  Uiso   1.00
C330   C     0.60922   0.74292   0.80300   0.00000  Uiso   1.00
C331   C     0.53266   0.63443   0.75743   0.00000  Uiso   1.00
C332   C     0.67592   0.96097   0.96213   0.00000  Uiso   1.00
C333   C     0.70141   0.97479   0.01330   0.00000  Uiso   1.00
C334   C     0.65989   0.99854   0.07818   0.00000  Uiso   1.00
C335   C     0.61267   0.03801   0.19187   0.00000  Uiso   1.00
C336   C     0.59361   0.95217   0.91187   0.00000  Uiso   1.00
C337   C     0.65879   0.99873   0.87096   0.00000  Uiso   1.00
C338   C     0.65720   0.04621   0.84804   0.00000  Uiso   1.00
C339   C     0.72265   0.08384   0.81144   0.00000  Uiso   1.00
C340   C     0.59236   0.87522   0.87272   0.00000  Uiso   1.00
C341   C     0.53492   0.81883   0.85130   0.00000  Uiso   1.00
C342   C     0.54444   0.75248   0.81619   0.00000  Uiso   1.00
C343   C     0.61125   0.97052   0.97530   0.00000  Uiso   1.00
C344   C     0.56969   0.99424   0.04012   0.00000  Uiso   1.00
C345   C     0.59511   0.00810   0.09137   0.00000  Uiso   1.00
H346   H     0.76301   0.92716   0.87737   0.00000  Uiso   1.00
H347   H     0.83895   0.01935   0.81104   0.00000  Uiso   1.00
H348   H     0.71668   0.79201   0.81430   0.00000  Uiso   1.00
H349   H     0.75145   0.96739   0.00309   0.00000  Uiso   1.00
H350   H     0.89462   0.12575   0.74328   0.00000  Uiso   1.00
H351   H     0.63681   0.64639   0.75018   0.00000  Uiso   1.00
H352   H     0.71012   0.01622   0.14828   0.00000  Uiso   1.00
H353   H     0.54326   0.95960   0.92212   0.00000  Uiso   1.00
H354   H     0.60715   0.05358   0.85824   0.00000  Uiso   1.00
H355   H     0.48488   0.82624   0.86150   0.00000  Uiso   1.00
H356   H     0.51965   0.00162   0.05029   0.00000  Uiso   1.00
H357   H     0.70648   0.15353   0.78158   0.00000  Uiso   1.00
H358   H     0.44867   0.67417   0.78849   0.00000  Uiso   1.00
H359   H     0.52198   0.04400   0.18659   0.00000  Uiso   1.00
O360   O     0.84654   0.20086   0.71958   0.00000  Uiso   1.00
O361   O     0.50830   0.57196   0.72865   0.00000  Uiso   1.00
O362   O     0.60448   0.05716   0.25094   0.00000  Uiso   1.00
N363   N     0.84158   0.11940   0.76107   0.00000  Uiso   1.00
N364   N     0.60055   0.67123   0.76751   0.00000  Uiso   1.00
N365   N     0.66908   0.01697   0.13970   0.00000  Uiso   1.00
N366   N     0.74034   0.13435   0.78168   0.00000  Uiso   1.00
N367   N     0.49931   0.68618   0.78813   0.00000  Uiso   1.00
N368   N     0.56784   0.03192   0.16032   0.00000  Uiso   1.00
C369   C     0.01222   0.62230   0.84520   0.00000  Uiso   1.00
C370   C     0.96111   0.54689   0.82193   0.00000  Uiso   1.00
C371   C     0.91878   0.52595   0.78165   0.00000  Uiso   1.00
C372   C     0.87564   0.45451   0.76593   0.00000  Uiso   1.00
C373   C     0.79642   0.34482   0.72615   0.00000  Uiso   1.00
C374   C     0.08629   0.61507   0.82239   0.00000  Uiso   1.00
C375   C     0.14922   0.65147   0.78249   0.00000  Uiso   1.00
C376   C     0.21146   0.63742   0.76717   0.00000  Uiso   1.00
C377   C     0.32660   0.63363   0.72814   0.00000  Uiso   1.00
C378   C     0.98834   0.64349   0.92125   0.00000  Uiso   1.00
C379   C     0.96892   0.70379   0.96448   0.00000  Uiso   1.00
C380   C     0.94871   0.71369   0.03239   0.00000  Uiso   1.00
C381   C     0.91176   0.75402   0.14686   0.00000  Uiso   1.00
C382   C     0.01087   0.53265   0.88892   0.00000  Uiso   1.00
C383   C     0.96038   0.49820   0.84568   0.00000  Uiso   1.00
C384   C     0.91729   0.42677   0.83002   0.00000  Uiso   1.00
C385   C     0.87490   0.40573   0.78972   0.00000  Uiso   1.00
C386   C     0.08556   0.56638   0.84613   0.00000  Uiso   1.00
C387   C     0.14773   0.55229   0.83087   0.00000  Uiso   1.00
C388   C     0.21073   0.58864   0.79096   0.00000  Uiso   1.00
C389   C     0.98760   0.59480   0.94500   0.00000  Uiso   1.00
C390   C     0.96742   0.60461   0.01285   0.00000  Uiso   1.00
C391   C     0.94798   0.66491   0.05618   0.00000  Uiso   1.00
H392   H     0.01280   0.66021   0.82671   0.00000  Uiso   1.00
H393   H     0.91937   0.56365   0.76327   0.00000  Uiso   1.00
H394   H     0.14977   0.68915   0.76413   0.00000  Uiso   1.00
H395   H     0.96950   0.74146   0.94608   0.00000  Uiso   1.00
H396   H     0.81549   0.43512   0.70339   0.00000  Uiso   1.00
H397   H     0.30131   0.69976   0.70521   0.00000  Uiso   1.00
H398   H     0.92117   0.81008   0.08890   0.00000  Uiso   1.00
H399   H     0.01030   0.49475   0.90741   0.00000  Uiso   1.00
H400   H     0.91673   0.38910   0.84840   0.00000  Uiso   1.00
H401   H     0.14714   0.51461   0.84926   0.00000  Uiso   1.00
H402   H     0.96686   0.56692   0.03121   0.00000  Uiso   1.00
H403   H     0.81335   0.29345   0.77248   0.00000  Uiso   1.00
H404   H     0.29917   0.55810   0.77430   0.00000  Uiso   1.00
H405   H     0.91903   0.66841   0.15800   0.00000  Uiso   1.00
O406   O     0.75293   0.29777   0.69765   0.00000  Uiso   1.00
O407   O     0.39031   0.64498   0.70004   0.00000  Uiso   1.00
O408   O     0.89157   0.78971   0.20344   0.00000  Uiso   1.00
N409   N     0.82781   0.41628   0.72776   0.00000  Uiso   1.00
N410   N     0.28203   0.66369   0.72945   0.00000  Uiso   1.00
N411   N     0.92664   0.76684   0.08817   0.00000  Uiso   1.00
N412   N     0.82666   0.34005   0.76494   0.00000  Uiso   1.00
N413   N     0.28088   0.58746   0.76663   0.00000  Uiso   1.00
N414   N     0.92549   0.69061   0.12535   0.00000  Uiso   1.00
C415   C     0.53393   0.73827   0.38195   0.00000  Uiso   1.00
C416   C     0.47592   0.73487   0.35960   0.00000  Uiso   1.00
C417   C     0.43648   0.67449   0.31974   0.00000  Uiso   1.00
C418   C     0.38590   0.68242   0.30487   0.00000  Uiso   1.00
C419   C     0.29749   0.66712   0.26646   0.00000  Uiso   1.00
C420   C     0.60202   0.79703   0.35870   0.00000  Uiso   1.00
C421   C     0.66861   0.78891   0.31809   0.00000  Uiso   1.00
C422   C     0.72419   0.84917   0.30247   0.00000  Uiso   1.00
C423   C     0.83156   0.93038   0.26270   0.00000  Uiso   1.00
C424   C     0.51035   0.76613   0.45802   0.00000  Uiso   1.00
C425   C     0.49988   0.73205   0.50091   0.00000  Uiso   1.00
C426   C     0.47830   0.76630   0.56891   0.00000  Uiso   1.00
C427   C     0.44334   0.79954   0.68334   0.00000  Uiso   1.00
C428   C     0.51424   0.85972   0.42642   0.00000  Uiso   1.00
C429   C     0.46523   0.80084   0.38375   0.00000  Uiso   1.00
C430   C     0.41470   0.80886   0.36894   0.00000  Uiso   1.00
C431   C     0.37519   0.74851   0.32906   0.00000  Uiso   1.00
C432   C     0.59133   0.86300   0.38285   0.00000  Uiso   1.00
C433   C     0.64683   0.92328   0.36729   0.00000  Uiso   1.00
C434   C     0.71348   0.91525   0.32666   0.00000  Uiso   1.00
C435   C     0.49966   0.83210   0.48217   0.00000  Uiso   1.00
C436   C     0.47809   0.86642   0.55011   0.00000  Uiso   1.00
C437   C     0.46759   0.83239   0.59310   0.00000  Uiso   1.00
H438   H     0.54226   0.68691   0.36315   0.00000  Uiso   1.00
H439   H     0.44478   0.62345   0.30106   0.00000  Uiso   1.00
H440   H     0.67687   0.73786   0.29941   0.00000  Uiso   1.00
H441   H     0.50817   0.68100   0.48221   0.00000  Uiso   1.00
H442   H     0.33200   0.58219   0.24285   0.00000  Uiso   1.00
H443   H     0.82140   0.82342   0.23940   0.00000  Uiso   1.00
H444   H     0.46565   0.70353   0.62486   0.00000  Uiso   1.00
H445   H     0.50591   0.91108   0.44522   0.00000  Uiso   1.00
H446   H     0.40643   0.85992   0.38764   0.00000  Uiso   1.00
H447   H     0.63853   0.97432   0.38599   0.00000  Uiso   1.00
H448   H     0.46982   0.91747   0.56878   0.00000  Uiso   1.00
H449   H     0.30088   0.77412   0.31312   0.00000  Uiso   1.00
H450   H     0.79028   0.01535   0.30967   0.00000  Uiso   1.00
H451   H     0.43453   0.89546   0.69512   0.00000  Uiso   1.00
O452   O     0.25168   0.64046   0.23860   0.00000  Uiso   1.00
O453   O     0.89374   0.95695   0.23409   0.00000  Uiso   1.00
O454   O     0.42700   0.79965   0.73979   0.00000  Uiso   1.00
N455   N     0.33832   0.63438   0.26730   0.00000  Uiso   1.00
N456   N     0.79587   0.85991   0.26407   0.00000  Uiso   1.00
N457   N     0.46330   0.74783   0.62444   0.00000  Uiso   1.00
N458   N     0.32158   0.73765   0.30511   0.00000  Uiso   1.00
N459   N     0.77913   0.96319   0.30188   0.00000  Uiso   1.00
N460   N     0.44655   0.85111   0.66225   0.00000  Uiso   1.00
C461   C     0.78961   0.45093   0.42246   0.00000  Uiso   1.00
C462   C     0.86658   0.50377   0.41243   0.00000  Uiso   1.00
C463   C     0.89464   0.55741   0.38310   0.00000  Uiso   1.00
C464   C     0.96631   0.60016   0.37855   0.00000  Uiso   1.00
C465   C     0.07944   0.68378   0.35930   0.00000  Uiso   1.00
C466   C     0.79667   0.37646   0.38815   0.00000  Uiso   1.00
C467   C     0.76593   0.32306   0.33842   0.00000  Uiso   1.00
C468   C     0.77874   0.25863   0.31345   0.00000  Uiso   1.00
C469   C     0.78328   0.14459   0.25654   0.00000  Uiso   1.00
C470   C     0.75863   0.45922   0.49701   0.00000  Uiso   1.00
C471   C     0.69590   0.47539   0.53881   0.00000  Uiso   1.00
C472   C     0.67669   0.48062   0.60549   0.00000  Uiso   1.00
C473   C     0.62217   0.49508   0.71760   0.00000  Uiso   1.00
C474   C     0.86702   0.43147   0.46654   0.00000  Uiso   1.00
C475   C     0.90862   0.49319   0.43637   0.00000  Uiso   1.00
C476   C     0.98028   0.53587   0.43187   0.00000  Uiso   1.00
C477   C     0.00843   0.58957   0.40254   0.00000  Uiso   1.00
C478   C     0.83871   0.36588   0.41209   0.00000  Uiso   1.00
C479   C     0.85157   0.30152   0.38719   0.00000  Uiso   1.00
C480   C     0.82086   0.24804   0.33743   0.00000  Uiso   1.00
C481   C     0.80068   0.44865   0.52095   0.00000  Uiso   1.00
C482   C     0.78155   0.45385   0.58758   0.00000  Uiso   1.00
C483   C     0.71880   0.47003   0.62948   0.00000  Uiso   1.00
H484   H     0.75688   0.45916   0.40382   0.00000  Uiso   1.00
H485   H     0.86208   0.56557   0.36457   0.00000  Uiso   1.00
H486   H     0.73339   0.33125   0.31991   0.00000  Uiso   1.00
H487   H     0.66338   0.48356   0.52026   0.00000  Uiso   1.00
H488   H     0.99727   0.67887   0.33159   0.00000  Uiso   1.00
H489   H     0.72589   0.18479   0.23743   0.00000  Uiso   1.00
H490   H     0.57826   0.50596   0.65993   0.00000  Uiso   1.00
H491   H     0.89975   0.42323   0.48518   0.00000  Uiso   1.00
H492   H     0.01280   0.52768   0.45040   0.00000  Uiso   1.00
H493   H     0.88410   0.29336   0.40573   0.00000  Uiso   1.00
H494   H     0.81410   0.44567   0.60609   0.00000  Uiso   1.00
H495   H     0.11960   0.64811   0.40125   0.00000  Uiso   1.00
H496   H     0.84821   0.15403   0.30709   0.00000  Uiso   1.00
H497   H     0.70059   0.47520   0.72959   0.00000  Uiso   1.00
O498   O     0.13023   0.73283   0.34205   0.00000  Uiso   1.00
O499   O     0.77418   0.08461   0.21853   0.00000  Uiso   1.00
O500   O     0.58050   0.50599   0.77283   0.00000  Uiso   1.00
N501   N     0.01055   0.65730   0.35277   0.00000  Uiso   1.00
N502   N     0.75683   0.19537   0.26473   0.00000  Uiso   1.00
N503   N     0.61880   0.49563   0.65972   0.00000  Uiso   1.00
N504   N     0.07637   0.64075   0.39026   0.00000  Uiso   1.00
N505   N     0.82265   0.17882   0.30221   0.00000  Uiso   1.00
N506   N     0.68462   0.47908   0.69721   0.00000  Uiso   1.00
C507   C     0.19413   0.14164   0.40133   0.00000  Uiso   1.00
C508   C     0.20248   0.06905   0.37978   0.00000  Uiso   1.00
C509   C     0.25926   0.04721   0.32939   0.00000  Uiso   1.00
C510   C     0.25695   0.97874   0.31729   0.00000  Uiso   1.00
C511   C     0.27857   0.87285   0.27818   0.00000  Uiso   1.00
C512   C     0.12100   0.12576   0.39505   0.00000  Uiso   1.00
C513   C     0.10929   0.15161   0.35751   0.00000  Uiso   1.00
C514   C     0.03839   0.13088   0.35828   0.00000  Uiso   1.00
C515   C     0.93351   0.11307   0.34292   0.00000  Uiso   1.00
C516   C     0.18690   0.17340   0.47583   0.00000  Uiso   1.00
C517   C     0.23058   0.23932   0.50621   0.00000  Uiso   1.00
C518   C     0.21515   0.25871   0.57498   0.00000  Uiso   1.00
C519   C     0.21260   0.31487   0.68504   0.00000  Uiso   1.00
C520   C     0.08905   0.05887   0.46945   0.00000  Uiso   1.00
C521   C     0.14540   0.02409   0.41678   0.00000  Uiso   1.00
C522   C     0.14300   0.95563   0.40475   0.00000  Uiso   1.00
C523   C     0.19977   0.93370   0.35436   0.00000  Uiso   1.00
C524   C     0.06393   0.08080   0.43205   0.00000  Uiso   1.00
C525   C     0.99303   0.06003   0.43288   0.00000  Uiso   1.00
C526   C     0.98121   0.08584   0.39534   0.00000  Uiso   1.00
C527   C     0.12983   0.12844   0.51283   0.00000  Uiso   1.00
C528   C     0.11432   0.14773   0.58157   0.00000  Uiso   1.00
C529   C     0.15797   0.21367   0.61205   0.00000  Uiso   1.00
H530   H     0.23856   0.17665   0.37252   0.00000  Uiso   1.00
H531   H     0.30342   0.08202   0.30076   0.00000  Uiso   1.00
H532   H     0.15346   0.18641   0.32889   0.00000  Uiso   1.00
H533   H     0.27474   0.27410   0.47756   0.00000  Uiso   1.00
H534   H     0.35013   0.95728   0.23750   0.00000  Uiso   1.00
H535   H     0.03395   0.17740   0.29683   0.00000  Uiso   1.00
H536   H     0.28969   0.36231   0.61033   0.00000  Uiso   1.00
H537   H     0.04461   0.02386   0.49825   0.00000  Uiso   1.00
H538   H     0.09882   0.92085   0.43339   0.00000  Uiso   1.00
H539   H     0.94887   0.02524   0.46152   0.00000  Uiso   1.00
H540   H     0.07015   0.11293   0.61019   0.00000  Uiso   1.00
H541   H     0.18408   0.82646   0.34515   0.00000  Uiso   1.00
H542   H     0.86789   0.04659   0.40448   0.00000  Uiso   1.00
H543   H     0.12363   0.23150   0.71798   0.00000  Uiso   1.00
O544   O     0.30625   0.82685   0.24638   0.00000  Uiso   1.00
O545   O     0.89144   0.11566   0.32422   0.00000  Uiso   1.00
O546   O     0.22696   0.35826   0.73552   0.00000  Uiso   1.00
N547   N     0.30362   0.94063   0.27175   0.00000  Uiso   1.00
N548   N     0.00801   0.14643   0.32720   0.00000  Uiso   1.00
N549   N     0.24709   0.31931   0.62030   0.00000  Uiso   1.00
N550   N     0.21427   0.87024   0.32967   0.00000  Uiso   1.00
N551   N     0.91866   0.07604   0.38513   0.00000  Uiso   1.00
N552   N     0.15774   0.24893   0.67823   0.00000  Uiso   1.00
