data_job_02521
_audit_creation_date              2018-12-19
_audit_creation_method            'Materials Studio'
_symmetry_space_group_name_H-M    'P1'
_symmetry_Int_Tables_number       1
_symmetry_cell_setting            triclinic
loop_
_symmetry_equiv_pos_as_xyz
  x,y,z
_cell_length_a                    9.5678
_cell_length_b                    15.1637
_cell_length_c                    18.5228
_cell_angle_alpha                 90.0000
_cell_angle_beta                  127.7427
_cell_angle_gamma                 90.0000
loop_
_atom_site_label
_atom_site_type_symbol
_atom_site_fract_x
_atom_site_fract_y
_atom_site_fract_z
_atom_site_U_iso_or_equiv
_atom_site_adp_type
_atom_site_occupancy
C1     C     0.29517   0.34150   0.40608   0.00000  Uiso   1.00
C2     C     0.14582   0.34653   0.41399   0.00000  Uiso   1.00
C3     C     0.16150   0.37607   0.48957   0.00000  Uiso   1.00
C4     C     0.00930   0.37555   0.48331   0.00000  Uiso   1.00
C5     C     0.80205   0.38773   0.50763   0.00000  Uiso   1.00
C6     C     0.30121   0.24588   0.38261   0.00000  Uiso   1.00
C7     C     0.44754   0.19081   0.43179   0.00000  Uiso   1.00
C8     C     0.42614   0.10556   0.39911   0.00000  Uiso   1.00
C9     C     0.46017   0.96151   0.37467   0.00000  Uiso   1.00
C10    C     0.23414   0.39544   0.32193   0.00000  Uiso   1.00
C11    C     0.32410   0.46611   0.32009   0.00000  Uiso   1.00
C12    C     0.24625   0.50676   0.23631   0.00000  Uiso   1.00
C13    C     0.17616   0.59492   0.11767   0.00000  Uiso   1.00
C14    C     0.99698   0.28804   0.26057   0.00000  Uiso   1.00
C15    C     0.98386   0.31749   0.33495   0.00000  Uiso   1.00
C16    C     0.83158   0.31692   0.32858   0.00000  Uiso   1.00
C17    C     0.84703   0.34646   0.40413   0.00000  Uiso   1.00
C18    C     0.13925   0.21684   0.30357   0.00000  Uiso   1.00
C19    C     0.11762   0.13166   0.27080   0.00000  Uiso   1.00
C20    C     0.26388   0.07647   0.31993   0.00000  Uiso   1.00
C21    C     0.07217   0.36641   0.24289   0.00000  Uiso   1.00
C22    C     0.99418   0.40695   0.15910   0.00000  Uiso   1.00
C23    C     0.08400   0.47767   0.15714   0.00000  Uiso   1.00
H24    H     0.42127   0.36411   0.46761   0.00000  Uiso   1.00
H25    H     0.28687   0.39853   0.55073   0.00000  Uiso   1.00
H26    H     0.57287   0.21331   0.49295   0.00000  Uiso   1.00
H27    H     0.44944   0.48856   0.38127   0.00000  Uiso   1.00
H28    H     0.06645   0.42387   0.60803   0.00000  Uiso   1.00
H29    H     0.66950   0.03331   0.48619   0.00000  Uiso   1.00
H30    H     0.40924   0.61373   0.25068   0.00000  Uiso   1.00
H31    H     0.87088   0.26543   0.19903   0.00000  Uiso   1.00
H32    H     0.70626   0.29444   0.26740   0.00000  Uiso   1.00
H33    H     0.99227   0.10921   0.20963   0.00000  Uiso   1.00
H34    H     0.86884   0.38446   0.09795   0.00000  Uiso   1.00
H35    H     0.59521   0.33938   0.37808   0.00000  Uiso   1.00
H36    H     0.19827   0.94882   0.25624   0.00000  Uiso   1.00
H37    H     0.93800   0.52925   0.02073   0.00000  Uiso   1.00
O38    O     0.73249   0.40246   0.54289   0.00000  Uiso   1.00
O39    O     0.52368   0.89007   0.38303   0.00000  Uiso   1.00
O40    O     0.18222   0.65158   0.07406   0.00000  Uiso   1.00
N41    N     0.97813   0.40002   0.54452   0.00000  Uiso   1.00
N42    N     0.54194   0.03486   0.43061   0.00000  Uiso   1.00
N43    N     0.29864   0.57750   0.21043   0.00000  Uiso   1.00
N44    N     0.72455   0.35456   0.42078   0.00000  Uiso   1.00
N45    N     0.28837   0.98940   0.30688   0.00000  Uiso   1.00
N46    N     0.04507   0.53204   0.08670   0.00000  Uiso   1.00
C47    C     0.70483   0.84150   0.09392   0.00000  Uiso   1.00
C48    C     0.85418   0.84653   0.08601   0.00000  Uiso   1.00
C49    C     0.83850   0.87607   0.01043   0.00000  Uiso   1.00
C50    C     0.99070   0.87555   0.01669   0.00000  Uiso   1.00
C51    C     0.19795   0.88773   0.99237   0.00000  Uiso   1.00
C52    C     0.69879   0.74588   0.11739   0.00000  Uiso   1.00
C53    C     0.55246   0.69081   0.06821   0.00000  Uiso   1.00
C54    C     0.57386   0.60556   0.10089   0.00000  Uiso   1.00
C55    C     0.53983   0.46151   0.12533   0.00000  Uiso   1.00
C56    C     0.76586   0.89544   0.17807   0.00000  Uiso   1.00
C57    C     0.67590   0.96611   0.17991   0.00000  Uiso   1.00
C58    C     0.75375   0.00676   0.26369   0.00000  Uiso   1.00
C59    C     0.82384   0.09492   0.38233   0.00000  Uiso   1.00
C60    C     0.00302   0.78804   0.23943   0.00000  Uiso   1.00
C61    C     0.01614   0.81749   0.16505   0.00000  Uiso   1.00
C62    C     0.16842   0.81692   0.17142   0.00000  Uiso   1.00
C63    C     0.15297   0.84646   0.09587   0.00000  Uiso   1.00
C64    C     0.86075   0.71684   0.19643   0.00000  Uiso   1.00
C65    C     0.88238   0.63166   0.22920   0.00000  Uiso   1.00
C66    C     0.73612   0.57647   0.18007   0.00000  Uiso   1.00
C67    C     0.92783   0.86641   0.25711   0.00000  Uiso   1.00
C68    C     0.00582   0.90695   0.34090   0.00000  Uiso   1.00
C69    C     0.91600   0.97767   0.34286   0.00000  Uiso   1.00
H70    H     0.57873   0.86411   0.03239   0.00000  Uiso   1.00
H71    H     0.71313   0.89853   0.94927   0.00000  Uiso   1.00
H72    H     0.42713   0.71331   0.00705   0.00000  Uiso   1.00
H73    H     0.55056   0.98856   0.11873   0.00000  Uiso   1.00
H74    H     0.93355   0.92387   0.89197   0.00000  Uiso   1.00
H75    H     0.33050   0.53331   0.01381   0.00000  Uiso   1.00
H76    H     0.59076   0.11373   0.24932   0.00000  Uiso   1.00
H77    H     0.12912   0.76543   0.30097   0.00000  Uiso   1.00
H78    H     0.29374   0.79444   0.23260   0.00000  Uiso   1.00
H79    H     0.00773   0.60921   0.29037   0.00000  Uiso   1.00
H80    H     0.13116   0.88446   0.40205   0.00000  Uiso   1.00
H81    H     0.40479   0.83938   0.12192   0.00000  Uiso   1.00
H82    H     0.80173   0.44882   0.24376   0.00000  Uiso   1.00
H83    H     0.06200   0.02925   0.47927   0.00000  Uiso   1.00
O84    O     0.26751   0.90246   0.95711   0.00000  Uiso   1.00
O85    O     0.47632   0.39007   0.11697   0.00000  Uiso   1.00
O86    O     0.81778   0.15158   0.42594   0.00000  Uiso   1.00
N87    N     0.02187   0.90002   0.95548   0.00000  Uiso   1.00
N88    N     0.45806   0.53486   0.06939   0.00000  Uiso   1.00
N89    N     0.70136   0.07750   0.28957   0.00000  Uiso   1.00
N90    N     0.27545   0.85456   0.07922   0.00000  Uiso   1.00
N91    N     0.71163   0.48940   0.19312   0.00000  Uiso   1.00
N92    N     0.95493   0.03204   0.41330   0.00000  Uiso   1.00
C93    C     0.70483   0.65850   0.59392   0.00000  Uiso   1.00
C94    C     0.85418   0.65347   0.58601   0.00000  Uiso   1.00
C95    C     0.83850   0.62393   0.51043   0.00000  Uiso   1.00
C96    C     0.99070   0.62445   0.51669   0.00000  Uiso   1.00
C97    C     0.19795   0.61227   0.49237   0.00000  Uiso   1.00
C98    C     0.69879   0.75412   0.61739   0.00000  Uiso   1.00
C99    C     0.55246   0.80919   0.56821   0.00000  Uiso   1.00
C100   C     0.57386   0.89444   0.60089   0.00000  Uiso   1.00
C101   C     0.53983   0.03849   0.62533   0.00000  Uiso   1.00
C102   C     0.76586   0.60456   0.67807   0.00000  Uiso   1.00
C103   C     0.67590   0.53389   0.67991   0.00000  Uiso   1.00
C104   C     0.75375   0.49324   0.76369   0.00000  Uiso   1.00
C105   C     0.82384   0.40508   0.88233   0.00000  Uiso   1.00
C106   C     0.00302   0.71196   0.73943   0.00000  Uiso   1.00
C107   C     0.01614   0.68251   0.66505   0.00000  Uiso   1.00
C108   C     0.16842   0.68308   0.67142   0.00000  Uiso   1.00
C109   C     0.15297   0.65354   0.59587   0.00000  Uiso   1.00
C110   C     0.86075   0.78316   0.69643   0.00000  Uiso   1.00
C111   C     0.88238   0.86834   0.72920   0.00000  Uiso   1.00
C112   C     0.73612   0.92353   0.68007   0.00000  Uiso   1.00
C113   C     0.92783   0.63359   0.75711   0.00000  Uiso   1.00
C114   C     0.00582   0.59305   0.84090   0.00000  Uiso   1.00
C115   C     0.91600   0.52233   0.84286   0.00000  Uiso   1.00
H116   H     0.57873   0.63589   0.53239   0.00000  Uiso   1.00
H117   H     0.71313   0.60147   0.44927   0.00000  Uiso   1.00
H118   H     0.42713   0.78669   0.50705   0.00000  Uiso   1.00
H119   H     0.55056   0.51144   0.61873   0.00000  Uiso   1.00
H120   H     0.93355   0.57613   0.39197   0.00000  Uiso   1.00
H121   H     0.33050   0.96669   0.51381   0.00000  Uiso   1.00
H122   H     0.59076   0.38627   0.74932   0.00000  Uiso   1.00
H123   H     0.12912   0.73457   0.80097   0.00000  Uiso   1.00
H124   H     0.29374   0.70556   0.73260   0.00000  Uiso   1.00
H125   H     0.00773   0.89079   0.79037   0.00000  Uiso   1.00
H126   H     0.13116   0.61554   0.90205   0.00000  Uiso   1.00
H127   H     0.40479   0.66062   0.62192   0.00000  Uiso   1.00
H128   H     0.80173   0.05118   0.74376   0.00000  Uiso   1.00
H129   H     0.06200   0.47075   0.97927   0.00000  Uiso   1.00
O130   O     0.26751   0.59754   0.45711   0.00000  Uiso   1.00
O131   O     0.47632   0.10993   0.61697   0.00000  Uiso   1.00
O132   O     0.81778   0.34842   0.92594   0.00000  Uiso   1.00
N133   N     0.02187   0.59998   0.45548   0.00000  Uiso   1.00
N134   N     0.45806   0.96514   0.56939   0.00000  Uiso   1.00
N135   N     0.70136   0.42250   0.78957   0.00000  Uiso   1.00
N136   N     0.27545   0.64544   0.57922   0.00000  Uiso   1.00
N137   N     0.71163   0.01060   0.69312   0.00000  Uiso   1.00
N138   N     0.95493   0.46796   0.91330   0.00000  Uiso   1.00
C139   C     0.29517   0.15850   0.90608   0.00000  Uiso   1.00
C140   C     0.14582   0.15347   0.91399   0.00000  Uiso   1.00
C141   C     0.16150   0.12393   0.98957   0.00000  Uiso   1.00
C142   C     0.00930   0.12445   0.98331   0.00000  Uiso   1.00
C143   C     0.80205   0.11227   0.00763   0.00000  Uiso   1.00
C144   C     0.30121   0.25412   0.88261   0.00000  Uiso   1.00
C145   C     0.44754   0.30919   0.93179   0.00000  Uiso   1.00
C146   C     0.42614   0.39444   0.89911   0.00000  Uiso   1.00
C147   C     0.46017   0.53849   0.87467   0.00000  Uiso   1.00
C148   C     0.23414   0.10456   0.82193   0.00000  Uiso   1.00
C149   C     0.32410   0.03389   0.82009   0.00000  Uiso   1.00
C150   C     0.24625   0.99324   0.73631   0.00000  Uiso   1.00
C151   C     0.17616   0.90508   0.61767   0.00000  Uiso   1.00
C152   C     0.99698   0.21196   0.76057   0.00000  Uiso   1.00
C153   C     0.98386   0.18251   0.83495   0.00000  Uiso   1.00
C154   C     0.83158   0.18308   0.82858   0.00000  Uiso   1.00
C155   C     0.84703   0.15354   0.90413   0.00000  Uiso   1.00
C156   C     0.13925   0.28316   0.80357   0.00000  Uiso   1.00
C157   C     0.11762   0.36834   0.77080   0.00000  Uiso   1.00
C158   C     0.26388   0.42353   0.81993   0.00000  Uiso   1.00
C159   C     0.07217   0.13359   0.74289   0.00000  Uiso   1.00
C160   C     0.99418   0.09305   0.65910   0.00000  Uiso   1.00
C161   C     0.08400   0.02233   0.65714   0.00000  Uiso   1.00
H162   H     0.42127   0.13589   0.96761   0.00000  Uiso   1.00
H163   H     0.28687   0.10147   0.05073   0.00000  Uiso   1.00
H164   H     0.57287   0.28669   0.99295   0.00000  Uiso   1.00
H165   H     0.44944   0.01144   0.88127   0.00000  Uiso   1.00
H166   H     0.06645   0.07613   0.10803   0.00000  Uiso   1.00
H167   H     0.66950   0.46669   0.98619   0.00000  Uiso   1.00
H168   H     0.40924   0.88627   0.75068   0.00000  Uiso   1.00
H169   H     0.87088   0.23457   0.69903   0.00000  Uiso   1.00
H170   H     0.70626   0.20556   0.76740   0.00000  Uiso   1.00
H171   H     0.99227   0.39079   0.70963   0.00000  Uiso   1.00
H172   H     0.86884   0.11554   0.59795   0.00000  Uiso   1.00
H173   H     0.59521   0.16062   0.87808   0.00000  Uiso   1.00
H174   H     0.19827   0.55118   0.75624   0.00000  Uiso   1.00
H175   H     0.93800   0.97075   0.52073   0.00000  Uiso   1.00
O176   O     0.73249   0.09754   0.04289   0.00000  Uiso   1.00
O177   O     0.52368   0.60993   0.88303   0.00000  Uiso   1.00
O178   O     0.18222   0.84842   0.57406   0.00000  Uiso   1.00
N179   N     0.97813   0.09998   0.04452   0.00000  Uiso   1.00
N180   N     0.54194   0.46514   0.93061   0.00000  Uiso   1.00
N181   N     0.29864   0.92250   0.71043   0.00000  Uiso   1.00
N182   N     0.72455   0.14544   0.92078   0.00000  Uiso   1.00
N183   N     0.28837   0.51060   0.80688   0.00000  Uiso   1.00
N184   N     0.04507   0.96796   0.58670   0.00000  Uiso   1.00
