data_job_03503
_audit_creation_date              2018-12-19
_audit_creation_method            'Materials Studio'
_symmetry_space_group_name_H-M    'P1'
_symmetry_Int_Tables_number       1
_symmetry_cell_setting            triclinic
loop_
_symmetry_equiv_pos_as_xyz
  x,y,z
_cell_length_a                    30.4490
_cell_length_b                    30.4490
_cell_length_c                    7.3549
_cell_angle_alpha                 90.0000
_cell_angle_beta                  90.0000
_cell_angle_gamma                 120.0000
loop_
_atom_site_label
_atom_site_type_symbol
_atom_site_fract_x
_atom_site_fract_y
_atom_site_fract_z
_atom_site_U_iso_or_equiv
_atom_site_adp_type
_atom_site_occupancy
C1     C     0.36605   0.90334   0.31812   0.00000  Uiso   1.00
C2     C     0.41051   0.90224   0.40893   0.00000  Uiso   1.00
C3     C     0.45306   0.90719   0.32083   0.00000  Uiso   1.00
C4     C     0.48952   0.90515   0.42810   0.00000  Uiso   1.00
C5     C     0.55944   0.90444   0.54041   0.00000  Uiso   1.00
C6     C     0.31877   0.85384   0.37100   0.00000  Uiso   1.00
C7     C     0.28419   0.81810   0.25101   0.00000  Uiso   1.00
C8     C     0.24342   0.77532   0.32637   0.00000  Uiso   1.00
C9     C     0.17091   0.69949   0.37979   0.00000  Uiso   1.00
C10    C     0.36137   0.94543   0.41234   0.00000  Uiso   1.00
C11    C     0.36260   0.98670   0.32711   0.00000  Uiso   1.00
C12    C     0.35769   0.02103   0.43727   0.00000  Uiso   1.00
C13    C     0.35132   0.08740   0.55487   0.00000  Uiso   1.00
C14    C     0.35513   0.89093   0.66529   0.00000  Uiso   1.00
C15    C     0.40458   0.89550   0.59750   0.00000  Uiso   1.00
C16    C     0.44098   0.89346   0.70494   0.00000  Uiso   1.00
C17    C     0.48358   0.89840   0.61701   0.00000  Uiso   1.00
C18    C     0.31284   0.84710   0.55956   0.00000  Uiso   1.00
C19    C     0.27212   0.80437   0.63512   0.00000  Uiso   1.00
C20    C     0.23748   0.76857   0.51528   0.00000  Uiso   1.00
C21    C     0.35545   0.93869   0.60091   0.00000  Uiso   1.00
C22    C     0.35053   0.97297   0.71122   0.00000  Uiso   1.00
C23    C     0.35175   0.01427   0.62618   0.00000  Uiso   1.00
H24    H     0.37066   0.90859   0.17131   0.00000  Uiso   1.00
H25    H     0.45763   0.91240   0.17489   0.00000  Uiso   1.00
H26    H     0.28878   0.82333   0.10509   0.00000  Uiso   1.00
H27    H     0.36718   0.99190   0.18118   0.00000  Uiso   1.00
H28    H     0.55143   0.91363   0.26202   0.00000  Uiso   1.00
H29    H     0.19540   0.72583   0.11484   0.00000  Uiso   1.00
H30    H     0.36072   0.08129   0.27528   0.00000  Uiso   1.00
H31    H     0.35052   0.88568   0.81211   0.00000  Uiso   1.00
H32    H     0.43639   0.88824   0.85086   0.00000  Uiso   1.00
H33    H     0.26754   0.79917   0.78105   0.00000  Uiso   1.00
H34    H     0.34594   0.96774   0.85714   0.00000  Uiso   1.00
H35    H     0.53419   0.89402   0.81065   0.00000  Uiso   1.00
H36    H     0.17816   0.70622   0.66347   0.00000  Uiso   1.00
H37    H     0.34348   0.06168   0.82392   0.00000  Uiso   1.00
O38    O     0.59965   0.90591   0.55026   0.00000  Uiso   1.00
O39    O     0.13255   0.65952   0.35716   0.00000  Uiso   1.00
O40    O     0.34945   0.12588   0.56766   0.00000  Uiso   1.00
N41    N     0.53559   0.90868   0.38583   0.00000  Uiso   1.00
N42    N     0.20273   0.73309   0.24822   0.00000  Uiso   1.00
N43    N     0.35728   0.06541   0.39822   0.00000  Uiso   1.00
N44    N     0.52631   0.89813   0.68104   0.00000  Uiso   1.00
N45    N     0.19345   0.72254   0.54344   0.00000  Uiso   1.00
N46    N     0.34800   0.05486   0.69343   0.00000  Uiso   1.00
C47    C     0.09666   0.46270   0.65145   0.00000  Uiso   1.00
C48    C     0.09776   0.50826   0.74226   0.00000  Uiso   1.00
C49    C     0.09281   0.54587   0.65416   0.00000  Uiso   1.00
C50    C     0.09485   0.58436   0.76144   0.00000  Uiso   1.00
C51    C     0.09556   0.65500   0.87374   0.00000  Uiso   1.00
C52    C     0.14616   0.46493   0.70434   0.00000  Uiso   1.00
C53    C     0.18190   0.46609   0.58434   0.00000  Uiso   1.00
C54    C     0.22468   0.46810   0.65970   0.00000  Uiso   1.00
C55    C     0.30051   0.47142   0.71312   0.00000  Uiso   1.00
C56    C     0.05457   0.41594   0.74567   0.00000  Uiso   1.00
C57    C     0.01330   0.37590   0.66044   0.00000  Uiso   1.00
C58    C     0.97897   0.33666   0.77060   0.00000  Uiso   1.00
C59    C     0.91260   0.26392   0.88821   0.00000  Uiso   1.00
C60    C     0.10907   0.46420   0.99862   0.00000  Uiso   1.00
C61    C     0.10450   0.50908   0.93083   0.00000  Uiso   1.00
C62    C     0.10654   0.54753   0.03827   0.00000  Uiso   1.00
C63    C     0.10160   0.58518   0.95035   0.00000  Uiso   1.00
C64    C     0.15290   0.46574   0.89290   0.00000  Uiso   1.00
C65    C     0.19563   0.46775   0.96845   0.00000  Uiso   1.00
C66    C     0.23143   0.46891   0.84861   0.00000  Uiso   1.00
C67    C     0.06131   0.41675   0.93425   0.00000  Uiso   1.00
C68    C     0.02703   0.37756   0.04455   0.00000  Uiso   1.00
C69    C     0.98573   0.33747   0.95951   0.00000  Uiso   1.00
H70    H     0.09141   0.46207   0.50464   0.00000  Uiso   1.00
H71    H     0.08760   0.54523   0.50823   0.00000  Uiso   1.00
H72    H     0.17667   0.46545   0.43843   0.00000  Uiso   1.00
H73    H     0.00810   0.37529   0.51452   0.00000  Uiso   1.00
H74    H     0.08637   0.63779   0.59535   0.00000  Uiso   1.00
H75    H     0.27417   0.46957   0.44817   0.00000  Uiso   1.00
H76    H     0.91871   0.27943   0.60861   0.00000  Uiso   1.00
H77    H     0.11432   0.46483   0.14544   0.00000  Uiso   1.00
H78    H     0.11176   0.54815   0.18419   0.00000  Uiso   1.00
H79    H     0.20083   0.46837   0.11438   0.00000  Uiso   1.00
H80    H     0.03226   0.37820   0.19047   0.00000  Uiso   1.00
H81    H     0.10598   0.64016   0.14399   0.00000  Uiso   1.00
H82    H     0.29378   0.47194   0.99680   0.00000  Uiso   1.00
H83    H     0.93832   0.28180   0.15725   0.00000  Uiso   1.00
O84    O     0.09409   0.69374   0.88359   0.00000  Uiso   1.00
O85    O     0.34048   0.47303   0.69049   0.00000  Uiso   1.00
O86    O     0.87412   0.22358   0.90099   0.00000  Uiso   1.00
N87    N     0.09132   0.62691   0.71916   0.00000  Uiso   1.00
N88    N     0.26691   0.46964   0.58155   0.00000  Uiso   1.00
N89    N     0.93459   0.29187   0.73155   0.00000  Uiso   1.00
N90    N     0.10187   0.62819   0.01438   0.00000  Uiso   1.00
N91    N     0.27746   0.47092   0.87677   0.00000  Uiso   1.00
N92    N     0.94514   0.29315   0.02677   0.00000  Uiso   1.00
C93    C     0.53730   0.63395   0.98479   0.00000  Uiso   1.00
C94    C     0.49174   0.58949   0.07559   0.00000  Uiso   1.00
C95    C     0.45413   0.54694   0.98750   0.00000  Uiso   1.00
C96    C     0.41564   0.51048   0.09477   0.00000  Uiso   1.00
C97    C     0.34500   0.44056   0.20707   0.00000  Uiso   1.00
C98    C     0.53507   0.68123   0.03767   0.00000  Uiso   1.00
C99    C     0.53391   0.71581   0.91768   0.00000  Uiso   1.00
C100   C     0.53190   0.75658   0.99303   0.00000  Uiso   1.00
C101   C     0.52858   0.82909   0.04646   0.00000  Uiso   1.00
C102   C     0.58406   0.63863   0.07901   0.00000  Uiso   1.00
C103   C     0.62410   0.63740   0.99377   0.00000  Uiso   1.00
C104   C     0.66334   0.64231   0.10393   0.00000  Uiso   1.00
C105   C     0.73608   0.64868   0.22154   0.00000  Uiso   1.00
C106   C     0.53580   0.64487   0.33196   0.00000  Uiso   1.00
C107   C     0.49092   0.59542   0.26416   0.00000  Uiso   1.00
C108   C     0.45247   0.55902   0.37160   0.00000  Uiso   1.00
C109   C     0.41482   0.51642   0.28368   0.00000  Uiso   1.00
C110   C     0.53426   0.68716   0.22623   0.00000  Uiso   1.00
C111   C     0.53225   0.72788   0.30178   0.00000  Uiso   1.00
C112   C     0.53109   0.76252   0.18194   0.00000  Uiso   1.00
C113   C     0.58325   0.64455   0.26758   0.00000  Uiso   1.00
C114   C     0.62244   0.64947   0.37789   0.00000  Uiso   1.00
C115   C     0.66253   0.64825   0.29284   0.00000  Uiso   1.00
H116   H     0.53793   0.62934   0.83798   0.00000  Uiso   1.00
H117   H     0.45477   0.54237   0.84156   0.00000  Uiso   1.00
H118   H     0.53455   0.71122   0.77176   0.00000  Uiso   1.00
H119   H     0.62471   0.63282   0.84785   0.00000  Uiso   1.00
H120   H     0.36221   0.44857   0.92868   0.00000  Uiso   1.00
H121   H     0.53043   0.80460   0.78150   0.00000  Uiso   1.00
H122   H     0.72057   0.63928   0.94195   0.00000  Uiso   1.00
H123   H     0.53517   0.64948   0.47877   0.00000  Uiso   1.00
H124   H     0.45185   0.56361   0.51753   0.00000  Uiso   1.00
H125   H     0.53163   0.73246   0.44772   0.00000  Uiso   1.00
H126   H     0.62180   0.65406   0.52381   0.00000  Uiso   1.00
H127   H     0.35984   0.46581   0.47732   0.00000  Uiso   1.00
H128   H     0.52806   0.82184   0.33013   0.00000  Uiso   1.00
H129   H     0.71820   0.65652   0.49058   0.00000  Uiso   1.00
O130   O     0.30626   0.40035   0.21692   0.00000  Uiso   1.00
O131   O     0.52697   0.86745   0.02382   0.00000  Uiso   1.00
O132   O     0.77642   0.65055   0.23432   0.00000  Uiso   1.00
N133   N     0.37309   0.46441   0.05249   0.00000  Uiso   1.00
N134   N     0.53036   0.79727   0.91489   0.00000  Uiso   1.00
N135   N     0.70813   0.64272   0.06488   0.00000  Uiso   1.00
N136   N     0.37181   0.47369   0.34771   0.00000  Uiso   1.00
N137   N     0.52908   0.80655   0.21010   0.00000  Uiso   1.00
N138   N     0.70685   0.65200   0.36010   0.00000  Uiso   1.00
C139   C     0.63395   0.09666   0.81812   0.00000  Uiso   1.00
C140   C     0.58949   0.09776   0.90893   0.00000  Uiso   1.00
C141   C     0.54694   0.09281   0.82083   0.00000  Uiso   1.00
C142   C     0.51048   0.09485   0.92810   0.00000  Uiso   1.00
C143   C     0.44056   0.09556   0.04041   0.00000  Uiso   1.00
C144   C     0.68123   0.14616   0.87100   0.00000  Uiso   1.00
C145   C     0.71581   0.18190   0.75101   0.00000  Uiso   1.00
C146   C     0.75658   0.22468   0.82637   0.00000  Uiso   1.00
C147   C     0.82909   0.30051   0.87979   0.00000  Uiso   1.00
C148   C     0.63863   0.05457   0.91234   0.00000  Uiso   1.00
C149   C     0.63740   0.01330   0.82711   0.00000  Uiso   1.00
C150   C     0.64231   0.97897   0.93727   0.00000  Uiso   1.00
C151   C     0.64868   0.91260   0.05487   0.00000  Uiso   1.00
C152   C     0.64487   0.10907   0.16529   0.00000  Uiso   1.00
C153   C     0.59542   0.10450   0.09750   0.00000  Uiso   1.00
C154   C     0.55902   0.10654   0.20494   0.00000  Uiso   1.00
C155   C     0.51642   0.10160   0.11701   0.00000  Uiso   1.00
C156   C     0.68716   0.15290   0.05956   0.00000  Uiso   1.00
C157   C     0.72788   0.19563   0.13512   0.00000  Uiso   1.00
C158   C     0.76252   0.23143   0.01528   0.00000  Uiso   1.00
C159   C     0.64455   0.06131   0.10091   0.00000  Uiso   1.00
C160   C     0.64947   0.02703   0.21122   0.00000  Uiso   1.00
C161   C     0.64825   0.98573   0.12618   0.00000  Uiso   1.00
H162   H     0.62934   0.09141   0.67131   0.00000  Uiso   1.00
H163   H     0.54237   0.08760   0.67489   0.00000  Uiso   1.00
H164   H     0.71122   0.17667   0.60509   0.00000  Uiso   1.00
H165   H     0.63282   0.00810   0.68118   0.00000  Uiso   1.00
H166   H     0.44857   0.08637   0.76202   0.00000  Uiso   1.00
H167   H     0.80460   0.27417   0.61484   0.00000  Uiso   1.00
H168   H     0.63928   0.91871   0.77528   0.00000  Uiso   1.00
H169   H     0.64948   0.11432   0.31211   0.00000  Uiso   1.00
H170   H     0.56361   0.11176   0.35086   0.00000  Uiso   1.00
H171   H     0.73246   0.20083   0.28105   0.00000  Uiso   1.00
H172   H     0.65406   0.03226   0.35714   0.00000  Uiso   1.00
H173   H     0.46581   0.10598   0.31065   0.00000  Uiso   1.00
H174   H     0.82184   0.29378   0.16347   0.00000  Uiso   1.00
H175   H     0.65652   0.93832   0.32392   0.00000  Uiso   1.00
O176   O     0.40035   0.09409   0.05026   0.00000  Uiso   1.00
O177   O     0.86745   0.34048   0.85716   0.00000  Uiso   1.00
O178   O     0.65055   0.87412   0.06766   0.00000  Uiso   1.00
N179   N     0.46441   0.09132   0.88583   0.00000  Uiso   1.00
N180   N     0.79727   0.26691   0.74822   0.00000  Uiso   1.00
N181   N     0.64272   0.93459   0.89822   0.00000  Uiso   1.00
N182   N     0.47369   0.10187   0.18104   0.00000  Uiso   1.00
N183   N     0.80655   0.27746   0.04344   0.00000  Uiso   1.00
N184   N     0.65200   0.94514   0.19343   0.00000  Uiso   1.00
C185   C     0.90334   0.53730   0.15145   0.00000  Uiso   1.00
C186   C     0.90224   0.49174   0.24226   0.00000  Uiso   1.00
C187   C     0.90719   0.45413   0.15416   0.00000  Uiso   1.00
C188   C     0.90515   0.41564   0.26144   0.00000  Uiso   1.00
C189   C     0.90444   0.34500   0.37374   0.00000  Uiso   1.00
C190   C     0.85384   0.53507   0.20434   0.00000  Uiso   1.00
C191   C     0.81810   0.53391   0.08434   0.00000  Uiso   1.00
C192   C     0.77532   0.53190   0.15970   0.00000  Uiso   1.00
C193   C     0.69949   0.52858   0.21312   0.00000  Uiso   1.00
C194   C     0.94543   0.58406   0.24567   0.00000  Uiso   1.00
C195   C     0.98670   0.62410   0.16044   0.00000  Uiso   1.00
C196   C     0.02103   0.66334   0.27060   0.00000  Uiso   1.00
C197   C     0.08740   0.73608   0.38821   0.00000  Uiso   1.00
C198   C     0.89093   0.53580   0.49862   0.00000  Uiso   1.00
C199   C     0.89550   0.49092   0.43083   0.00000  Uiso   1.00
C200   C     0.89346   0.45247   0.53827   0.00000  Uiso   1.00
C201   C     0.89840   0.41482   0.45035   0.00000  Uiso   1.00
C202   C     0.84710   0.53426   0.39290   0.00000  Uiso   1.00
C203   C     0.80437   0.53225   0.46845   0.00000  Uiso   1.00
C204   C     0.76857   0.53109   0.34861   0.00000  Uiso   1.00
C205   C     0.93869   0.58325   0.43425   0.00000  Uiso   1.00
C206   C     0.97297   0.62244   0.54455   0.00000  Uiso   1.00
C207   C     0.01427   0.66253   0.45951   0.00000  Uiso   1.00
H208   H     0.90859   0.53793   0.00464   0.00000  Uiso   1.00
H209   H     0.91240   0.45477   0.00823   0.00000  Uiso   1.00
H210   H     0.82333   0.53455   0.93843   0.00000  Uiso   1.00
H211   H     0.99190   0.62471   0.01452   0.00000  Uiso   1.00
H212   H     0.91363   0.36221   0.09535   0.00000  Uiso   1.00
H213   H     0.72583   0.53043   0.94817   0.00000  Uiso   1.00
H214   H     0.08129   0.72057   0.10861   0.00000  Uiso   1.00
H215   H     0.88568   0.53517   0.64544   0.00000  Uiso   1.00
H216   H     0.88824   0.45185   0.68419   0.00000  Uiso   1.00
H217   H     0.79917   0.53163   0.61438   0.00000  Uiso   1.00
H218   H     0.96774   0.62180   0.69047   0.00000  Uiso   1.00
H219   H     0.89402   0.35984   0.64399   0.00000  Uiso   1.00
H220   H     0.70622   0.52806   0.49680   0.00000  Uiso   1.00
H221   H     0.06168   0.71820   0.65725   0.00000  Uiso   1.00
O222   O     0.90591   0.30626   0.38359   0.00000  Uiso   1.00
O223   O     0.65952   0.52697   0.19049   0.00000  Uiso   1.00
O224   O     0.12588   0.77642   0.40099   0.00000  Uiso   1.00
N225   N     0.90868   0.37309   0.21916   0.00000  Uiso   1.00
N226   N     0.73309   0.53036   0.08155   0.00000  Uiso   1.00
N227   N     0.06541   0.70813   0.23155   0.00000  Uiso   1.00
N228   N     0.89813   0.37181   0.51438   0.00000  Uiso   1.00
N229   N     0.72254   0.52908   0.37677   0.00000  Uiso   1.00
N230   N     0.05486   0.70685   0.52677   0.00000  Uiso   1.00
C231   C     0.46270   0.36605   0.48479   0.00000  Uiso   1.00
C232   C     0.50826   0.41051   0.57559   0.00000  Uiso   1.00
C233   C     0.54587   0.45306   0.48750   0.00000  Uiso   1.00
C234   C     0.58436   0.48952   0.59477   0.00000  Uiso   1.00
C235   C     0.65500   0.55944   0.70707   0.00000  Uiso   1.00
C236   C     0.46493   0.31877   0.53767   0.00000  Uiso   1.00
C237   C     0.46609   0.28419   0.41768   0.00000  Uiso   1.00
C238   C     0.46810   0.24342   0.49303   0.00000  Uiso   1.00
C239   C     0.47142   0.17091   0.54646   0.00000  Uiso   1.00
C240   C     0.41594   0.36137   0.57901   0.00000  Uiso   1.00
C241   C     0.37590   0.36260   0.49377   0.00000  Uiso   1.00
C242   C     0.33666   0.35769   0.60393   0.00000  Uiso   1.00
C243   C     0.26392   0.35132   0.72154   0.00000  Uiso   1.00
C244   C     0.46420   0.35513   0.83196   0.00000  Uiso   1.00
C245   C     0.50908   0.40458   0.76416   0.00000  Uiso   1.00
C246   C     0.54753   0.44098   0.87160   0.00000  Uiso   1.00
C247   C     0.58518   0.48358   0.78368   0.00000  Uiso   1.00
C248   C     0.46574   0.31284   0.72623   0.00000  Uiso   1.00
C249   C     0.46775   0.27212   0.80178   0.00000  Uiso   1.00
C250   C     0.46891   0.23748   0.68194   0.00000  Uiso   1.00
C251   C     0.41675   0.35545   0.76758   0.00000  Uiso   1.00
C252   C     0.37756   0.35053   0.87789   0.00000  Uiso   1.00
C253   C     0.33747   0.35175   0.79284   0.00000  Uiso   1.00
H254   H     0.46207   0.37066   0.33798   0.00000  Uiso   1.00
H255   H     0.54523   0.45763   0.34156   0.00000  Uiso   1.00
H256   H     0.46545   0.28878   0.27176   0.00000  Uiso   1.00
H257   H     0.37529   0.36718   0.34785   0.00000  Uiso   1.00
H258   H     0.63779   0.55143   0.42868   0.00000  Uiso   1.00
H259   H     0.46957   0.19540   0.28150   0.00000  Uiso   1.00
H260   H     0.27943   0.36072   0.44195   0.00000  Uiso   1.00
H261   H     0.46483   0.35052   0.97877   0.00000  Uiso   1.00
H262   H     0.54815   0.43639   0.01753   0.00000  Uiso   1.00
H263   H     0.46837   0.26754   0.94772   0.00000  Uiso   1.00
H264   H     0.37820   0.34594   0.02381   0.00000  Uiso   1.00
H265   H     0.64016   0.53419   0.97732   0.00000  Uiso   1.00
H266   H     0.47194   0.17816   0.83013   0.00000  Uiso   1.00
H267   H     0.28180   0.34348   0.99058   0.00000  Uiso   1.00
O268   O     0.69374   0.59965   0.71692   0.00000  Uiso   1.00
O269   O     0.47303   0.13255   0.52382   0.00000  Uiso   1.00
O270   O     0.22358   0.34945   0.73432   0.00000  Uiso   1.00
N271   N     0.62691   0.53559   0.55249   0.00000  Uiso   1.00
N272   N     0.46964   0.20273   0.41489   0.00000  Uiso   1.00
N273   N     0.29187   0.35728   0.56488   0.00000  Uiso   1.00
N274   N     0.62819   0.52631   0.84771   0.00000  Uiso   1.00
N275   N     0.47092   0.19345   0.71010   0.00000  Uiso   1.00
N276   N     0.29315   0.34800   0.86010   0.00000  Uiso   1.00
