data_job_02183
_audit_creation_date              2018-12-19
_audit_creation_method            'Materials Studio'
_symmetry_space_group_name_H-M    'P1'
_symmetry_Int_Tables_number       1
_symmetry_cell_setting            triclinic
loop_
_symmetry_equiv_pos_as_xyz
  x,y,z
_cell_length_a                    42.9464
_cell_length_b                    7.7682
_cell_length_c                    19.0790
_cell_angle_alpha                 90.0000
_cell_angle_beta                  101.9980
_cell_angle_gamma                 90.0000
loop_
_atom_site_label
_atom_site_type_symbol
_atom_site_fract_x
_atom_site_fract_y
_atom_site_fract_z
_atom_site_U_iso_or_equiv
_atom_site_adp_type
_atom_site_occupancy
C1     C     0.14684   0.98458   0.92447   0.00000  Uiso   1.00
C2     C     0.12026   0.06634   0.95510   0.00000  Uiso   1.00
C3     C     0.09051   0.99488   0.95348   0.00000  Uiso   1.00
C4     C     0.06952   0.09001   0.98439   0.00000  Uiso   1.00
C5     C     0.02695   0.19255   0.02715   0.00000  Uiso   1.00
C6     C     0.15527   0.11498   0.87162   0.00000  Uiso   1.00
C7     C     0.15495   0.08439   0.79980   0.00000  Uiso   1.00
C8     C     0.16343   0.22046   0.76044   0.00000  Uiso   1.00
C9     C     0.17523   0.39846   0.67360   0.00000  Uiso   1.00
C10    C     0.17571   0.97530   0.98628   0.00000  Uiso   1.00
C11    C     0.19259   0.82728   0.01086   0.00000  Uiso   1.00
C12    C     0.21829   0.84576   0.06802   0.00000  Uiso   1.00
C13    C     0.26183   0.80690   0.15921   0.00000  Uiso   1.00
C14    C     0.16248   0.28062   0.98226   0.00000  Uiso   1.00
C15    C     0.12876   0.22714   0.98649   0.00000  Uiso   1.00
C16    C     0.10781   0.32241   0.01742   0.00000  Uiso   1.00
C17    C     0.07803   0.25109   0.01584   0.00000  Uiso   1.00
C18    C     0.16376   0.27577   0.90300   0.00000  Uiso   1.00
C19    C     0.17225   0.41192   0.86374   0.00000  Uiso   1.00
C20    C     0.17194   0.38155   0.79189   0.00000  Uiso   1.00
C21    C     0.18421   0.13610   0.01767   0.00000  Uiso   1.00
C22    C     0.20989   0.15481   0.07480   0.00000  Uiso   1.00
C23    C     0.22680   0.00685   0.09947   0.00000  Uiso   1.00
H24    H     0.14023   0.85940   0.90002   0.00000  Uiso   1.00
H25    H     0.08394   0.87044   0.92917   0.00000  Uiso   1.00
H26    H     0.14838   0.95994   0.77553   0.00000  Uiso   1.00
H27    H     0.18601   0.70287   0.98655   0.00000  Uiso   1.00
H28    H     0.02528   0.95363   0.97531   0.00000  Uiso   1.00
H29    H     0.16115   0.14231   0.65134   0.00000  Uiso   1.00
H30    H     0.24050   0.60023   0.09633   0.00000  Uiso   1.00
H31    H     0.16910   0.40581   0.00670   0.00000  Uiso   1.00
H32    H     0.11439   0.44684   0.04170   0.00000  Uiso   1.00
H33    H     0.17883   0.53633   0.88805   0.00000  Uiso   1.00
H34    H     0.21646   0.27927   0.09908   0.00000  Uiso   1.00
H35    H     0.04999   0.42146   0.06664   0.00000  Uiso   1.00
H36    H     0.18587   0.61013   0.74267   0.00000  Uiso   1.00
H37    H     0.26522   0.06806   0.18766   0.00000  Uiso   1.00
O38    O     0.00112   0.20470   0.04206   0.00000  Uiso   1.00
O39    O     0.17939   0.45222   0.61703   0.00000  Uiso   1.00
O40    O     0.28350   0.74104   0.20085   0.00000  Uiso   1.00
N41    N     0.03860   0.05808   0.99201   0.00000  Uiso   1.00
N42    N     0.16563   0.23450   0.68912   0.00000  Uiso   1.00
N43    N     0.23983   0.72771   0.10514   0.00000  Uiso   1.00
N44    N     0.05190   0.30982   0.04116   0.00000  Uiso   1.00
N45    N     0.17893   0.48623   0.73827   0.00000  Uiso   1.00
N46    N     0.25312   0.97944   0.15428   0.00000  Uiso   1.00
C47    C     0.64684   0.48458   0.92447   0.00000  Uiso   1.00
C48    C     0.62026   0.56634   0.95510   0.00000  Uiso   1.00
C49    C     0.59051   0.49488   0.95348   0.00000  Uiso   1.00
C50    C     0.56952   0.59001   0.98439   0.00000  Uiso   1.00
C51    C     0.52695   0.69255   0.02715   0.00000  Uiso   1.00
C52    C     0.65527   0.61498   0.87162   0.00000  Uiso   1.00
C53    C     0.65495   0.58439   0.79980   0.00000  Uiso   1.00
C54    C     0.66343   0.72046   0.76044   0.00000  Uiso   1.00
C55    C     0.67523   0.89846   0.67360   0.00000  Uiso   1.00
C56    C     0.67571   0.47530   0.98628   0.00000  Uiso   1.00
C57    C     0.69259   0.32728   0.01086   0.00000  Uiso   1.00
C58    C     0.71829   0.34576   0.06802   0.00000  Uiso   1.00
C59    C     0.76183   0.30690   0.15921   0.00000  Uiso   1.00
C60    C     0.66248   0.78062   0.98226   0.00000  Uiso   1.00
C61    C     0.62876   0.72714   0.98649   0.00000  Uiso   1.00
C62    C     0.60781   0.82241   0.01742   0.00000  Uiso   1.00
C63    C     0.57803   0.75109   0.01584   0.00000  Uiso   1.00
C64    C     0.66376   0.77577   0.90300   0.00000  Uiso   1.00
C65    C     0.67225   0.91192   0.86374   0.00000  Uiso   1.00
C66    C     0.67194   0.88155   0.79189   0.00000  Uiso   1.00
C67    C     0.68421   0.63610   0.01767   0.00000  Uiso   1.00
C68    C     0.70989   0.65481   0.07480   0.00000  Uiso   1.00
C69    C     0.72680   0.50685   0.09947   0.00000  Uiso   1.00
H70    H     0.64023   0.35940   0.90002   0.00000  Uiso   1.00
H71    H     0.58394   0.37044   0.92917   0.00000  Uiso   1.00
H72    H     0.64838   0.45994   0.77553   0.00000  Uiso   1.00
H73    H     0.68601   0.20287   0.98655   0.00000  Uiso   1.00
H74    H     0.52528   0.45363   0.97531   0.00000  Uiso   1.00
H75    H     0.66115   0.64231   0.65134   0.00000  Uiso   1.00
H76    H     0.74050   0.10023   0.09633   0.00000  Uiso   1.00
H77    H     0.66910   0.90581   0.00670   0.00000  Uiso   1.00
H78    H     0.61439   0.94684   0.04170   0.00000  Uiso   1.00
H79    H     0.67883   0.03633   0.88805   0.00000  Uiso   1.00
H80    H     0.71646   0.77927   0.09908   0.00000  Uiso   1.00
H81    H     0.54999   0.92146   0.06664   0.00000  Uiso   1.00
H82    H     0.68587   0.11013   0.74267   0.00000  Uiso   1.00
H83    H     0.76522   0.56806   0.18766   0.00000  Uiso   1.00
O84    O     0.50112   0.70470   0.04206   0.00000  Uiso   1.00
O85    O     0.67939   0.95222   0.61703   0.00000  Uiso   1.00
O86    O     0.78350   0.24104   0.20085   0.00000  Uiso   1.00
N87    N     0.53860   0.55808   0.99201   0.00000  Uiso   1.00
N88    N     0.66563   0.73450   0.68912   0.00000  Uiso   1.00
N89    N     0.73983   0.22771   0.10514   0.00000  Uiso   1.00
N90    N     0.55190   0.80982   0.04116   0.00000  Uiso   1.00
N91    N     0.67893   0.98623   0.73827   0.00000  Uiso   1.00
N92    N     0.75312   0.47944   0.15428   0.00000  Uiso   1.00
C93    C     0.85316   0.98458   0.57553   0.00000  Uiso   1.00
C94    C     0.87974   0.06634   0.54490   0.00000  Uiso   1.00
C95    C     0.90949   0.99488   0.54652   0.00000  Uiso   1.00
C96    C     0.93048   0.09001   0.51561   0.00000  Uiso   1.00
C97    C     0.97305   0.19255   0.47285   0.00000  Uiso   1.00
C98    C     0.84473   0.11498   0.62838   0.00000  Uiso   1.00
C99    C     0.84505   0.08439   0.70020   0.00000  Uiso   1.00
C100   C     0.83657   0.22046   0.73956   0.00000  Uiso   1.00
C101   C     0.82477   0.39846   0.82640   0.00000  Uiso   1.00
C102   C     0.82429   0.97530   0.51372   0.00000  Uiso   1.00
C103   C     0.80741   0.82728   0.48914   0.00000  Uiso   1.00
C104   C     0.78171   0.84576   0.43198   0.00000  Uiso   1.00
C105   C     0.73817   0.80690   0.34079   0.00000  Uiso   1.00
C106   C     0.83752   0.28062   0.51774   0.00000  Uiso   1.00
C107   C     0.87124   0.22714   0.51351   0.00000  Uiso   1.00
C108   C     0.89219   0.32241   0.48258   0.00000  Uiso   1.00
C109   C     0.92197   0.25109   0.48416   0.00000  Uiso   1.00
C110   C     0.83624   0.27577   0.59700   0.00000  Uiso   1.00
C111   C     0.82775   0.41192   0.63626   0.00000  Uiso   1.00
C112   C     0.82806   0.38155   0.70811   0.00000  Uiso   1.00
C113   C     0.81579   0.13610   0.48233   0.00000  Uiso   1.00
C114   C     0.79011   0.15481   0.42520   0.00000  Uiso   1.00
C115   C     0.77320   0.00685   0.40053   0.00000  Uiso   1.00
H116   H     0.85977   0.85940   0.59998   0.00000  Uiso   1.00
H117   H     0.91606   0.87044   0.57083   0.00000  Uiso   1.00
H118   H     0.85162   0.95994   0.72447   0.00000  Uiso   1.00
H119   H     0.81399   0.70287   0.51345   0.00000  Uiso   1.00
H120   H     0.97472   0.95363   0.52469   0.00000  Uiso   1.00
H121   H     0.83885   0.14231   0.84866   0.00000  Uiso   1.00
H122   H     0.75950   0.60023   0.40367   0.00000  Uiso   1.00
H123   H     0.83090   0.40581   0.49330   0.00000  Uiso   1.00
H124   H     0.88561   0.44684   0.45830   0.00000  Uiso   1.00
H125   H     0.82117   0.53633   0.61195   0.00000  Uiso   1.00
H126   H     0.78354   0.27927   0.40092   0.00000  Uiso   1.00
H127   H     0.95001   0.42146   0.43336   0.00000  Uiso   1.00
H128   H     0.81413   0.61013   0.75733   0.00000  Uiso   1.00
H129   H     0.73478   0.06806   0.31234   0.00000  Uiso   1.00
O130   O     0.99888   0.20470   0.45794   0.00000  Uiso   1.00
O131   O     0.82061   0.45222   0.88297   0.00000  Uiso   1.00
O132   O     0.71650   0.74104   0.29915   0.00000  Uiso   1.00
N133   N     0.96140   0.05808   0.50799   0.00000  Uiso   1.00
N134   N     0.83437   0.23450   0.81088   0.00000  Uiso   1.00
N135   N     0.76017   0.72771   0.39486   0.00000  Uiso   1.00
N136   N     0.94810   0.30982   0.45884   0.00000  Uiso   1.00
N137   N     0.82107   0.48623   0.76173   0.00000  Uiso   1.00
N138   N     0.74688   0.97944   0.34572   0.00000  Uiso   1.00
C139   C     0.35316   0.48458   0.57553   0.00000  Uiso   1.00
C140   C     0.37974   0.56634   0.54490   0.00000  Uiso   1.00
C141   C     0.40949   0.49488   0.54652   0.00000  Uiso   1.00
C142   C     0.43048   0.59001   0.51561   0.00000  Uiso   1.00
C143   C     0.47305   0.69255   0.47285   0.00000  Uiso   1.00
C144   C     0.34473   0.61498   0.62838   0.00000  Uiso   1.00
C145   C     0.34505   0.58439   0.70020   0.00000  Uiso   1.00
C146   C     0.33657   0.72046   0.73956   0.00000  Uiso   1.00
C147   C     0.32477   0.89846   0.82640   0.00000  Uiso   1.00
C148   C     0.32429   0.47530   0.51372   0.00000  Uiso   1.00
C149   C     0.30741   0.32728   0.48914   0.00000  Uiso   1.00
C150   C     0.28171   0.34576   0.43198   0.00000  Uiso   1.00
C151   C     0.23817   0.30690   0.34079   0.00000  Uiso   1.00
C152   C     0.33752   0.78062   0.51774   0.00000  Uiso   1.00
C153   C     0.37124   0.72714   0.51351   0.00000  Uiso   1.00
C154   C     0.39219   0.82241   0.48258   0.00000  Uiso   1.00
C155   C     0.42197   0.75109   0.48416   0.00000  Uiso   1.00
C156   C     0.33624   0.77577   0.59700   0.00000  Uiso   1.00
C157   C     0.32775   0.91192   0.63626   0.00000  Uiso   1.00
C158   C     0.32806   0.88155   0.70811   0.00000  Uiso   1.00
C159   C     0.31579   0.63610   0.48233   0.00000  Uiso   1.00
C160   C     0.29011   0.65481   0.42520   0.00000  Uiso   1.00
C161   C     0.27320   0.50685   0.40053   0.00000  Uiso   1.00
H162   H     0.35977   0.35940   0.59998   0.00000  Uiso   1.00
H163   H     0.41606   0.37044   0.57083   0.00000  Uiso   1.00
H164   H     0.35162   0.45994   0.72447   0.00000  Uiso   1.00
H165   H     0.31399   0.20287   0.51345   0.00000  Uiso   1.00
H166   H     0.47472   0.45363   0.52469   0.00000  Uiso   1.00
H167   H     0.33885   0.64231   0.84866   0.00000  Uiso   1.00
H168   H     0.25950   0.10023   0.40367   0.00000  Uiso   1.00
H169   H     0.33090   0.90581   0.49330   0.00000  Uiso   1.00
H170   H     0.38561   0.94684   0.45830   0.00000  Uiso   1.00
H171   H     0.32117   0.03633   0.61195   0.00000  Uiso   1.00
H172   H     0.28354   0.77927   0.40092   0.00000  Uiso   1.00
H173   H     0.45001   0.92146   0.43336   0.00000  Uiso   1.00
H174   H     0.31413   0.11013   0.75733   0.00000  Uiso   1.00
H175   H     0.23478   0.56806   0.31234   0.00000  Uiso   1.00
O176   O     0.49888   0.70470   0.45794   0.00000  Uiso   1.00
O177   O     0.32061   0.95222   0.88297   0.00000  Uiso   1.00
O178   O     0.21650   0.24104   0.29915   0.00000  Uiso   1.00
N179   N     0.46140   0.55808   0.50799   0.00000  Uiso   1.00
N180   N     0.33437   0.73450   0.81088   0.00000  Uiso   1.00
N181   N     0.26017   0.22771   0.39486   0.00000  Uiso   1.00
N182   N     0.44810   0.80982   0.45884   0.00000  Uiso   1.00
N183   N     0.32107   0.98623   0.76173   0.00000  Uiso   1.00
N184   N     0.24688   0.47944   0.34572   0.00000  Uiso   1.00
C185   C     0.85316   0.01542   0.07553   0.00000  Uiso   1.00
C186   C     0.87974   0.93366   0.04490   0.00000  Uiso   1.00
C187   C     0.90949   0.00512   0.04652   0.00000  Uiso   1.00
C188   C     0.93048   0.90999   0.01561   0.00000  Uiso   1.00
C189   C     0.97305   0.80745   0.97285   0.00000  Uiso   1.00
C190   C     0.84473   0.88502   0.12838   0.00000  Uiso   1.00
C191   C     0.84505   0.91561   0.20020   0.00000  Uiso   1.00
C192   C     0.83657   0.77954   0.23956   0.00000  Uiso   1.00
C193   C     0.82477   0.60154   0.32640   0.00000  Uiso   1.00
C194   C     0.82429   0.02470   0.01372   0.00000  Uiso   1.00
C195   C     0.80741   0.17272   0.98914   0.00000  Uiso   1.00
C196   C     0.78171   0.15424   0.93198   0.00000  Uiso   1.00
C197   C     0.73817   0.19310   0.84079   0.00000  Uiso   1.00
C198   C     0.83752   0.71938   0.01774   0.00000  Uiso   1.00
C199   C     0.87124   0.77286   0.01351   0.00000  Uiso   1.00
C200   C     0.89219   0.67759   0.98258   0.00000  Uiso   1.00
C201   C     0.92197   0.74891   0.98416   0.00000  Uiso   1.00
C202   C     0.83624   0.72423   0.09700   0.00000  Uiso   1.00
C203   C     0.82775   0.58808   0.13626   0.00000  Uiso   1.00
C204   C     0.82806   0.61845   0.20811   0.00000  Uiso   1.00
C205   C     0.81579   0.86390   0.98233   0.00000  Uiso   1.00
C206   C     0.79011   0.84519   0.92520   0.00000  Uiso   1.00
C207   C     0.77320   0.99315   0.90053   0.00000  Uiso   1.00
H208   H     0.85977   0.14060   0.09998   0.00000  Uiso   1.00
H209   H     0.91606   0.12956   0.07083   0.00000  Uiso   1.00
H210   H     0.85162   0.04006   0.22447   0.00000  Uiso   1.00
H211   H     0.81399   0.29713   0.01345   0.00000  Uiso   1.00
H212   H     0.97472   0.04637   0.02469   0.00000  Uiso   1.00
H213   H     0.83885   0.85769   0.34866   0.00000  Uiso   1.00
H214   H     0.75950   0.39977   0.90367   0.00000  Uiso   1.00
H215   H     0.83090   0.59419   0.99330   0.00000  Uiso   1.00
H216   H     0.88561   0.55316   0.95830   0.00000  Uiso   1.00
H217   H     0.82117   0.46367   0.11195   0.00000  Uiso   1.00
H218   H     0.78354   0.72073   0.90092   0.00000  Uiso   1.00
H219   H     0.95001   0.57854   0.93336   0.00000  Uiso   1.00
H220   H     0.81413   0.38987   0.25733   0.00000  Uiso   1.00
H221   H     0.73478   0.93194   0.81234   0.00000  Uiso   1.00
O222   O     0.99888   0.79530   0.95794   0.00000  Uiso   1.00
O223   O     0.82061   0.54778   0.38297   0.00000  Uiso   1.00
O224   O     0.71650   0.25896   0.79915   0.00000  Uiso   1.00
N225   N     0.96140   0.94192   0.00799   0.00000  Uiso   1.00
N226   N     0.83437   0.76550   0.31088   0.00000  Uiso   1.00
N227   N     0.76017   0.27229   0.89486   0.00000  Uiso   1.00
N228   N     0.94810   0.69018   0.95884   0.00000  Uiso   1.00
N229   N     0.82107   0.51377   0.26173   0.00000  Uiso   1.00
N230   N     0.74688   0.02056   0.84572   0.00000  Uiso   1.00
C231   C     0.35316   0.51542   0.07553   0.00000  Uiso   1.00
C232   C     0.37974   0.43366   0.04490   0.00000  Uiso   1.00
C233   C     0.40949   0.50512   0.04652   0.00000  Uiso   1.00
C234   C     0.43048   0.40999   0.01561   0.00000  Uiso   1.00
C235   C     0.47305   0.30745   0.97285   0.00000  Uiso   1.00
C236   C     0.34473   0.38502   0.12838   0.00000  Uiso   1.00
C237   C     0.34505   0.41561   0.20020   0.00000  Uiso   1.00
C238   C     0.33657   0.27954   0.23956   0.00000  Uiso   1.00
C239   C     0.32477   0.10154   0.32640   0.00000  Uiso   1.00
C240   C     0.32429   0.52470   0.01372   0.00000  Uiso   1.00
C241   C     0.30741   0.67272   0.98914   0.00000  Uiso   1.00
C242   C     0.28171   0.65424   0.93198   0.00000  Uiso   1.00
C243   C     0.23817   0.69310   0.84079   0.00000  Uiso   1.00
C244   C     0.33752   0.21938   0.01774   0.00000  Uiso   1.00
C245   C     0.37124   0.27286   0.01351   0.00000  Uiso   1.00
C246   C     0.39219   0.17759   0.98258   0.00000  Uiso   1.00
C247   C     0.42197   0.24891   0.98416   0.00000  Uiso   1.00
C248   C     0.33624   0.22423   0.09700   0.00000  Uiso   1.00
C249   C     0.32775   0.08808   0.13626   0.00000  Uiso   1.00
C250   C     0.32806   0.11845   0.20811   0.00000  Uiso   1.00
C251   C     0.31579   0.36390   0.98233   0.00000  Uiso   1.00
C252   C     0.29011   0.34519   0.92520   0.00000  Uiso   1.00
C253   C     0.27320   0.49315   0.90053   0.00000  Uiso   1.00
H254   H     0.35977   0.64060   0.09998   0.00000  Uiso   1.00
H255   H     0.41606   0.62956   0.07083   0.00000  Uiso   1.00
H256   H     0.35162   0.54006   0.22447   0.00000  Uiso   1.00
H257   H     0.31399   0.79713   0.01345   0.00000  Uiso   1.00
H258   H     0.47472   0.54637   0.02469   0.00000  Uiso   1.00
H259   H     0.33885   0.35769   0.34866   0.00000  Uiso   1.00
H260   H     0.25950   0.89977   0.90367   0.00000  Uiso   1.00
H261   H     0.33090   0.09419   0.99330   0.00000  Uiso   1.00
H262   H     0.38561   0.05316   0.95830   0.00000  Uiso   1.00
H263   H     0.32117   0.96367   0.11195   0.00000  Uiso   1.00
H264   H     0.28354   0.22073   0.90092   0.00000  Uiso   1.00
H265   H     0.45001   0.07854   0.93336   0.00000  Uiso   1.00
H266   H     0.31413   0.88987   0.25733   0.00000  Uiso   1.00
H267   H     0.23478   0.43194   0.81234   0.00000  Uiso   1.00
O268   O     0.49888   0.29530   0.95794   0.00000  Uiso   1.00
O269   O     0.32061   0.04778   0.38297   0.00000  Uiso   1.00
O270   O     0.21650   0.75896   0.79915   0.00000  Uiso   1.00
N271   N     0.46140   0.44192   0.00799   0.00000  Uiso   1.00
N272   N     0.33437   0.26550   0.31088   0.00000  Uiso   1.00
N273   N     0.26017   0.77229   0.89486   0.00000  Uiso   1.00
N274   N     0.44810   0.19018   0.95884   0.00000  Uiso   1.00
N275   N     0.32107   0.01377   0.26173   0.00000  Uiso   1.00
N276   N     0.24688   0.52056   0.84572   0.00000  Uiso   1.00
C277   C     0.14684   0.01542   0.42447   0.00000  Uiso   1.00
C278   C     0.12026   0.93366   0.45510   0.00000  Uiso   1.00
C279   C     0.09051   0.00512   0.45348   0.00000  Uiso   1.00
C280   C     0.06952   0.90999   0.48439   0.00000  Uiso   1.00
C281   C     0.02695   0.80745   0.52715   0.00000  Uiso   1.00
C282   C     0.15527   0.88502   0.37162   0.00000  Uiso   1.00
C283   C     0.15495   0.91561   0.29980   0.00000  Uiso   1.00
C284   C     0.16343   0.77954   0.26044   0.00000  Uiso   1.00
C285   C     0.17523   0.60154   0.17360   0.00000  Uiso   1.00
C286   C     0.17571   0.02470   0.48628   0.00000  Uiso   1.00
C287   C     0.19259   0.17272   0.51086   0.00000  Uiso   1.00
C288   C     0.21829   0.15424   0.56802   0.00000  Uiso   1.00
C289   C     0.26183   0.19310   0.65921   0.00000  Uiso   1.00
C290   C     0.16248   0.71938   0.48226   0.00000  Uiso   1.00
C291   C     0.12876   0.77286   0.48649   0.00000  Uiso   1.00
C292   C     0.10781   0.67759   0.51742   0.00000  Uiso   1.00
C293   C     0.07803   0.74891   0.51584   0.00000  Uiso   1.00
C294   C     0.16376   0.72423   0.40300   0.00000  Uiso   1.00
C295   C     0.17225   0.58808   0.36374   0.00000  Uiso   1.00
C296   C     0.17194   0.61845   0.29189   0.00000  Uiso   1.00
C297   C     0.18421   0.86390   0.51767   0.00000  Uiso   1.00
C298   C     0.20989   0.84519   0.57480   0.00000  Uiso   1.00
C299   C     0.22680   0.99315   0.59947   0.00000  Uiso   1.00
H300   H     0.14023   0.14060   0.40002   0.00000  Uiso   1.00
H301   H     0.08394   0.12956   0.42917   0.00000  Uiso   1.00
H302   H     0.14838   0.04006   0.27553   0.00000  Uiso   1.00
H303   H     0.18601   0.29713   0.48655   0.00000  Uiso   1.00
H304   H     0.02528   0.04637   0.47531   0.00000  Uiso   1.00
H305   H     0.16115   0.85769   0.15134   0.00000  Uiso   1.00
H306   H     0.24050   0.39977   0.59633   0.00000  Uiso   1.00
H307   H     0.16910   0.59419   0.50670   0.00000  Uiso   1.00
H308   H     0.11439   0.55316   0.54170   0.00000  Uiso   1.00
H309   H     0.17883   0.46367   0.38805   0.00000  Uiso   1.00
H310   H     0.21646   0.72073   0.59908   0.00000  Uiso   1.00
H311   H     0.04999   0.57854   0.56664   0.00000  Uiso   1.00
H312   H     0.18587   0.38987   0.24267   0.00000  Uiso   1.00
H313   H     0.26522   0.93194   0.68766   0.00000  Uiso   1.00
O314   O     0.00112   0.79530   0.54206   0.00000  Uiso   1.00
O315   O     0.17939   0.54778   0.11703   0.00000  Uiso   1.00
O316   O     0.28350   0.25896   0.70085   0.00000  Uiso   1.00
N317   N     0.03860   0.94192   0.49201   0.00000  Uiso   1.00
N318   N     0.16563   0.76550   0.18912   0.00000  Uiso   1.00
N319   N     0.23983   0.27229   0.60514   0.00000  Uiso   1.00
N320   N     0.05190   0.69018   0.54116   0.00000  Uiso   1.00
N321   N     0.17893   0.51377   0.23827   0.00000  Uiso   1.00
N322   N     0.25312   0.02056   0.65428   0.00000  Uiso   1.00
C323   C     0.64684   0.51542   0.42447   0.00000  Uiso   1.00
C324   C     0.62026   0.43366   0.45510   0.00000  Uiso   1.00
C325   C     0.59051   0.50512   0.45348   0.00000  Uiso   1.00
C326   C     0.56952   0.40999   0.48439   0.00000  Uiso   1.00
C327   C     0.52695   0.30745   0.52715   0.00000  Uiso   1.00
C328   C     0.65527   0.38502   0.37162   0.00000  Uiso   1.00
C329   C     0.65495   0.41561   0.29980   0.00000  Uiso   1.00
C330   C     0.66343   0.27954   0.26044   0.00000  Uiso   1.00
C331   C     0.67523   0.10154   0.17360   0.00000  Uiso   1.00
C332   C     0.67571   0.52470   0.48628   0.00000  Uiso   1.00
C333   C     0.69259   0.67272   0.51086   0.00000  Uiso   1.00
C334   C     0.71829   0.65424   0.56802   0.00000  Uiso   1.00
C335   C     0.76183   0.69310   0.65921   0.00000  Uiso   1.00
C336   C     0.66248   0.21938   0.48226   0.00000  Uiso   1.00
C337   C     0.62876   0.27286   0.48649   0.00000  Uiso   1.00
C338   C     0.60781   0.17759   0.51742   0.00000  Uiso   1.00
C339   C     0.57803   0.24891   0.51584   0.00000  Uiso   1.00
C340   C     0.66376   0.22423   0.40300   0.00000  Uiso   1.00
C341   C     0.67225   0.08808   0.36374   0.00000  Uiso   1.00
C342   C     0.67194   0.11845   0.29189   0.00000  Uiso   1.00
C343   C     0.68421   0.36390   0.51767   0.00000  Uiso   1.00
C344   C     0.70989   0.34519   0.57480   0.00000  Uiso   1.00
C345   C     0.72680   0.49315   0.59947   0.00000  Uiso   1.00
H346   H     0.64023   0.64060   0.40002   0.00000  Uiso   1.00
H347   H     0.58394   0.62956   0.42917   0.00000  Uiso   1.00
H348   H     0.64838   0.54006   0.27553   0.00000  Uiso   1.00
H349   H     0.68601   0.79713   0.48655   0.00000  Uiso   1.00
H350   H     0.52528   0.54637   0.47531   0.00000  Uiso   1.00
H351   H     0.66115   0.35769   0.15134   0.00000  Uiso   1.00
H352   H     0.74050   0.89977   0.59633   0.00000  Uiso   1.00
H353   H     0.66910   0.09419   0.50670   0.00000  Uiso   1.00
H354   H     0.61439   0.05316   0.54170   0.00000  Uiso   1.00
H355   H     0.67883   0.96367   0.38805   0.00000  Uiso   1.00
H356   H     0.71646   0.22073   0.59908   0.00000  Uiso   1.00
H357   H     0.54999   0.07854   0.56664   0.00000  Uiso   1.00
H358   H     0.68587   0.88987   0.24267   0.00000  Uiso   1.00
H359   H     0.76522   0.43194   0.68766   0.00000  Uiso   1.00
O360   O     0.50112   0.29530   0.54206   0.00000  Uiso   1.00
O361   O     0.67939   0.04778   0.11703   0.00000  Uiso   1.00
O362   O     0.78350   0.75896   0.70085   0.00000  Uiso   1.00
N363   N     0.53860   0.44192   0.49201   0.00000  Uiso   1.00
N364   N     0.66563   0.26550   0.18912   0.00000  Uiso   1.00
N365   N     0.73983   0.77229   0.60514   0.00000  Uiso   1.00
N366   N     0.55190   0.19018   0.54116   0.00000  Uiso   1.00
N367   N     0.67893   0.01377   0.23827   0.00000  Uiso   1.00
N368   N     0.75312   0.52056   0.65428   0.00000  Uiso   1.00
