data_job_06665
_audit_creation_date              2018-12-19
_audit_creation_method            'Materials Studio'
_symmetry_space_group_name_H-M    'P1'
_symmetry_Int_Tables_number       1
_symmetry_cell_setting            triclinic
loop_
_symmetry_equiv_pos_as_xyz
  x,y,z
_cell_length_a                    20.1088
_cell_length_b                    21.3941
_cell_length_c                    23.8954
_cell_angle_alpha                 103.3849
_cell_angle_beta                  74.1439
_cell_angle_gamma                 66.9190
loop_
_atom_site_label
_atom_site_type_symbol
_atom_site_fract_x
_atom_site_fract_y
_atom_site_fract_z
_atom_site_U_iso_or_equiv
_atom_site_adp_type
_atom_site_occupancy
C1     C     0.63443   0.15089   0.24472   0.00000  Uiso   1.00
C2     C     0.63858   0.08216   0.25546   0.00000  Uiso   1.00
C3     C     0.67416   0.05074   0.29138   0.00000  Uiso   1.00
C4     C     0.67165   0.98792   0.29537   0.00000  Uiso   1.00
C5     C     0.68372   0.88578   0.31672   0.00000  Uiso   1.00
C6     C     0.67147   0.12819   0.17354   0.00000  Uiso   1.00
C7     C     0.73469   0.13549   0.14058   0.00000  Uiso   1.00
C8     C     0.75986   0.11143   0.07561   0.00000  Uiso   1.00
C9     C     0.82295   0.08080   0.96977   0.00000  Uiso   1.00
C10    C     0.54684   0.20416   0.26624   0.00000  Uiso   1.00
C11    C     0.50528   0.27534   0.31122   0.00000  Uiso   1.00
C12    C     0.42552   0.31524   0.32429   0.00000  Uiso   1.00
C13    C     0.29512   0.40257   0.36239   0.00000  Uiso   1.00
C14    C     0.56671   0.09520   0.18794   0.00000  Uiso   1.00
C15    C     0.60180   0.05191   0.22462   0.00000  Uiso   1.00
C16    C     0.59923   0.98913   0.22856   0.00000  Uiso   1.00
C17    C     0.63480   0.95762   0.26448   0.00000  Uiso   1.00
C18    C     0.63469   0.09794   0.14270   0.00000  Uiso   1.00
C19    C     0.65977   0.07387   0.07776   0.00000  Uiso   1.00
C20    C     0.72301   0.08113   0.04471   0.00000  Uiso   1.00
C21    C     0.51006   0.17391   0.23540   0.00000  Uiso   1.00
C22    C     0.43035   0.21372   0.24840   0.00000  Uiso   1.00
C23    C     0.38867   0.28494   0.29339   0.00000  Uiso   1.00
H24    H     0.66307   0.17444   0.26872   0.00000  Uiso   1.00
H25    H     0.70262   0.07416   0.31524   0.00000  Uiso   1.00
H26    H     0.76314   0.15890   0.16446   0.00000  Uiso   1.00
H27    H     0.53376   0.29872   0.33507   0.00000  Uiso   1.00
H28    H     0.73028   0.94963   0.35318   0.00000  Uiso   1.00
H29    H     0.85786   0.12833   0.03526   0.00000  Uiso   1.00
H30    H     0.37417   0.42318   0.39504   0.00000  Uiso   1.00
H31    H     0.53808   0.07165   0.16393   0.00000  Uiso   1.00
H32    H     0.57077   0.96573   0.20469   0.00000  Uiso   1.00
H33    H     0.63129   0.05047   0.05391   0.00000  Uiso   1.00
H34    H     0.40191   0.19030   0.22453   0.00000  Uiso   1.00
H35    H     0.62326   0.86162   0.26346   0.00000  Uiso   1.00
H36    H     0.75084   0.04033   0.94553   0.00000  Uiso   1.00
H37    H     0.26716   0.33517   0.30531   0.00000  Uiso   1.00
O38    O     0.70056   0.83779   0.33701   0.00000  Uiso   1.00
O39    O     0.86792   0.07226   0.91991   0.00000  Uiso   1.00
O40    O     0.23335   0.45908   0.39193   0.00000  Uiso   1.00
N41    N     0.70059   0.94346   0.32648   0.00000  Uiso   1.00
N42    N     0.81988   0.11053   0.02924   0.00000  Uiso   1.00
N43    N     0.36768   0.38619   0.36559   0.00000  Uiso   1.00
N44    N     0.64301   0.89610   0.27820   0.00000  Uiso   1.00
N45    N     0.76230   0.06317   0.98096   0.00000  Uiso   1.00
N46    N     0.31010   0.33884   0.31731   0.00000  Uiso   1.00
C47    C     0.85861   0.53906   0.47261   0.00000  Uiso   1.00
C48    C     0.82639   0.59372   0.53965   0.00000  Uiso   1.00
C49    C     0.86661   0.59017   0.57867   0.00000  Uiso   1.00
C50    C     0.82687   0.64546   0.63838   0.00000  Uiso   1.00
C51    C     0.78858   0.72168   0.73947   0.00000  Uiso   1.00
C52    C     0.79979   0.51094   0.47185   0.00000  Uiso   1.00
C53    C     0.81766   0.43779   0.45384   0.00000  Uiso   1.00
C54    C     0.75552   0.42340   0.45646   0.00000  Uiso   1.00
C55    C     0.67595   0.37109   0.45224   0.00000  Uiso   1.00
C56    C     0.85225   0.58413   0.43143   0.00000  Uiso   1.00
C57    C     0.91421   0.57251   0.37944   0.00000  Uiso   1.00
C58    C     0.89623   0.61972   0.34802   0.00000  Uiso   1.00
C59    C     0.89809   0.68105   0.28104   0.00000  Uiso   1.00
C60    C     0.71650   0.64355   0.50925   0.00000  Uiso   1.00
C61    C     0.74921   0.65047   0.55956   0.00000  Uiso   1.00
C62    C     0.70939   0.70578   0.61922   0.00000  Uiso   1.00
C63    C     0.74955   0.70232   0.65832   0.00000  Uiso   1.00
C64    C     0.72261   0.56769   0.49175   0.00000  Uiso   1.00
C65    C     0.66044   0.55340   0.49439   0.00000  Uiso   1.00
C66    C     0.67820   0.48025   0.47640   0.00000  Uiso   1.00
C67    C     0.77506   0.64088   0.45134   0.00000  Uiso   1.00
C68    C     0.75698   0.68812   0.41999   0.00000  Uiso   1.00
C69    C     0.81890   0.67658   0.36796   0.00000  Uiso   1.00
H70    H     0.91870   0.49487   0.45711   0.00000  Uiso   1.00
H71    H     0.92634   0.54624   0.56325   0.00000  Uiso   1.00
H72    H     0.87740   0.39388   0.43844   0.00000  Uiso   1.00
H73    H     0.97393   0.52858   0.36405   0.00000  Uiso   1.00
H74    H     0.90077   0.62820   0.68972   0.00000  Uiso   1.00
H75    H     0.79757   0.30695   0.42652   0.00000  Uiso   1.00
H76    H     0.00112   0.59099   0.26965   0.00000  Uiso   1.00
H77    H     0.65641   0.68774   0.52475   0.00000  Uiso   1.00
H78    H     0.64966   0.74970   0.63461   0.00000  Uiso   1.00
H79    H     0.60072   0.59734   0.50979   0.00000  Uiso   1.00
H80    H     0.69725   0.73204   0.43540   0.00000  Uiso   1.00
H81    H     0.67620   0.79334   0.74763   0.00000  Uiso   1.00
H82    H     0.57300   0.47208   0.48443   0.00000  Uiso   1.00
H83    H     0.77656   0.75612   0.32757   0.00000  Uiso   1.00
O84    O     0.78877   0.74803   0.78973   0.00000  Uiso   1.00
O85    O     0.65338   0.32656   0.44441   0.00000  Uiso   1.00
O86    O     0.92044   0.69921   0.23861   0.00000  Uiso   1.00
N87    N     0.84885   0.65857   0.68827   0.00000  Uiso   1.00
N88    N     0.75236   0.35822   0.44220   0.00000  Uiso   1.00
N89    N     0.94267   0.62376   0.29553   0.00000  Uiso   1.00
N90    N     0.72801   0.74743   0.71943   0.00000  Uiso   1.00
N91    N     0.63153   0.44708   0.47337   0.00000  Uiso   1.00
N92    N     0.82183   0.71262   0.32670   0.00000  Uiso   1.00
C93    C     0.19954   0.02110   0.97231   0.00000  Uiso   1.00
C94    C     0.25583   0.03873   0.99588   0.00000  Uiso   1.00
C95    C     0.27279   0.02574   0.04592   0.00000  Uiso   1.00
C96    C     0.32586   0.04581   0.06011   0.00000  Uiso   1.00
C97    C     0.40793   0.06836   0.10200   0.00000  Uiso   1.00
C98    C     0.13879   0.09328   0.97459   0.00000  Uiso   1.00
C99    C     0.05734   0.12614   0.00672   0.00000  Uiso   1.00
C100   C     0.01189   0.19213   0.00298   0.00000  Uiso   1.00
C101   C     0.91226   0.29934   0.01178   0.00000  Uiso   1.00
C102   C     0.24791   0.97156   0.90274   0.00000  Uiso   1.00
C103   C     0.25821   0.90208   0.87446   0.00000  Uiso   1.00
C104   C     0.30461   0.86559   0.81022   0.00000  Uiso   1.00
C105   C     0.37441   0.78382   0.70746   0.00000  Uiso   1.00
C106   C     0.26363   0.07984   0.90851   0.00000  Uiso   1.00
C107   C     0.29063   0.07064   0.96122   0.00000  Uiso   1.00
C108   C     0.34370   0.09073   0.97534   0.00000  Uiso   1.00
C109   C     0.36073   0.07777   0.02539   0.00000  Uiso   1.00
C110   C     0.17360   0.12519   0.93994   0.00000  Uiso   1.00
C111   C     0.12825   0.19113   0.93614   0.00000  Uiso   1.00
C112   C     0.04676   0.22409   0.96826   0.00000  Uiso   1.00
C113   C     0.28273   0.00346   0.86809   0.00000  Uiso   1.00
C114   C     0.32912   0.96708   0.80388   0.00000  Uiso   1.00
C115   C     0.33948   0.89756   0.77550   0.00000  Uiso   1.00
H116   H     0.17243   0.99626   0.99928   0.00000  Uiso   1.00
H117   H     0.24583   0.00105   0.07273   0.00000  Uiso   1.00
H118   H     0.03042   0.10143   0.03353   0.00000  Uiso   1.00
H119   H     0.23126   0.87741   0.90129   0.00000  Uiso   1.00
H120   H     0.34254   0.02045   0.13889   0.00000  Uiso   1.00
H121   H     0.88834   0.23210   0.05622   0.00000  Uiso   1.00
H122   H     0.31183   0.75971   0.77736   0.00000  Uiso   1.00
H123   H     0.29073   0.10469   0.88153   0.00000  Uiso   1.00
H124   H     0.37062   0.11542   0.94851   0.00000  Uiso   1.00
H125   H     0.15521   0.21581   0.90932   0.00000  Uiso   1.00
H126   H     0.35605   0.99178   0.77708   0.00000  Uiso   1.00
H127   H     0.44382   0.11328   0.03807   0.00000  Uiso   1.00
H128   H     0.98962   0.32494   0.95540   0.00000  Uiso   1.00
H129   H     0.41312   0.85254   0.67655   0.00000  Uiso   1.00
O130   O     0.44358   0.07200   0.13468   0.00000  Uiso   1.00
O131   O     0.84769   0.34967   0.02621   0.00000  Uiso   1.00
O132   O     0.40331   0.72989   0.66036   0.00000  Uiso   1.00
N133   N     0.35542   0.04081   0.10596   0.00000  Uiso   1.00
N134   N     0.93077   0.23870   0.02868   0.00000  Uiso   1.00
N135   N     0.32669   0.79706   0.76797   0.00000  Uiso   1.00
N136   N     0.40992   0.09076   0.05171   0.00000  Uiso   1.00
N137   N     0.98527   0.28865   0.97443   0.00000  Uiso   1.00
N138   N     0.38119   0.84701   0.71372   0.00000  Uiso   1.00
C139   C     0.25549   0.98204   0.62359   0.00000  Uiso   1.00
C140   C     0.25251   0.91545   0.58667   0.00000  Uiso   1.00
C141   C     0.25167   0.85951   0.60636   0.00000  Uiso   1.00
C142   C     0.24884   0.80344   0.56578   0.00000  Uiso   1.00
C143   C     0.24447   0.70006   0.51732   0.00000  Uiso   1.00
C144   C     0.18373   0.04942   0.63015   0.00000  Uiso   1.00
C145   C     0.12507   0.10613   0.68638   0.00000  Uiso   1.00
C146   C     0.06434   0.16284   0.68239   0.00000  Uiso   1.00
C147   C     0.95322   0.26748   0.70143   0.00000  Uiso   1.00
C148   C     0.32780   0.98120   0.58057   0.00000  Uiso   1.00
C149   C     0.39026   0.98056   0.59512   0.00000  Uiso   1.00
C150   C     0.45082   0.97985   0.54940   0.00000  Uiso   1.00
C151   C     0.56338   0.97857   0.49146   0.00000  Uiso   1.00
C152   C     0.25197   0.98194   0.51651   0.00000  Uiso   1.00
C153   C     0.25060   0.91539   0.52852   0.00000  Uiso   1.00
C154   C     0.24777   0.85939   0.48789   0.00000  Uiso   1.00
C155   C     0.24693   0.80338   0.50751   0.00000  Uiso   1.00
C156   C     0.18182   0.04936   0.57199   0.00000  Uiso   1.00
C157   C     0.12117   0.10601   0.56792   0.00000  Uiso   1.00
C158   C     0.06242   0.16278   0.62413   0.00000  Uiso   1.00
C159   C     0.32589   0.98114   0.52241   0.00000  Uiso   1.00
C160   C     0.38636   0.98044   0.47666   0.00000  Uiso   1.00
C161   C     0.44890   0.97980   0.49114   0.00000  Uiso   1.00
H162   H     0.25697   0.98209   0.66887   0.00000  Uiso   1.00
H163   H     0.25314   0.85958   0.65137   0.00000  Uiso   1.00
H164   H     0.12657   0.10616   0.73138   0.00000  Uiso   1.00
H165   H     0.39172   0.98061   0.64013   0.00000  Uiso   1.00
H166   H     0.24802   0.72374   0.60634   0.00000  Uiso   1.00
H167   H     0.98114   0.24368   0.77504   0.00000  Uiso   1.00
H168   H     0.54026   0.97893   0.58263   0.00000  Uiso   1.00
H169   H     0.25048   0.98189   0.47123   0.00000  Uiso   1.00
H170   H     0.24629   0.85936   0.44289   0.00000  Uiso   1.00
H171   H     0.11971   0.10595   0.52290   0.00000  Uiso   1.00
H172   H     0.38486   0.98039   0.43166   0.00000  Uiso   1.00
H173   H     0.24246   0.72356   0.43713   0.00000  Uiso   1.00
H174   H     0.97558   0.24351   0.60583   0.00000  Uiso   1.00
H175   H     0.53470   0.97876   0.41342   0.00000  Uiso   1.00
O176   O     0.24257   0.64306   0.50666   0.00000  Uiso   1.00
O177   O     0.89245   0.32521   0.72800   0.00000  Uiso   1.00
O178   O     0.62600   0.97786   0.47556   0.00000  Uiso   1.00
N179   N     0.24730   0.74050   0.57040   0.00000  Uiso   1.00
N180   N     0.99778   0.22661   0.72813   0.00000  Uiso   1.00
N181   N     0.52050   0.97912   0.54824   0.00000  Uiso   1.00
N182   N     0.24431   0.74041   0.47935   0.00000  Uiso   1.00
N183   N     0.99479   0.22652   0.63708   0.00000  Uiso   1.00
N184   N     0.51751   0.97902   0.45719   0.00000  Uiso   1.00
C185   C     0.13925   0.54569   0.70908   0.00000  Uiso   1.00
C186   C     0.22257   0.53613   0.68703   0.00000  Uiso   1.00
C187   C     0.28459   0.48987   0.69778   0.00000  Uiso   1.00
C188   C     0.35624   0.48897   0.67372   0.00000  Uiso   1.00
C189   C     0.48422   0.46743   0.64456   0.00000  Uiso   1.00
C190   C     0.12337   0.52863   0.65003   0.00000  Uiso   1.00
C191   C     0.10197   0.47608   0.62968   0.00000  Uiso   1.00
C192   C     0.09010   0.46889   0.57447   0.00000  Uiso   1.00
C193   C     0.06401   0.43576   0.48790   0.00000  Uiso   1.00
C194   C     0.08345   0.62758   0.74778   0.00000  Uiso   1.00
C195   C     0.02847   0.65822   0.80962   0.00000  Uiso   1.00
C196   C     0.98298   0.73434   0.83670   0.00000  Uiso   1.00
C197   C     0.89491   0.85483   0.90190   0.00000  Uiso   1.00
C198   C     0.15622   0.62636   0.64722   0.00000  Uiso   1.00
C199   C     0.23178   0.57994   0.65343   0.00000  Uiso   1.00
C200   C     0.30336   0.57912   0.62934   0.00000  Uiso   1.00
C201   C     0.36547   0.53287   0.64006   0.00000  Uiso   1.00
C202   C     0.13258   0.57245   0.61643   0.00000  Uiso   1.00
C203   C     0.12074   0.56534   0.56124   0.00000  Uiso   1.00
C204   C     0.09934   0.51279   0.54081   0.00000  Uiso   1.00
C205   C     0.09267   0.67140   0.71418   0.00000  Uiso   1.00
C206   C     0.04725   0.74748   0.74117   0.00000  Uiso   1.00
C207   C     0.99221   0.77823   0.80304   0.00000  Uiso   1.00
H208   H     0.13207   0.51157   0.73523   0.00000  Uiso   1.00
H209   H     0.27743   0.45596   0.72378   0.00000  Uiso   1.00
H210   H     0.09483   0.44219   0.65570   0.00000  Uiso   1.00
H211   H     0.02135   0.62430   0.83560   0.00000  Uiso   1.00
H212   H     0.44266   0.41361   0.69625   0.00000  Uiso   1.00
H213   H     0.05762   0.38458   0.55270   0.00000  Uiso   1.00
H214   H     0.90266   0.76860   0.93207   0.00000  Uiso   1.00
H215   H     0.16339   0.66047   0.62105   0.00000  Uiso   1.00
H216   H     0.31047   0.61304   0.60334   0.00000  Uiso   1.00
H217   H     0.12788   0.59926   0.53525   0.00000  Uiso   1.00
H218   H     0.05440   0.78137   0.71516   0.00000  Uiso   1.00
H219   H     0.46948   0.54109   0.59849   0.00000  Uiso   1.00
H220   H     0.08443   0.51207   0.45494   0.00000  Uiso   1.00
H221   H     0.92948   0.89608   0.83431   0.00000  Uiso   1.00
O222   O     0.55226   0.44344   0.63776   0.00000  Uiso   1.00
O223   O     0.04709   0.40537   0.44943   0.00000  Uiso   1.00
O224   O     0.84380   0.90919   0.94715   0.00000  Uiso   1.00
N225   N     0.42878   0.45014   0.67568   0.00000  Uiso   1.00
N226   N     0.06880   0.42299   0.54146   0.00000  Uiso   1.00
N227   N     0.92392   0.78201   0.89614   0.00000  Uiso   1.00
N228   N     0.44321   0.51873   0.62308   0.00000  Uiso   1.00
N229   N     0.08323   0.49159   0.48886   0.00000  Uiso   1.00
N230   N     0.93835   0.85061   0.84354   0.00000  Uiso   1.00
C231   C     0.55993   0.36932   0.92251   0.00000  Uiso   1.00
C232   C     0.48345   0.43992   0.96750   0.00000  Uiso   1.00
C233   C     0.46908   0.48345   0.02703   0.00000  Uiso   1.00
C234   C     0.39534   0.54585   0.06083   0.00000  Uiso   1.00
C235   C     0.28532   0.65273   0.13446   0.00000  Uiso   1.00
C236   C     0.58766   0.38105   0.86163   0.00000  Uiso   1.00
C237   C     0.66091   0.37508   0.83216   0.00000  Uiso   1.00
C238   C     0.67490   0.38793   0.77684   0.00000  Uiso   1.00
C239   C     0.72668   0.40336   0.68609   0.00000  Uiso   1.00
C240   C     0.53644   0.30990   0.90697   0.00000  Uiso   1.00
C241   C     0.56664   0.24409   0.91561   0.00000  Uiso   1.00
C242   C     0.53752   0.19702   0.89844   0.00000  Uiso   1.00
C243   C     0.50977   0.10197   0.87810   0.00000  Uiso   1.00
C244   C     0.45452   0.40273   0.87666   0.00000  Uiso   1.00
C245   C     0.42620   0.45806   0.94259   0.00000  Uiso   1.00
C246   C     0.35246   0.52041   0.97631   0.00000  Uiso   1.00
C247   C     0.33799   0.56403   0.03589   0.00000  Uiso   1.00
C248   C     0.53041   0.39920   0.83673   0.00000  Uiso   1.00
C249   C     0.54429   0.41205   0.78144   0.00000  Uiso   1.00
C250   C     0.61754   0.40611   0.75189   0.00000  Uiso   1.00
C251   C     0.47918   0.32804   0.88207   0.00000  Uiso   1.00
C252   C     0.45001   0.28106   0.86489   0.00000  Uiso   1.00
C253   C     0.48016   0.21520   0.87350   0.00000  Uiso   1.00
H254   H     0.60450   0.35519   0.94189   0.00000  Uiso   1.00
H255   H     0.51341   0.46939   0.04629   0.00000  Uiso   1.00
H256   H     0.70521   0.36103   0.85144   0.00000  Uiso   1.00
H257   H     0.61095   0.23007   0.93488   0.00000  Uiso   1.00
H258   H     0.38717   0.60402   0.15104   0.00000  Uiso   1.00
H259   H     0.79160   0.37552   0.74018   0.00000  Uiso   1.00
H260   H     0.59284   0.09934   0.91613   0.00000  Uiso   1.00
H261   H     0.40994   0.41686   0.85727   0.00000  Uiso   1.00
H262   H     0.30817   0.53444   0.95702   0.00000  Uiso   1.00
H263   H     0.49997   0.42609   0.76218   0.00000  Uiso   1.00
H264   H     0.40571   0.29512   0.84562   0.00000  Uiso   1.00
H265   H     0.22059   0.65682   0.07859   0.00000  Uiso   1.00
H266   H     0.62503   0.42831   0.66773   0.00000  Uiso   1.00
H267   H     0.42626   0.15214   0.84367   0.00000  Uiso   1.00
O268   O     0.24045   0.70667   0.18195   0.00000  Uiso   1.00
O269   O     0.77106   0.40687   0.64292   0.00000  Uiso   1.00
O270   O     0.51028   0.04454   0.87376   0.00000  Uiso   1.00
N271   N     0.36193   0.60030   0.12030   0.00000  Uiso   1.00
N272   N     0.74004   0.38668   0.73618   0.00000  Uiso   1.00
N273   N     0.55423   0.12847   0.90066   0.00000  Uiso   1.00
N274   N     0.27229   0.62871   0.08131   0.00000  Uiso   1.00
N275   N     0.65041   0.41509   0.69720   0.00000  Uiso   1.00
N276   N     0.46460   0.15688   0.86167   0.00000  Uiso   1.00
C277   C     0.26136   0.30732   0.11939   0.00000  Uiso   1.00
C278   C     0.20560   0.37937   0.11793   0.00000  Uiso   1.00
C279   C     0.18165   0.38671   0.06949   0.00000  Uiso   1.00
C280   C     0.13039   0.45734   0.07712   0.00000  Uiso   1.00
C281   C     0.04778   0.55991   0.06663   0.00000  Uiso   1.00
C282   C     0.21631   0.30235   0.17941   0.00000  Uiso   1.00
C283   C     0.20138   0.24492   0.18266   0.00000  Uiso   1.00
C284   C     0.15915   0.25072   0.24205   0.00000  Uiso   1.00
C285   C     0.09321   0.23369   0.32702   0.00000  Uiso   1.00
C286   C     0.32898   0.31727   0.12914   0.00000  Uiso   1.00
C287   C     0.40878   0.27238   0.09014   0.00000  Uiso   1.00
C288   C     0.46141   0.29072   0.10721   0.00000  Uiso   1.00
C289   C     0.57041   0.29686   0.11412   0.00000  Uiso   1.00
C290   C     0.21293   0.41970   0.21907   0.00000  Uiso   1.00
C291   C     0.17929   0.44041   0.17207   0.00000  Uiso   1.00
C292   C     0.12806   0.51104   0.17977   0.00000  Uiso   1.00
C293   C     0.10404   0.51849   0.13135   0.00000  Uiso   1.00
C294   C     0.19000   0.36338   0.23355   0.00000  Uiso   1.00
C295   C     0.14779   0.36926   0.29295   0.00000  Uiso   1.00
C296   C     0.13279   0.31187   0.29629   0.00000  Uiso   1.00
C297   C     0.30267   0.37831   0.18328   0.00000  Uiso   1.00
C298   C     0.35519   0.39672   0.20042   0.00000  Uiso   1.00
C299   C     0.43506   0.35187   0.16145   0.00000  Uiso   1.00
H300   H     0.28184   0.25980   0.07724   0.00000  Uiso   1.00
H301   H     0.20202   0.33945   0.02760   0.00000  Uiso   1.00
H302   H     0.22175   0.19769   0.14076   0.00000  Uiso   1.00
H303   H     0.42912   0.22515   0.04824   0.00000  Uiso   1.00
H304   H     0.10189   0.45468   0.99645   0.00000  Uiso   1.00
H305   H     0.14352   0.15576   0.23505   0.00000  Uiso   1.00
H306   H     0.58080   0.21365   0.03996   0.00000  Uiso   1.00
H307   H     0.19245   0.46723   0.26123   0.00000  Uiso   1.00
H308   H     0.10771   0.55827   0.22168   0.00000  Uiso   1.00
H309   H     0.12745   0.41651   0.33484   0.00000  Uiso   1.00
H310   H     0.33481   0.44396   0.24232   0.00000  Uiso   1.00
H311   H     0.02535   0.63228   0.15397   0.00000  Uiso   1.00
H312   H     0.06698   0.33335   0.39258   0.00000  Uiso   1.00
H313   H     0.50425   0.39125   0.19749   0.00000  Uiso   1.00
O314   O     0.00947   0.59963   0.04589   0.00000  Uiso   1.00
O315   O     0.06410   0.20744   0.35892   0.00000  Uiso   1.00
O316   O     0.63780   0.28339   0.10297   0.00000  Uiso   1.00
N317   N     0.09551   0.48399   0.03895   0.00000  Uiso   1.00
N318   N     0.13443   0.20452   0.26202   0.00000  Uiso   1.00
N319   N     0.54325   0.25863   0.07964   0.00000  Uiso   1.00
N320   N     0.05433   0.57955   0.12371   0.00000  Uiso   1.00
N321   N     0.09324   0.30008   0.34679   0.00000  Uiso   1.00
N322   N     0.50206   0.35419   0.16440   0.00000  Uiso   1.00
C323   C     0.98565   0.92779   0.02174   0.00000  Uiso   1.00
C324   C     0.04728   0.87652   0.95503   0.00000  Uiso   1.00
C325   C     0.05011   0.89125   0.90109   0.00000  Uiso   1.00
C326   C     0.11119   0.83725   0.84452   0.00000  Uiso   1.00
C327   C     0.19836   0.76775   0.74131   0.00000  Uiso   1.00
C328   C     0.03180   0.93896   0.06066   0.00000  Uiso   1.00
C329   C     0.02160   0.00620   0.09553   0.00000  Uiso   1.00
C330   C     0.06964   0.00476   0.12789   0.00000  Uiso   1.00
C331   C     0.13274   0.03220   0.18870   0.00000  Uiso   1.00
C332   C     0.94876   0.88421   0.04643   0.00000  Uiso   1.00
C333   C     0.86873   0.90542   0.06937   0.00000  Uiso   1.00
C334   C     0.84686   0.85790   0.08976   0.00000  Uiso   1.00
C335   C     0.78102   0.80033   0.12849   0.00000  Uiso   1.00
C336   C     0.08909   0.80568   0.01720   0.00000  Uiso   1.00
C337   C     0.10346   0.81020   0.95256   0.00000  Uiso   1.00
C338   C     0.16455   0.75615   0.89606   0.00000  Uiso   1.00
C339   C     0.16747   0.77081   0.84205   0.00000  Uiso   1.00
C340   C     0.08798   0.87264   0.05819   0.00000  Uiso   1.00
C341   C     0.13604   0.87110   0.09050   0.00000  Uiso   1.00
C342   C     0.12593   0.93831   0.12541   0.00000  Uiso   1.00
C343   C     0.00494   0.81789   0.04396   0.00000  Uiso   1.00
C344   C     0.98318   0.77032   0.06433   0.00000  Uiso   1.00
C345   C     0.90314   0.79145   0.08729   0.00000  Uiso   1.00
H346   H     0.94191   0.97943   0.02367   0.00000  Uiso   1.00
H347   H     0.00662   0.94259   0.90302   0.00000  Uiso   1.00
H348   H     0.97811   0.05751   0.09744   0.00000  Uiso   1.00
H349   H     0.82527   0.95675   0.07127   0.00000  Uiso   1.00
H350   H     0.10316   0.87251   0.76818   0.00000  Uiso   1.00
H351   H     0.04303   0.11484   0.17813   0.00000  Uiso   1.00
H352   H     0.72074   0.90237   0.12296   0.00000  Uiso   1.00
H353   H     0.13283   0.75404   0.01528   0.00000  Uiso   1.00
H354   H     0.20802   0.70484   0.89416   0.00000  Uiso   1.00
H355   H     0.17951   0.81976   0.08858   0.00000  Uiso   1.00
H356   H     0.02668   0.71900   0.06242   0.00000  Uiso   1.00
H357   H     0.26663   0.67954   0.76099   0.00000  Uiso   1.00
H358   H     0.20649   0.92187   0.17095   0.00000  Uiso   1.00
H359   H     0.88421   0.70940   0.11577   0.00000  Uiso   1.00
O360   O     0.23093   0.74774   0.68507   0.00000  Uiso   1.00
O361   O     0.15203   0.06566   0.22292   0.00000  Uiso   1.00
O362   O     0.72919   0.78690   0.15053   0.00000  Uiso   1.00
N363   N     0.13131   0.83384   0.78311   0.00000  Uiso   1.00
N364   N     0.07509   0.06040   0.16638   0.00000  Uiso   1.00
N365   N     0.77378   0.86177   0.11481   0.00000  Uiso   1.00
N366   N     0.21927   0.73001   0.77924   0.00000  Uiso   1.00
N367   N     0.16305   0.95657   0.16251   0.00000  Uiso   1.00
N368   N     0.86174   0.75793   0.11094   0.00000  Uiso   1.00
C369   C     0.47296   0.61402   0.30171   0.00000  Uiso   1.00
C370   C     0.39445   0.61463   0.31176   0.00000  Uiso   1.00
C371   C     0.34241   0.64718   0.28623   0.00000  Uiso   1.00
C372   C     0.27370   0.64168   0.30105   0.00000  Uiso   1.00
C373   C     0.15425   0.64819   0.31071   0.00000  Uiso   1.00
C374   C     0.53584   0.53332   0.27530   0.00000  Uiso   1.00
C375   C     0.60268   0.49751   0.21912   0.00000  Uiso   1.00
C376   C     0.65300   0.42357   0.20326   0.00000  Uiso   1.00
C377   C     0.75308   0.30386   0.15633   0.00000  Uiso   1.00
C378   C     0.46839   0.64774   0.36721   0.00000  Uiso   1.00
C379   C     0.47855   0.70812   0.38831   0.00000  Uiso   1.00
C380   C     0.47209   0.73050   0.44982   0.00000  Uiso   1.00
C381   C     0.46746   0.78844   0.54560   0.00000  Uiso   1.00
C382   C     0.44347   0.54639   0.37342   0.00000  Uiso   1.00
C383   C     0.37843   0.57790   0.35071   0.00000  Uiso   1.00
C384   C     0.30978   0.57235   0.36558   0.00000  Uiso   1.00
C385   C     0.25765   0.60488   0.34008   0.00000  Uiso   1.00
C386   C     0.51982   0.49659   0.31425   0.00000  Uiso   1.00
C387   C     0.57005   0.42268   0.29847   0.00000  Uiso   1.00
C388   C     0.63695   0.38676   0.24228   0.00000  Uiso   1.00
C389   C     0.45237   0.61101   0.40616   0.00000  Uiso   1.00
C390   C     0.44591   0.63329   0.46765   0.00000  Uiso   1.00
C391   C     0.45605   0.69369   0.48884   0.00000  Uiso   1.00
H392   H     0.48544   0.64262   0.27138   0.00000  Uiso   1.00
H393   H     0.35484   0.67560   0.25608   0.00000  Uiso   1.00
H394   H     0.61507   0.52595   0.18899   0.00000  Uiso   1.00
H395   H     0.49094   0.73653   0.35815   0.00000  Uiso   1.00
H396   H     0.20299   0.69594   0.25629   0.00000  Uiso   1.00
H397   H     0.75171   0.38042   0.11482   0.00000  Uiso   1.00
H398   H     0.48998   0.82446   0.47153   0.00000  Uiso   1.00
H399   H     0.43100   0.51778   0.40375   0.00000  Uiso   1.00
H400   H     0.29740   0.54392   0.39572   0.00000  Uiso   1.00
H401   H     0.55763   0.39427   0.32862   0.00000  Uiso   1.00
H402   H     0.43351   0.60485   0.49778   0.00000  Uiso   1.00
H403   H     0.15637   0.58906   0.36962   0.00000  Uiso   1.00
H404   H     0.70510   0.27354   0.22816   0.00000  Uiso   1.00
H405   H     0.44336   0.71758   0.58486   0.00000  Uiso   1.00
O406   O     0.09279   0.66192   0.30526   0.00000  Uiso   1.00
O407   O     0.81271   0.24798   0.11968   0.00000  Uiso   1.00
O408   O     0.46931   0.83055   0.58767   0.00000  Uiso   1.00
N409   N     0.21034   0.66721   0.28407   0.00000  Uiso   1.00
N410   N     0.72336   0.37221   0.15181   0.00000  Uiso   1.00
N411   N     0.47868   0.78735   0.48529   0.00000  Uiso   1.00
N412   N     0.18526   0.60970   0.34506   0.00000  Uiso   1.00
N413   N     0.69828   0.31470   0.21279   0.00000  Uiso   1.00
N414   N     0.45360   0.72984   0.54628   0.00000  Uiso   1.00
C415   C     0.64711   0.68656   0.88410   0.00000  Uiso   1.00
C416   C     0.65933   0.75330   0.90116   0.00000  Uiso   1.00
C417   C     0.61912   0.81870   0.89441   0.00000  Uiso   1.00
C418   C     0.63887   0.87314   0.91272   0.00000  Uiso   1.00
C419   C     0.64906   0.97838   0.93550   0.00000  Uiso   1.00
C420   C     0.72802   0.62202   0.83779   0.00000  Uiso   1.00
C421   C     0.74556   0.57704   0.77776   0.00000  Uiso   1.00
C422   C     0.82314   0.52096   0.74273   0.00000  Uiso   1.00
C423   C     0.93996   0.42235   0.66715   0.00000  Uiso   1.00
C424   C     0.62704   0.67092   0.94384   0.00000  Uiso   1.00
C425   C     0.55968   0.66703   0.97299   0.00000  Uiso   1.00
C426   C     0.55225   0.65210   0.02724   0.00000  Uiso   1.00
C427   C     0.51228   0.62942   0.11632   0.00000  Uiso   1.00
C428   C     0.75369   0.66696   0.92861   0.00000  Uiso   1.00
C429   C     0.71722   0.74265   0.92534   0.00000  Uiso   1.00
C430   C     0.73704   0.79701   0.94366   0.00000  Uiso   1.00
C431   C     0.69686   0.86247   0.93694   0.00000  Uiso   1.00
C432   C     0.78591   0.61137   0.86196   0.00000  Uiso   1.00
C433   C     0.86348   0.55535   0.82701   0.00000  Uiso   1.00
C434   C     0.88114   0.51029   0.76695   0.00000  Uiso   1.00
C435   C     0.68492   0.66027   0.96802   0.00000  Uiso   1.00
C436   C     0.67760   0.64534   0.02223   0.00000  Uiso   1.00
C437   C     0.61025   0.64144   0.05145   0.00000  Uiso   1.00
H438   H     0.60205   0.69485   0.86527   0.00000  Uiso   1.00
H439   H     0.57433   0.82691   0.87570   0.00000  Uiso   1.00
H440   H     0.70075   0.58529   0.75907   0.00000  Uiso   1.00
H441   H     0.51490   0.67527   0.95426   0.00000  Uiso   1.00
H442   H     0.56915   0.96863   0.89789   0.00000  Uiso   1.00
H443   H     0.83571   0.45913   0.65199   0.00000  Uiso   1.00
H444   H     0.44380   0.64888   0.06359   0.00000  Uiso   1.00
H445   H     0.79876   0.65866   0.94743   0.00000  Uiso   1.00
H446   H     0.78184   0.78875   0.96237   0.00000  Uiso   1.00
H447   H     0.90826   0.54712   0.84574   0.00000  Uiso   1.00
H448   H     0.72241   0.63711   0.04093   0.00000  Uiso   1.00
H449   H     0.73757   0.93765   0.96823   0.00000  Uiso   1.00
H450   H     0.00413   0.42815   0.72233   0.00000  Uiso   1.00
H451   H     0.61223   0.61790   0.13393   0.00000  Uiso   1.00
O452   O     0.63870   0.03936   0.94138   0.00000  Uiso   1.00
O453   O     0.98841   0.37091   0.61877   0.00000  Uiso   1.00
O454   O     0.47424   0.61986   0.15878   0.00000  Uiso   1.00
N455   N     0.61110   0.94349   0.91241   0.00000  Uiso   1.00
N456   N     0.86032   0.46715   0.68250   0.00000  Uiso   1.00
N457   N     0.49393   0.64452   0.06730   0.00000  Uiso   1.00
N458   N     0.70172   0.92683   0.95026   0.00000  Uiso   1.00
N459   N     0.95095   0.45048   0.72035   0.00000  Uiso   1.00
N460   N     0.58456   0.62786   0.10515   0.00000  Uiso   1.00
C461   C     0.79454   0.97704   0.61437   0.00000  Uiso   1.00
C462   C     0.71046   0.99264   0.64941   0.00000  Uiso   1.00
C463   C     0.64506   0.03163   0.63838   0.00000  Uiso   1.00
C464   C     0.57328   0.03993   0.67548   0.00000  Uiso   1.00
C465   C     0.44365   0.06869   0.72284   0.00000  Uiso   1.00
C466   C     0.81922   0.00738   0.66460   0.00000  Uiso   1.00
C467   C     0.84527   0.05875   0.66633   0.00000  Uiso   1.00
C468   C     0.86506   0.07944   0.71621   0.00000  Uiso   1.00
C469   C     0.90433   0.13105   0.78712   0.00000  Uiso   1.00
C470   C     0.84628   0.89369   0.58770   0.00000  Uiso   1.00
C471   C     0.89510   0.84947   0.52477   0.00000  Uiso   1.00
C472   C     0.93768   0.77445   0.50991   0.00000  Uiso   1.00
C473   C     0.01897   0.64954   0.46143   0.00000  Uiso   1.00
C474   C     0.78337   0.92244   0.69986   0.00000  Uiso   1.00
C475   C     0.70440   0.96298   0.69584   0.00000  Uiso   1.00
C476   C     0.63271   0.97122   0.73296   0.00000  Uiso   1.00
C477   C     0.56721   0.01021   0.72199   0.00000  Uiso   1.00
C478   C     0.81316   0.97772   0.71103   0.00000  Uiso   1.00
C479   C     0.83292   0.99834   0.76091   0.00000  Uiso   1.00
C480   C     0.85898   0.04973   0.76273   0.00000  Uiso   1.00
C481   C     0.84022   0.86403   0.63413   0.00000  Uiso   1.00
C482   C     0.88274   0.78906   0.61936   0.00000  Uiso   1.00
C483   C     0.93161   0.74474   0.55643   0.00000  Uiso   1.00
H484   H     0.79926   0.00013   0.57822   0.00000  Uiso   1.00
H485   H     0.64978   0.05458   0.60245   0.00000  Uiso   1.00
H486   H     0.84997   0.08168   0.63039   0.00000  Uiso   1.00
H487   H     0.89978   0.87244   0.48886   0.00000  Uiso   1.00
H488   H     0.48136   0.10189   0.64980   0.00000  Uiso   1.00
H489   H     0.90350   0.15902   0.70870   0.00000  Uiso   1.00
H490   H     0.00854   0.71779   0.41025   0.00000  Uiso   1.00
H491   H     0.77865   0.89935   0.73601   0.00000  Uiso   1.00
H492   H     0.62803   0.94826   0.76889   0.00000  Uiso   1.00
H493   H     0.82822   0.97537   0.79684   0.00000  Uiso   1.00
H494   H     0.87803   0.76613   0.65530   0.00000  Uiso   1.00
H495   H     0.46371   0.01560   0.78489   0.00000  Uiso   1.00
H496   H     0.88585   0.07274   0.84380   0.00000  Uiso   1.00
H497   H     0.99089   0.63151   0.54535   0.00000  Uiso   1.00
O498   O     0.37382   0.09276   0.73614   0.00000  Uiso   1.00
O499   O     0.92766   0.16771   0.81342   0.00000  Uiso   1.00
O500   O     0.06547   0.58883   0.42186   0.00000  Uiso   1.00
N501   N     0.49788   0.07485   0.67707   0.00000  Uiso   1.00
N502   N     0.89254   0.12828   0.73215   0.00000  Uiso   1.00
N503   N     0.99077   0.71577   0.45312   0.00000  Uiso   1.00
N504   N     0.48838   0.02842   0.74976   0.00000  Uiso   1.00
N505   N     0.88304   0.08185   0.80484   0.00000  Uiso   1.00
N506   N     0.98127   0.66934   0.52582   0.00000  Uiso   1.00
C507   C     0.26323   0.28211   0.50433   0.00000  Uiso   1.00
C508   C     0.29815   0.21434   0.44467   0.00000  Uiso   1.00
C509   C     0.26273   0.20510   0.40335   0.00000  Uiso   1.00
C510   C     0.30426   0.13909   0.35147   0.00000  Uiso   1.00
C511   C     0.34716   0.04217   0.26039   0.00000  Uiso   1.00
C512   C     0.26086   0.25465   0.55794   0.00000  Uiso   1.00
C513   C     0.19408   0.27932   0.61186   0.00000  Uiso   1.00
C514   C     0.20423   0.24725   0.65534   0.00000  Uiso   1.00
C515   C     0.18924   0.21296   0.74014   0.00000  Uiso   1.00
C516   C     0.32441   0.30826   0.49760   0.00000  Uiso   1.00
C517   C     0.31106   0.37800   0.50080   0.00000  Uiso   1.00
C518   C     0.37471   0.39107   0.49349   0.00000  Uiso   1.00
C519   C     0.45839   0.44001   0.48459   0.00000  Uiso   1.00
C520   C     0.40000   0.18131   0.48567   0.00000  Uiso   1.00
C521   C     0.37244   0.15959   0.43454   0.00000  Uiso   1.00
C522   C     0.41404   0.09358   0.38270   0.00000  Uiso   1.00
C523   C     0.37868   0.08424   0.34131   0.00000  Uiso   1.00
C524   C     0.33514   0.19991   0.54781   0.00000  Uiso   1.00
C525   C     0.34539   0.16780   0.59122   0.00000  Uiso   1.00
C526   C     0.27865   0.19240   0.64519   0.00000  Uiso   1.00
C527   C     0.39870   0.25351   0.48746   0.00000  Uiso   1.00
C528   C     0.46238   0.26647   0.48015   0.00000  Uiso   1.00
C529   C     0.44913   0.33622   0.48333   0.00000  Uiso   1.00
H530   H     0.20540   0.32473   0.51223   0.00000  Uiso   1.00
H531   H     0.20523   0.24748   0.41121   0.00000  Uiso   1.00
H532   H     0.13660   0.32169   0.61970   0.00000  Uiso   1.00
H533   H     0.25356   0.42035   0.50864   0.00000  Uiso   1.00
H534   H     0.23780   0.13767   0.29476   0.00000  Uiso   1.00
H535   H     0.09308   0.29417   0.73437   0.00000  Uiso   1.00
H536   H     0.33973   0.50222   0.50020   0.00000  Uiso   1.00
H537   H     0.45784   0.13869   0.47778   0.00000  Uiso   1.00
H538   H     0.47153   0.05122   0.37487   0.00000  Uiso   1.00
H539   H     0.40289   0.12543   0.58336   0.00000  Uiso   1.00
H540   H     0.51986   0.22409   0.47231   0.00000  Uiso   1.00
H541   H     0.45393   0.97838   0.26527   0.00000  Uiso   1.00
H542   H     0.30922   0.13488   0.70489   0.00000  Uiso   1.00
H543   H     0.55586   0.34293   0.47071   0.00000  Uiso   1.00
O544   O     0.35030   0.00384   0.21296   0.00000  Uiso   1.00
O545   O     0.16045   0.20917   0.78971   0.00000  Uiso   1.00
O546   O     0.48404   0.48212   0.48248   0.00000  Uiso   1.00
N547   N     0.28679   0.11219   0.30194   0.00000  Uiso   1.00
N548   N     0.15149   0.25850   0.71294   0.00000  Uiso   1.00
N549   N     0.38208   0.45302   0.49403   0.00000  Uiso   1.00
N550   N     0.40309   0.02648   0.28607   0.00000  Uiso   1.00
N551   N     0.26779   0.17279   0.69707   0.00000  Uiso   1.00
N552   N     0.49838   0.36730   0.47816   0.00000  Uiso   1.00
