data_job_05754
_audit_creation_date              2018-12-19
_audit_creation_method            'Materials Studio'
_symmetry_space_group_name_H-M    'P1'
_symmetry_Int_Tables_number       1
_symmetry_cell_setting            triclinic
loop_
_symmetry_equiv_pos_as_xyz
  x,y,z
_cell_length_a                    17.6526
_cell_length_b                    20.6686
_cell_length_c                    14.9391
_cell_angle_alpha                 90.0000
_cell_angle_beta                  90.0000
_cell_angle_gamma                 90.0000
loop_
_atom_site_label
_atom_site_type_symbol
_atom_site_fract_x
_atom_site_fract_y
_atom_site_fract_z
_atom_site_U_iso_or_equiv
_atom_site_adp_type
_atom_site_occupancy
C1     C     0.34325   0.80565   0.12511   0.00000  Uiso   1.00
C2     C     0.40794   0.82688   0.18605   0.00000  Uiso   1.00
C3     C     0.40279   0.87218   0.25435   0.00000  Uiso   1.00
C4     C     0.46841   0.88493   0.30244   0.00000  Uiso   1.00
C5     C     0.55848   0.92271   0.40001   0.00000  Uiso   1.00
C6     C     0.37022   0.81801   0.02966   0.00000  Uiso   1.00
C7     C     0.33335   0.85584   0.96647   0.00000  Uiso   1.00
C8     C     0.36722   0.86110   0.88291   0.00000  Uiso   1.00
C9     C     0.39870   0.88507   0.73766   0.00000  Uiso   1.00
C10    C     0.33775   0.73236   0.13492   0.00000  Uiso   1.00
C11    C     0.27356   0.69817   0.16021   0.00000  Uiso   1.00
C12    C     0.28008   0.63132   0.16524   0.00000  Uiso   1.00
C13    C     0.26114   0.52231   0.18342   0.00000  Uiso   1.00
C14    C     0.46897   0.74773   0.08906   0.00000  Uiso   1.00
C15    C     0.47622   0.79543   0.16646   0.00000  Uiso   1.00
C16    C     0.54188   0.80811   0.21447   0.00000  Uiso   1.00
C17    C     0.53682   0.85341   0.28283   0.00000  Uiso   1.00
C18    C     0.43850   0.78656   0.01008   0.00000  Uiso   1.00
C19    C     0.47244   0.79176   0.92659   0.00000  Uiso   1.00
C20    C     0.43562   0.82959   0.86329   0.00000  Uiso   1.00
C21    C     0.40603   0.70090   0.11534   0.00000  Uiso   1.00
C22    C     0.41265   0.63410   0.12033   0.00000  Uiso   1.00
C23    C     0.34849   0.59981   0.14562   0.00000  Uiso   1.00
H24    H     0.29009   0.83014   0.14035   0.00000  Uiso   1.00
H25    H     0.34993   0.89652   0.26948   0.00000  Uiso   1.00
H26    H     0.28050   0.88017   0.98164   0.00000  Uiso   1.00
H27    H     0.22073   0.72253   0.17535   0.00000  Uiso   1.00
H28    H     0.44640   0.95626   0.40398   0.00000  Uiso   1.00
H29    H     0.29999   0.92177   0.79705   0.00000  Uiso   1.00
H30    H     0.17394   0.58935   0.20553   0.00000  Uiso   1.00
H31    H     0.52213   0.72324   0.07382   0.00000  Uiso   1.00
H32    H     0.59471   0.78376   0.19930   0.00000  Uiso   1.00
H33    H     0.52528   0.76741   0.91146   0.00000  Uiso   1.00
H34    H     0.46550   0.60977   0.10517   0.00000  Uiso   1.00
H35    H     0.64507   0.86474   0.34702   0.00000  Uiso   1.00
H36    H     0.49865   0.83025   0.74008   0.00000  Uiso   1.00
H37    H     0.37261   0.49783   0.14856   0.00000  Uiso   1.00
O38    O     0.58930   0.95225   0.45923   0.00000  Uiso   1.00
O39    O     0.39720   0.90699   0.66295   0.00000  Uiso   1.00
O40    O     0.23183   0.47087   0.19887   0.00000  Uiso   1.00
N41    N     0.48319   0.92640   0.37337   0.00000  Uiso   1.00
N42    N     0.34631   0.89417   0.80593   0.00000  Uiso   1.00
N43    N     0.22846   0.58338   0.18780   0.00000  Uiso   1.00
N44    N     0.59010   0.87716   0.34272   0.00000  Uiso   1.00
N45    N     0.45321   0.84492   0.77527   0.00000  Uiso   1.00
N46    N     0.33536   0.53414   0.15714   0.00000  Uiso   1.00
C47    C     0.34325   0.30565   0.62511   0.00000  Uiso   1.00
C48    C     0.40794   0.32688   0.68605   0.00000  Uiso   1.00
C49    C     0.40279   0.37218   0.75435   0.00000  Uiso   1.00
C50    C     0.46841   0.38493   0.80244   0.00000  Uiso   1.00
C51    C     0.55848   0.42271   0.90001   0.00000  Uiso   1.00
C52    C     0.37022   0.31801   0.52966   0.00000  Uiso   1.00
C53    C     0.33335   0.35584   0.46647   0.00000  Uiso   1.00
C54    C     0.36722   0.36110   0.38291   0.00000  Uiso   1.00
C55    C     0.39870   0.38507   0.23766   0.00000  Uiso   1.00
C56    C     0.33775   0.23236   0.63492   0.00000  Uiso   1.00
C57    C     0.27356   0.19817   0.66021   0.00000  Uiso   1.00
C58    C     0.28008   0.13132   0.66524   0.00000  Uiso   1.00
C59    C     0.26114   0.02231   0.68342   0.00000  Uiso   1.00
C60    C     0.46897   0.24773   0.58906   0.00000  Uiso   1.00
C61    C     0.47622   0.29543   0.66646   0.00000  Uiso   1.00
C62    C     0.54188   0.30811   0.71447   0.00000  Uiso   1.00
C63    C     0.53682   0.35341   0.78283   0.00000  Uiso   1.00
C64    C     0.43850   0.28656   0.51008   0.00000  Uiso   1.00
C65    C     0.47244   0.29176   0.42659   0.00000  Uiso   1.00
C66    C     0.43562   0.32959   0.36329   0.00000  Uiso   1.00
C67    C     0.40603   0.20090   0.61534   0.00000  Uiso   1.00
C68    C     0.41265   0.13410   0.62033   0.00000  Uiso   1.00
C69    C     0.34849   0.09981   0.64562   0.00000  Uiso   1.00
H70    H     0.29009   0.33014   0.64035   0.00000  Uiso   1.00
H71    H     0.34993   0.39652   0.76948   0.00000  Uiso   1.00
H72    H     0.28050   0.38017   0.48164   0.00000  Uiso   1.00
H73    H     0.22073   0.22253   0.67535   0.00000  Uiso   1.00
H74    H     0.44640   0.45626   0.90398   0.00000  Uiso   1.00
H75    H     0.29999   0.42177   0.29705   0.00000  Uiso   1.00
H76    H     0.17394   0.08935   0.70553   0.00000  Uiso   1.00
H77    H     0.52213   0.22324   0.57382   0.00000  Uiso   1.00
H78    H     0.59471   0.28376   0.69930   0.00000  Uiso   1.00
H79    H     0.52528   0.26741   0.41146   0.00000  Uiso   1.00
H80    H     0.46550   0.10977   0.60517   0.00000  Uiso   1.00
H81    H     0.64507   0.36474   0.84702   0.00000  Uiso   1.00
H82    H     0.49865   0.33025   0.24008   0.00000  Uiso   1.00
H83    H     0.37261   0.99783   0.64856   0.00000  Uiso   1.00
O84    O     0.58930   0.45225   0.95923   0.00000  Uiso   1.00
O85    O     0.39720   0.40699   0.16295   0.00000  Uiso   1.00
O86    O     0.23183   0.97087   0.69887   0.00000  Uiso   1.00
N87    N     0.48319   0.42640   0.87337   0.00000  Uiso   1.00
N88    N     0.34631   0.39417   0.30593   0.00000  Uiso   1.00
N89    N     0.22846   0.08338   0.68780   0.00000  Uiso   1.00
N90    N     0.59010   0.37716   0.84272   0.00000  Uiso   1.00
N91    N     0.45321   0.34492   0.27527   0.00000  Uiso   1.00
N92    N     0.33536   0.03414   0.65714   0.00000  Uiso   1.00
C93    C     0.65675   0.19435   0.12511   0.00000  Uiso   1.00
C94    C     0.59206   0.17312   0.18605   0.00000  Uiso   1.00
C95    C     0.59721   0.12782   0.25435   0.00000  Uiso   1.00
C96    C     0.53159   0.11507   0.30244   0.00000  Uiso   1.00
C97    C     0.44152   0.07729   0.40001   0.00000  Uiso   1.00
C98    C     0.62978   0.18199   0.02966   0.00000  Uiso   1.00
C99    C     0.66665   0.14416   0.96647   0.00000  Uiso   1.00
C100   C     0.63278   0.13890   0.88291   0.00000  Uiso   1.00
C101   C     0.60130   0.11493   0.73766   0.00000  Uiso   1.00
C102   C     0.66225   0.26764   0.13492   0.00000  Uiso   1.00
C103   C     0.72644   0.30183   0.16021   0.00000  Uiso   1.00
C104   C     0.71992   0.36868   0.16524   0.00000  Uiso   1.00
C105   C     0.73886   0.47769   0.18342   0.00000  Uiso   1.00
C106   C     0.53103   0.25227   0.08906   0.00000  Uiso   1.00
C107   C     0.52378   0.20457   0.16646   0.00000  Uiso   1.00
C108   C     0.45812   0.19189   0.21447   0.00000  Uiso   1.00
C109   C     0.46318   0.14659   0.28283   0.00000  Uiso   1.00
C110   C     0.56150   0.21344   0.01008   0.00000  Uiso   1.00
C111   C     0.52756   0.20824   0.92659   0.00000  Uiso   1.00
C112   C     0.56438   0.17041   0.86329   0.00000  Uiso   1.00
C113   C     0.59397   0.29910   0.11534   0.00000  Uiso   1.00
C114   C     0.58735   0.36590   0.12033   0.00000  Uiso   1.00
C115   C     0.65151   0.40019   0.14562   0.00000  Uiso   1.00
H116   H     0.70991   0.16986   0.14035   0.00000  Uiso   1.00
H117   H     0.65007   0.10348   0.26948   0.00000  Uiso   1.00
H118   H     0.71950   0.11983   0.98164   0.00000  Uiso   1.00
H119   H     0.77927   0.27747   0.17535   0.00000  Uiso   1.00
H120   H     0.55360   0.04374   0.40398   0.00000  Uiso   1.00
H121   H     0.70001   0.07823   0.79705   0.00000  Uiso   1.00
H122   H     0.82606   0.41065   0.20553   0.00000  Uiso   1.00
H123   H     0.47787   0.27676   0.07382   0.00000  Uiso   1.00
H124   H     0.40529   0.21624   0.19930   0.00000  Uiso   1.00
H125   H     0.47472   0.23259   0.91146   0.00000  Uiso   1.00
H126   H     0.53450   0.39023   0.10517   0.00000  Uiso   1.00
H127   H     0.35493   0.13526   0.34702   0.00000  Uiso   1.00
H128   H     0.50135   0.16975   0.74008   0.00000  Uiso   1.00
H129   H     0.62739   0.50217   0.14856   0.00000  Uiso   1.00
O130   O     0.41070   0.04775   0.45923   0.00000  Uiso   1.00
O131   O     0.60280   0.09301   0.66295   0.00000  Uiso   1.00
O132   O     0.76817   0.52913   0.19887   0.00000  Uiso   1.00
N133   N     0.51681   0.07360   0.37337   0.00000  Uiso   1.00
N134   N     0.65369   0.10583   0.80593   0.00000  Uiso   1.00
N135   N     0.77154   0.41662   0.18780   0.00000  Uiso   1.00
N136   N     0.40990   0.12284   0.34272   0.00000  Uiso   1.00
N137   N     0.54679   0.15508   0.77527   0.00000  Uiso   1.00
N138   N     0.66464   0.46586   0.15714   0.00000  Uiso   1.00
C139   C     0.65675   0.69435   0.62511   0.00000  Uiso   1.00
C140   C     0.59206   0.67312   0.68605   0.00000  Uiso   1.00
C141   C     0.59721   0.62782   0.75435   0.00000  Uiso   1.00
C142   C     0.53159   0.61507   0.80244   0.00000  Uiso   1.00
C143   C     0.44152   0.57729   0.90001   0.00000  Uiso   1.00
C144   C     0.62978   0.68199   0.52966   0.00000  Uiso   1.00
C145   C     0.66665   0.64416   0.46647   0.00000  Uiso   1.00
C146   C     0.63278   0.63890   0.38291   0.00000  Uiso   1.00
C147   C     0.60130   0.61493   0.23766   0.00000  Uiso   1.00
C148   C     0.66225   0.76764   0.63492   0.00000  Uiso   1.00
C149   C     0.72644   0.80183   0.66021   0.00000  Uiso   1.00
C150   C     0.71992   0.86868   0.66524   0.00000  Uiso   1.00
C151   C     0.73886   0.97769   0.68342   0.00000  Uiso   1.00
C152   C     0.53103   0.75227   0.58906   0.00000  Uiso   1.00
C153   C     0.52378   0.70457   0.66646   0.00000  Uiso   1.00
C154   C     0.45812   0.69189   0.71447   0.00000  Uiso   1.00
C155   C     0.46318   0.64659   0.78283   0.00000  Uiso   1.00
C156   C     0.56150   0.71344   0.51008   0.00000  Uiso   1.00
C157   C     0.52756   0.70824   0.42659   0.00000  Uiso   1.00
C158   C     0.56438   0.67041   0.36329   0.00000  Uiso   1.00
C159   C     0.59397   0.79910   0.61534   0.00000  Uiso   1.00
C160   C     0.58735   0.86590   0.62033   0.00000  Uiso   1.00
C161   C     0.65151   0.90019   0.64562   0.00000  Uiso   1.00
H162   H     0.70991   0.66986   0.64035   0.00000  Uiso   1.00
H163   H     0.65007   0.60348   0.76948   0.00000  Uiso   1.00
H164   H     0.71950   0.61983   0.48164   0.00000  Uiso   1.00
H165   H     0.77927   0.77747   0.67535   0.00000  Uiso   1.00
H166   H     0.55360   0.54374   0.90398   0.00000  Uiso   1.00
H167   H     0.70001   0.57823   0.29705   0.00000  Uiso   1.00
H168   H     0.82606   0.91065   0.70553   0.00000  Uiso   1.00
H169   H     0.47787   0.77676   0.57382   0.00000  Uiso   1.00
H170   H     0.40529   0.71624   0.69930   0.00000  Uiso   1.00
H171   H     0.47472   0.73259   0.41146   0.00000  Uiso   1.00
H172   H     0.53450   0.89023   0.60517   0.00000  Uiso   1.00
H173   H     0.35493   0.63526   0.84702   0.00000  Uiso   1.00
H174   H     0.50135   0.66975   0.24008   0.00000  Uiso   1.00
H175   H     0.62739   0.00217   0.64856   0.00000  Uiso   1.00
O176   O     0.41070   0.54775   0.95923   0.00000  Uiso   1.00
O177   O     0.60280   0.59301   0.16295   0.00000  Uiso   1.00
O178   O     0.76817   0.02913   0.69887   0.00000  Uiso   1.00
N179   N     0.51681   0.57360   0.87337   0.00000  Uiso   1.00
N180   N     0.65369   0.60583   0.30593   0.00000  Uiso   1.00
N181   N     0.77154   0.91662   0.68780   0.00000  Uiso   1.00
N182   N     0.40990   0.62284   0.84272   0.00000  Uiso   1.00
N183   N     0.54679   0.65508   0.27527   0.00000  Uiso   1.00
N184   N     0.66464   0.96586   0.65714   0.00000  Uiso   1.00
C185   C     0.84325   0.69435   0.12511   0.00000  Uiso   1.00
C186   C     0.90794   0.67312   0.18605   0.00000  Uiso   1.00
C187   C     0.90279   0.62782   0.25435   0.00000  Uiso   1.00
C188   C     0.96841   0.61507   0.30244   0.00000  Uiso   1.00
C189   C     0.05848   0.57729   0.40001   0.00000  Uiso   1.00
C190   C     0.87022   0.68199   0.02966   0.00000  Uiso   1.00
C191   C     0.83335   0.64416   0.96647   0.00000  Uiso   1.00
C192   C     0.86722   0.63890   0.88291   0.00000  Uiso   1.00
C193   C     0.89870   0.61493   0.73766   0.00000  Uiso   1.00
C194   C     0.83775   0.76764   0.13492   0.00000  Uiso   1.00
C195   C     0.77356   0.80183   0.16021   0.00000  Uiso   1.00
C196   C     0.78008   0.86868   0.16524   0.00000  Uiso   1.00
C197   C     0.76114   0.97769   0.18342   0.00000  Uiso   1.00
C198   C     0.96897   0.75227   0.08906   0.00000  Uiso   1.00
C199   C     0.97622   0.70457   0.16646   0.00000  Uiso   1.00
C200   C     0.04188   0.69189   0.21447   0.00000  Uiso   1.00
C201   C     0.03682   0.64659   0.28283   0.00000  Uiso   1.00
C202   C     0.93850   0.71344   0.01008   0.00000  Uiso   1.00
C203   C     0.97244   0.70824   0.92659   0.00000  Uiso   1.00
C204   C     0.93562   0.67041   0.86329   0.00000  Uiso   1.00
C205   C     0.90603   0.79910   0.11534   0.00000  Uiso   1.00
C206   C     0.91265   0.86590   0.12033   0.00000  Uiso   1.00
C207   C     0.84849   0.90019   0.14562   0.00000  Uiso   1.00
H208   H     0.79009   0.66986   0.14035   0.00000  Uiso   1.00
H209   H     0.84993   0.60348   0.26948   0.00000  Uiso   1.00
H210   H     0.78050   0.61983   0.98164   0.00000  Uiso   1.00
H211   H     0.72073   0.77747   0.17535   0.00000  Uiso   1.00
H212   H     0.94640   0.54374   0.40398   0.00000  Uiso   1.00
H213   H     0.79999   0.57823   0.79705   0.00000  Uiso   1.00
H214   H     0.67394   0.91065   0.20553   0.00000  Uiso   1.00
H215   H     0.02213   0.77676   0.07382   0.00000  Uiso   1.00
H216   H     0.09471   0.71624   0.19930   0.00000  Uiso   1.00
H217   H     0.02528   0.73259   0.91146   0.00000  Uiso   1.00
H218   H     0.96550   0.89023   0.10517   0.00000  Uiso   1.00
H219   H     0.14507   0.63526   0.34702   0.00000  Uiso   1.00
H220   H     0.99865   0.66975   0.74008   0.00000  Uiso   1.00
H221   H     0.87261   0.00217   0.14856   0.00000  Uiso   1.00
O222   O     0.08930   0.54775   0.45923   0.00000  Uiso   1.00
O223   O     0.89720   0.59301   0.66295   0.00000  Uiso   1.00
O224   O     0.73183   0.02913   0.19887   0.00000  Uiso   1.00
N225   N     0.98319   0.57360   0.37337   0.00000  Uiso   1.00
N226   N     0.84631   0.60583   0.80593   0.00000  Uiso   1.00
N227   N     0.72846   0.91662   0.18780   0.00000  Uiso   1.00
N228   N     0.09010   0.62284   0.34272   0.00000  Uiso   1.00
N229   N     0.95321   0.65508   0.77527   0.00000  Uiso   1.00
N230   N     0.83536   0.96586   0.15714   0.00000  Uiso   1.00
C231   C     0.84325   0.19435   0.62511   0.00000  Uiso   1.00
C232   C     0.90794   0.17312   0.68605   0.00000  Uiso   1.00
C233   C     0.90279   0.12782   0.75435   0.00000  Uiso   1.00
C234   C     0.96841   0.11507   0.80244   0.00000  Uiso   1.00
C235   C     0.05848   0.07729   0.90001   0.00000  Uiso   1.00
C236   C     0.87022   0.18199   0.52966   0.00000  Uiso   1.00
C237   C     0.83335   0.14416   0.46647   0.00000  Uiso   1.00
C238   C     0.86722   0.13890   0.38291   0.00000  Uiso   1.00
C239   C     0.89870   0.11493   0.23766   0.00000  Uiso   1.00
C240   C     0.83775   0.26764   0.63492   0.00000  Uiso   1.00
C241   C     0.77356   0.30183   0.66021   0.00000  Uiso   1.00
C242   C     0.78008   0.36868   0.66524   0.00000  Uiso   1.00
C243   C     0.76114   0.47769   0.68342   0.00000  Uiso   1.00
C244   C     0.96897   0.25227   0.58906   0.00000  Uiso   1.00
C245   C     0.97622   0.20457   0.66646   0.00000  Uiso   1.00
C246   C     0.04188   0.19189   0.71447   0.00000  Uiso   1.00
C247   C     0.03682   0.14659   0.78283   0.00000  Uiso   1.00
C248   C     0.93850   0.21344   0.51008   0.00000  Uiso   1.00
C249   C     0.97244   0.20824   0.42659   0.00000  Uiso   1.00
C250   C     0.93562   0.17041   0.36329   0.00000  Uiso   1.00
C251   C     0.90603   0.29910   0.61534   0.00000  Uiso   1.00
C252   C     0.91265   0.36590   0.62033   0.00000  Uiso   1.00
C253   C     0.84849   0.40019   0.64562   0.00000  Uiso   1.00
H254   H     0.79009   0.16986   0.64035   0.00000  Uiso   1.00
H255   H     0.84993   0.10348   0.76948   0.00000  Uiso   1.00
H256   H     0.78050   0.11983   0.48164   0.00000  Uiso   1.00
H257   H     0.72073   0.27747   0.67535   0.00000  Uiso   1.00
H258   H     0.94640   0.04374   0.90398   0.00000  Uiso   1.00
H259   H     0.79999   0.07823   0.29705   0.00000  Uiso   1.00
H260   H     0.67394   0.41065   0.70553   0.00000  Uiso   1.00
H261   H     0.02213   0.27676   0.57382   0.00000  Uiso   1.00
H262   H     0.09471   0.21624   0.69930   0.00000  Uiso   1.00
H263   H     0.02528   0.23259   0.41146   0.00000  Uiso   1.00
H264   H     0.96550   0.39023   0.60517   0.00000  Uiso   1.00
H265   H     0.14507   0.13526   0.84702   0.00000  Uiso   1.00
H266   H     0.99865   0.16975   0.24008   0.00000  Uiso   1.00
H267   H     0.87261   0.50217   0.64856   0.00000  Uiso   1.00
O268   O     0.08930   0.04775   0.95923   0.00000  Uiso   1.00
O269   O     0.89720   0.09301   0.16295   0.00000  Uiso   1.00
O270   O     0.73183   0.52913   0.69887   0.00000  Uiso   1.00
N271   N     0.98319   0.07360   0.87337   0.00000  Uiso   1.00
N272   N     0.84631   0.10583   0.30593   0.00000  Uiso   1.00
N273   N     0.72846   0.41662   0.68780   0.00000  Uiso   1.00
N274   N     0.09010   0.12284   0.84272   0.00000  Uiso   1.00
N275   N     0.95321   0.15508   0.27527   0.00000  Uiso   1.00
N276   N     0.83536   0.46586   0.65714   0.00000  Uiso   1.00
C277   C     0.15675   0.30565   0.12511   0.00000  Uiso   1.00
C278   C     0.09206   0.32688   0.18605   0.00000  Uiso   1.00
C279   C     0.09721   0.37218   0.25435   0.00000  Uiso   1.00
C280   C     0.03159   0.38493   0.30244   0.00000  Uiso   1.00
C281   C     0.94152   0.42271   0.40001   0.00000  Uiso   1.00
C282   C     0.12978   0.31801   0.02966   0.00000  Uiso   1.00
C283   C     0.16665   0.35584   0.96647   0.00000  Uiso   1.00
C284   C     0.13278   0.36110   0.88291   0.00000  Uiso   1.00
C285   C     0.10130   0.38507   0.73766   0.00000  Uiso   1.00
C286   C     0.16225   0.23236   0.13492   0.00000  Uiso   1.00
C287   C     0.22644   0.19817   0.16021   0.00000  Uiso   1.00
C288   C     0.21992   0.13132   0.16524   0.00000  Uiso   1.00
C289   C     0.23886   0.02231   0.18342   0.00000  Uiso   1.00
C290   C     0.03103   0.24773   0.08906   0.00000  Uiso   1.00
C291   C     0.02378   0.29543   0.16646   0.00000  Uiso   1.00
C292   C     0.95812   0.30811   0.21447   0.00000  Uiso   1.00
C293   C     0.96318   0.35341   0.28283   0.00000  Uiso   1.00
C294   C     0.06150   0.28656   0.01008   0.00000  Uiso   1.00
C295   C     0.02756   0.29176   0.92659   0.00000  Uiso   1.00
C296   C     0.06438   0.32959   0.86329   0.00000  Uiso   1.00
C297   C     0.09397   0.20090   0.11534   0.00000  Uiso   1.00
C298   C     0.08735   0.13410   0.12033   0.00000  Uiso   1.00
C299   C     0.15151   0.09981   0.14562   0.00000  Uiso   1.00
H300   H     0.20991   0.33014   0.14035   0.00000  Uiso   1.00
H301   H     0.15007   0.39652   0.26948   0.00000  Uiso   1.00
H302   H     0.21950   0.38017   0.98164   0.00000  Uiso   1.00
H303   H     0.27927   0.22253   0.17535   0.00000  Uiso   1.00
H304   H     0.05360   0.45626   0.40398   0.00000  Uiso   1.00
H305   H     0.20001   0.42177   0.79705   0.00000  Uiso   1.00
H306   H     0.32606   0.08935   0.20553   0.00000  Uiso   1.00
H307   H     0.97787   0.22324   0.07382   0.00000  Uiso   1.00
H308   H     0.90529   0.28376   0.19930   0.00000  Uiso   1.00
H309   H     0.97472   0.26741   0.91146   0.00000  Uiso   1.00
H310   H     0.03450   0.10977   0.10517   0.00000  Uiso   1.00
H311   H     0.85493   0.36474   0.34702   0.00000  Uiso   1.00
H312   H     0.00135   0.33025   0.74008   0.00000  Uiso   1.00
H313   H     0.12739   0.99783   0.14856   0.00000  Uiso   1.00
O314   O     0.91070   0.45225   0.45923   0.00000  Uiso   1.00
O315   O     0.10280   0.40699   0.66295   0.00000  Uiso   1.00
O316   O     0.26817   0.97087   0.19887   0.00000  Uiso   1.00
N317   N     0.01681   0.42640   0.37337   0.00000  Uiso   1.00
N318   N     0.15369   0.39417   0.80593   0.00000  Uiso   1.00
N319   N     0.27154   0.08338   0.18780   0.00000  Uiso   1.00
N320   N     0.90990   0.37716   0.34272   0.00000  Uiso   1.00
N321   N     0.04679   0.34492   0.77527   0.00000  Uiso   1.00
N322   N     0.16464   0.03414   0.15714   0.00000  Uiso   1.00
C323   C     0.15675   0.80565   0.62511   0.00000  Uiso   1.00
C324   C     0.09206   0.82688   0.68605   0.00000  Uiso   1.00
C325   C     0.09721   0.87218   0.75435   0.00000  Uiso   1.00
C326   C     0.03159   0.88493   0.80244   0.00000  Uiso   1.00
C327   C     0.94152   0.92271   0.90001   0.00000  Uiso   1.00
C328   C     0.12978   0.81801   0.52966   0.00000  Uiso   1.00
C329   C     0.16665   0.85584   0.46647   0.00000  Uiso   1.00
C330   C     0.13278   0.86110   0.38291   0.00000  Uiso   1.00
C331   C     0.10130   0.88507   0.23766   0.00000  Uiso   1.00
C332   C     0.16225   0.73236   0.63492   0.00000  Uiso   1.00
C333   C     0.22644   0.69817   0.66021   0.00000  Uiso   1.00
C334   C     0.21992   0.63132   0.66524   0.00000  Uiso   1.00
C335   C     0.23886   0.52231   0.68342   0.00000  Uiso   1.00
C336   C     0.03103   0.74773   0.58906   0.00000  Uiso   1.00
C337   C     0.02378   0.79543   0.66646   0.00000  Uiso   1.00
C338   C     0.95812   0.80811   0.71447   0.00000  Uiso   1.00
C339   C     0.96318   0.85341   0.78283   0.00000  Uiso   1.00
C340   C     0.06150   0.78656   0.51008   0.00000  Uiso   1.00
C341   C     0.02756   0.79176   0.42659   0.00000  Uiso   1.00
C342   C     0.06438   0.82959   0.36329   0.00000  Uiso   1.00
C343   C     0.09397   0.70090   0.61534   0.00000  Uiso   1.00
C344   C     0.08735   0.63410   0.62033   0.00000  Uiso   1.00
C345   C     0.15151   0.59981   0.64562   0.00000  Uiso   1.00
H346   H     0.20991   0.83014   0.64035   0.00000  Uiso   1.00
H347   H     0.15007   0.89652   0.76948   0.00000  Uiso   1.00
H348   H     0.21950   0.88017   0.48164   0.00000  Uiso   1.00
H349   H     0.27927   0.72253   0.67535   0.00000  Uiso   1.00
H350   H     0.05360   0.95626   0.90398   0.00000  Uiso   1.00
H351   H     0.20001   0.92177   0.29705   0.00000  Uiso   1.00
H352   H     0.32606   0.58935   0.70553   0.00000  Uiso   1.00
H353   H     0.97787   0.72324   0.57382   0.00000  Uiso   1.00
H354   H     0.90529   0.78376   0.69930   0.00000  Uiso   1.00
H355   H     0.97472   0.76741   0.41146   0.00000  Uiso   1.00
H356   H     0.03450   0.60977   0.60517   0.00000  Uiso   1.00
H357   H     0.85493   0.86474   0.84702   0.00000  Uiso   1.00
H358   H     0.00135   0.83025   0.24008   0.00000  Uiso   1.00
H359   H     0.12739   0.49783   0.64856   0.00000  Uiso   1.00
O360   O     0.91070   0.95225   0.95923   0.00000  Uiso   1.00
O361   O     0.10280   0.90699   0.16295   0.00000  Uiso   1.00
O362   O     0.26817   0.47087   0.69887   0.00000  Uiso   1.00
N363   N     0.01681   0.92640   0.87337   0.00000  Uiso   1.00
N364   N     0.15369   0.89417   0.30593   0.00000  Uiso   1.00
N365   N     0.27154   0.58338   0.68780   0.00000  Uiso   1.00
N366   N     0.90990   0.87716   0.84272   0.00000  Uiso   1.00
N367   N     0.04679   0.84492   0.27527   0.00000  Uiso   1.00
N368   N     0.16464   0.53414   0.65714   0.00000  Uiso   1.00
