data_job_04731
_audit_creation_date              2018-12-19
_audit_creation_method            'Materials Studio'
_symmetry_space_group_name_H-M    'P1'
_symmetry_Int_Tables_number       1
_symmetry_cell_setting            triclinic
loop_
_symmetry_equiv_pos_as_xyz
  x,y,z
_cell_length_a                    14.4763
_cell_length_b                    17.2816
_cell_length_c                    17.6749
_cell_angle_alpha                 90.0000
_cell_angle_beta                  90.0000
_cell_angle_gamma                 90.0000
loop_
_atom_site_label
_atom_site_type_symbol
_atom_site_fract_x
_atom_site_fract_y
_atom_site_fract_z
_atom_site_U_iso_or_equiv
_atom_site_adp_type
_atom_site_occupancy
C1     C     0.65420   0.46565   0.43118   0.00000  Uiso   1.00
C2     C     0.70242   0.43766   0.35952   0.00000  Uiso   1.00
C3     C     0.66818   0.38305   0.30924   0.00000  Uiso   1.00
C4     C     0.72280   0.36530   0.24705   0.00000  Uiso   1.00
C5     C     0.78464   0.31640   0.13754   0.00000  Uiso   1.00
C6     C     0.72169   0.45089   0.49584   0.00000  Uiso   1.00
C7     C     0.70364   0.40742   0.56018   0.00000  Uiso   1.00
C8     C     0.77448   0.40082   0.61275   0.00000  Uiso   1.00
C9     C     0.86621   0.37251   0.71490   0.00000  Uiso   1.00
C10    C     0.64671   0.55333   0.42376   0.00000  Uiso   1.00
C11    C     0.56562   0.59600   0.42752   0.00000  Uiso   1.00
C12    C     0.57334   0.67566   0.41942   0.00000  Uiso   1.00
C13    C     0.54865   0.80640   0.40967   0.00000  Uiso   1.00
C14    C     0.81210   0.53124   0.41013   0.00000  Uiso   1.00
C15    C     0.78818   0.47329   0.34809   0.00000  Uiso   1.00
C16    C     0.84287   0.45562   0.28595   0.00000  Uiso   1.00
C17    C     0.80871   0.40100   0.23559   0.00000  Uiso   1.00
C18    C     0.80745   0.48652   0.48440   0.00000  Uiso   1.00
C19    C     0.87833   0.47999   0.53689   0.00000  Uiso   1.00
C20    C     0.86039   0.43651   0.60129   0.00000  Uiso   1.00
C21    C     0.73247   0.58896   0.41232   0.00000  Uiso   1.00
C22    C     0.74031   0.66857   0.40423   0.00000  Uiso   1.00
C23    C     0.65925   0.71135   0.40797   0.00000  Uiso   1.00
H24    H     0.58744   0.43791   0.44009   0.00000  Uiso   1.00
H25    H     0.60181   0.35549   0.31812   0.00000  Uiso   1.00
H26    H     0.63726   0.37986   0.56902   0.00000  Uiso   1.00
H27    H     0.49927   0.56841   0.43637   0.00000  Uiso   1.00
H28    H     0.65558   0.27980   0.17786   0.00000  Uiso   1.00
H29    H     0.73032   0.33121   0.70691   0.00000  Uiso   1.00
H30    H     0.43933   0.72881   0.42721   0.00000  Uiso   1.00
H31    H     0.87887   0.55898   0.40123   0.00000  Uiso   1.00
H32    H     0.90923   0.48320   0.27712   0.00000  Uiso   1.00
H33    H     0.94468   0.50757   0.52802   0.00000  Uiso   1.00
H34    H     0.80669   0.69612   0.39538   0.00000  Uiso   1.00
H35    H     0.90509   0.38345   0.14459   0.00000  Uiso   1.00
H36    H     0.97984   0.43486   0.67364   0.00000  Uiso   1.00
H37    H     0.68885   0.83246   0.39394   0.00000  Uiso   1.00
O38    O     0.79506   0.27957   0.08030   0.00000  Uiso   1.00
O39    O     0.89312   0.34704   0.77440   0.00000  Uiso   1.00
O40    O     0.51135   0.86867   0.40743   0.00000  Uiso   1.00
N41    N     0.71013   0.31460   0.18706   0.00000  Uiso   1.00
N42    N     0.78001   0.36266   0.68168   0.00000  Uiso   1.00
N43    N     0.50796   0.73438   0.42020   0.00000  Uiso   1.00
N44    N     0.84439   0.37038   0.16915   0.00000  Uiso   1.00
N45    N     0.91427   0.41844   0.66377   0.00000  Uiso   1.00
N46    N     0.64223   0.79016   0.40230   0.00000  Uiso   1.00
C47    C     0.84580   0.03435   0.93118   0.00000  Uiso   1.00
C48    C     0.79758   0.06234   0.85952   0.00000  Uiso   1.00
C49    C     0.83182   0.11695   0.80924   0.00000  Uiso   1.00
C50    C     0.77720   0.13470   0.74705   0.00000  Uiso   1.00
C51    C     0.71536   0.18360   0.63754   0.00000  Uiso   1.00
C52    C     0.77831   0.04911   0.99584   0.00000  Uiso   1.00
C53    C     0.79636   0.09258   0.06018   0.00000  Uiso   1.00
C54    C     0.72552   0.09918   0.11275   0.00000  Uiso   1.00
C55    C     0.63379   0.12749   0.21490   0.00000  Uiso   1.00
C56    C     0.85329   0.94667   0.92376   0.00000  Uiso   1.00
C57    C     0.93438   0.90400   0.92752   0.00000  Uiso   1.00
C58    C     0.92666   0.82434   0.91942   0.00000  Uiso   1.00
C59    C     0.95135   0.69360   0.90967   0.00000  Uiso   1.00
C60    C     0.68790   0.96876   0.91013   0.00000  Uiso   1.00
C61    C     0.71182   0.02671   0.84809   0.00000  Uiso   1.00
C62    C     0.65713   0.04438   0.78595   0.00000  Uiso   1.00
C63    C     0.69129   0.09900   0.73559   0.00000  Uiso   1.00
C64    C     0.69255   0.01348   0.98440   0.00000  Uiso   1.00
C65    C     0.62167   0.02001   0.03689   0.00000  Uiso   1.00
C66    C     0.63961   0.06349   0.10129   0.00000  Uiso   1.00
C67    C     0.76753   0.91104   0.91232   0.00000  Uiso   1.00
C68    C     0.75969   0.83143   0.90423   0.00000  Uiso   1.00
C69    C     0.84075   0.78865   0.90797   0.00000  Uiso   1.00
H70    H     0.91256   0.06209   0.94009   0.00000  Uiso   1.00
H71    H     0.89819   0.14451   0.81812   0.00000  Uiso   1.00
H72    H     0.86274   0.12014   0.06902   0.00000  Uiso   1.00
H73    H     0.00073   0.93159   0.93637   0.00000  Uiso   1.00
H74    H     0.84442   0.22020   0.67786   0.00000  Uiso   1.00
H75    H     0.76968   0.16879   0.20691   0.00000  Uiso   1.00
H76    H     0.06067   0.77119   0.92721   0.00000  Uiso   1.00
H77    H     0.62113   0.94102   0.90123   0.00000  Uiso   1.00
H78    H     0.59077   0.01680   0.77712   0.00000  Uiso   1.00
H79    H     0.55532   0.99243   0.02802   0.00000  Uiso   1.00
H80    H     0.69331   0.80388   0.89538   0.00000  Uiso   1.00
H81    H     0.59491   0.11655   0.64459   0.00000  Uiso   1.00
H82    H     0.52016   0.06514   0.17364   0.00000  Uiso   1.00
H83    H     0.81115   0.66754   0.89394   0.00000  Uiso   1.00
O84    O     0.70494   0.22043   0.58030   0.00000  Uiso   1.00
O85    O     0.60688   0.15296   0.27440   0.00000  Uiso   1.00
O86    O     0.98865   0.63133   0.90743   0.00000  Uiso   1.00
N87    N     0.78987   0.18540   0.68706   0.00000  Uiso   1.00
N88    N     0.71999   0.13734   0.18168   0.00000  Uiso   1.00
N89    N     0.99204   0.76562   0.92020   0.00000  Uiso   1.00
N90    N     0.65561   0.12962   0.66915   0.00000  Uiso   1.00
N91    N     0.58573   0.08156   0.16377   0.00000  Uiso   1.00
N92    N     0.85777   0.70984   0.90230   0.00000  Uiso   1.00
C93    C     0.34580   0.46565   0.06882   0.00000  Uiso   1.00
C94    C     0.29758   0.43766   0.14048   0.00000  Uiso   1.00
C95    C     0.33182   0.38305   0.19076   0.00000  Uiso   1.00
C96    C     0.27720   0.36530   0.25295   0.00000  Uiso   1.00
C97    C     0.21536   0.31640   0.36246   0.00000  Uiso   1.00
C98    C     0.27831   0.45089   0.00416   0.00000  Uiso   1.00
C99    C     0.29636   0.40742   0.93982   0.00000  Uiso   1.00
C100   C     0.22552   0.40082   0.88725   0.00000  Uiso   1.00
C101   C     0.13379   0.37251   0.78510   0.00000  Uiso   1.00
C102   C     0.35329   0.55333   0.07624   0.00000  Uiso   1.00
C103   C     0.43438   0.59600   0.07248   0.00000  Uiso   1.00
C104   C     0.42666   0.67566   0.08058   0.00000  Uiso   1.00
C105   C     0.45135   0.80640   0.09033   0.00000  Uiso   1.00
C106   C     0.18790   0.53124   0.08987   0.00000  Uiso   1.00
C107   C     0.21182   0.47329   0.15191   0.00000  Uiso   1.00
C108   C     0.15713   0.45562   0.21405   0.00000  Uiso   1.00
C109   C     0.19129   0.40100   0.26441   0.00000  Uiso   1.00
C110   C     0.19255   0.48652   0.01560   0.00000  Uiso   1.00
C111   C     0.12167   0.47999   0.96311   0.00000  Uiso   1.00
C112   C     0.13961   0.43651   0.89871   0.00000  Uiso   1.00
C113   C     0.26753   0.58896   0.08768   0.00000  Uiso   1.00
C114   C     0.25969   0.66857   0.09577   0.00000  Uiso   1.00
C115   C     0.34075   0.71135   0.09203   0.00000  Uiso   1.00
H116   H     0.41256   0.43791   0.05991   0.00000  Uiso   1.00
H117   H     0.39819   0.35549   0.18188   0.00000  Uiso   1.00
H118   H     0.36274   0.37986   0.93098   0.00000  Uiso   1.00
H119   H     0.50073   0.56841   0.06363   0.00000  Uiso   1.00
H120   H     0.34442   0.27980   0.32214   0.00000  Uiso   1.00
H121   H     0.26968   0.33121   0.79309   0.00000  Uiso   1.00
H122   H     0.56067   0.72881   0.07279   0.00000  Uiso   1.00
H123   H     0.12113   0.55898   0.09877   0.00000  Uiso   1.00
H124   H     0.09077   0.48320   0.22288   0.00000  Uiso   1.00
H125   H     0.05532   0.50757   0.97198   0.00000  Uiso   1.00
H126   H     0.19331   0.69612   0.10462   0.00000  Uiso   1.00
H127   H     0.09491   0.38345   0.35541   0.00000  Uiso   1.00
H128   H     0.02016   0.43486   0.82636   0.00000  Uiso   1.00
H129   H     0.31115   0.83246   0.10606   0.00000  Uiso   1.00
O130   O     0.20494   0.27957   0.41970   0.00000  Uiso   1.00
O131   O     0.10688   0.34704   0.72560   0.00000  Uiso   1.00
O132   O     0.48865   0.86867   0.09257   0.00000  Uiso   1.00
N133   N     0.28987   0.31460   0.31294   0.00000  Uiso   1.00
N134   N     0.21999   0.36266   0.81832   0.00000  Uiso   1.00
N135   N     0.49204   0.73438   0.07980   0.00000  Uiso   1.00
N136   N     0.15561   0.37038   0.33085   0.00000  Uiso   1.00
N137   N     0.08573   0.41844   0.83623   0.00000  Uiso   1.00
N138   N     0.35777   0.79016   0.09770   0.00000  Uiso   1.00
C139   C     0.15420   0.03435   0.56882   0.00000  Uiso   1.00
C140   C     0.20242   0.06234   0.64048   0.00000  Uiso   1.00
C141   C     0.16818   0.11695   0.69076   0.00000  Uiso   1.00
C142   C     0.22280   0.13470   0.75295   0.00000  Uiso   1.00
C143   C     0.28464   0.18360   0.86246   0.00000  Uiso   1.00
C144   C     0.22169   0.04911   0.50416   0.00000  Uiso   1.00
C145   C     0.20364   0.09258   0.43982   0.00000  Uiso   1.00
C146   C     0.27448   0.09918   0.38725   0.00000  Uiso   1.00
C147   C     0.36621   0.12749   0.28510   0.00000  Uiso   1.00
C148   C     0.14671   0.94667   0.57624   0.00000  Uiso   1.00
C149   C     0.06562   0.90400   0.57248   0.00000  Uiso   1.00
C150   C     0.07334   0.82434   0.58058   0.00000  Uiso   1.00
C151   C     0.04865   0.69360   0.59033   0.00000  Uiso   1.00
C152   C     0.31210   0.96876   0.58987   0.00000  Uiso   1.00
C153   C     0.28818   0.02671   0.65191   0.00000  Uiso   1.00
C154   C     0.34287   0.04438   0.71405   0.00000  Uiso   1.00
C155   C     0.30871   0.09900   0.76441   0.00000  Uiso   1.00
C156   C     0.30745   0.01348   0.51560   0.00000  Uiso   1.00
C157   C     0.37833   0.02001   0.46311   0.00000  Uiso   1.00
C158   C     0.36039   0.06349   0.39871   0.00000  Uiso   1.00
C159   C     0.23247   0.91104   0.58768   0.00000  Uiso   1.00
C160   C     0.24031   0.83143   0.59577   0.00000  Uiso   1.00
C161   C     0.15925   0.78865   0.59203   0.00000  Uiso   1.00
H162   H     0.08744   0.06209   0.55991   0.00000  Uiso   1.00
H163   H     0.10181   0.14451   0.68188   0.00000  Uiso   1.00
H164   H     0.13726   0.12014   0.43098   0.00000  Uiso   1.00
H165   H     0.99927   0.93159   0.56363   0.00000  Uiso   1.00
H166   H     0.15558   0.22020   0.82214   0.00000  Uiso   1.00
H167   H     0.23032   0.16879   0.29309   0.00000  Uiso   1.00
H168   H     0.93933   0.77119   0.57279   0.00000  Uiso   1.00
H169   H     0.37887   0.94102   0.59877   0.00000  Uiso   1.00
H170   H     0.40923   0.01680   0.72288   0.00000  Uiso   1.00
H171   H     0.44468   0.99243   0.47198   0.00000  Uiso   1.00
H172   H     0.30669   0.80388   0.60462   0.00000  Uiso   1.00
H173   H     0.40509   0.11655   0.85541   0.00000  Uiso   1.00
H174   H     0.47984   0.06514   0.32636   0.00000  Uiso   1.00
H175   H     0.18885   0.66754   0.60606   0.00000  Uiso   1.00
O176   O     0.29506   0.22043   0.91970   0.00000  Uiso   1.00
O177   O     0.39312   0.15296   0.22560   0.00000  Uiso   1.00
O178   O     0.01135   0.63133   0.59257   0.00000  Uiso   1.00
N179   N     0.21013   0.18540   0.81294   0.00000  Uiso   1.00
N180   N     0.28001   0.13734   0.31832   0.00000  Uiso   1.00
N181   N     0.00796   0.76562   0.57980   0.00000  Uiso   1.00
N182   N     0.34439   0.12962   0.83085   0.00000  Uiso   1.00
N183   N     0.41427   0.08156   0.33623   0.00000  Uiso   1.00
N184   N     0.14223   0.70984   0.59770   0.00000  Uiso   1.00
C185   C     0.34580   0.53435   0.56882   0.00000  Uiso   1.00
C186   C     0.29758   0.56234   0.64048   0.00000  Uiso   1.00
C187   C     0.33182   0.61695   0.69076   0.00000  Uiso   1.00
C188   C     0.27720   0.63470   0.75295   0.00000  Uiso   1.00
C189   C     0.21536   0.68360   0.86246   0.00000  Uiso   1.00
C190   C     0.27831   0.54911   0.50416   0.00000  Uiso   1.00
C191   C     0.29636   0.59258   0.43982   0.00000  Uiso   1.00
C192   C     0.22552   0.59918   0.38725   0.00000  Uiso   1.00
C193   C     0.13379   0.62749   0.28510   0.00000  Uiso   1.00
C194   C     0.35329   0.44667   0.57624   0.00000  Uiso   1.00
C195   C     0.43438   0.40400   0.57248   0.00000  Uiso   1.00
C196   C     0.42666   0.32434   0.58058   0.00000  Uiso   1.00
C197   C     0.45135   0.19360   0.59033   0.00000  Uiso   1.00
C198   C     0.18790   0.46876   0.58987   0.00000  Uiso   1.00
C199   C     0.21182   0.52671   0.65191   0.00000  Uiso   1.00
C200   C     0.15713   0.54438   0.71405   0.00000  Uiso   1.00
C201   C     0.19129   0.59900   0.76441   0.00000  Uiso   1.00
C202   C     0.19255   0.51348   0.51560   0.00000  Uiso   1.00
C203   C     0.12167   0.52001   0.46311   0.00000  Uiso   1.00
C204   C     0.13961   0.56349   0.39871   0.00000  Uiso   1.00
C205   C     0.26753   0.41104   0.58768   0.00000  Uiso   1.00
C206   C     0.25969   0.33143   0.59577   0.00000  Uiso   1.00
C207   C     0.34075   0.28865   0.59203   0.00000  Uiso   1.00
H208   H     0.41256   0.56209   0.55991   0.00000  Uiso   1.00
H209   H     0.39819   0.64451   0.68188   0.00000  Uiso   1.00
H210   H     0.36274   0.62014   0.43098   0.00000  Uiso   1.00
H211   H     0.50073   0.43159   0.56363   0.00000  Uiso   1.00
H212   H     0.34442   0.72020   0.82214   0.00000  Uiso   1.00
H213   H     0.26968   0.66879   0.29309   0.00000  Uiso   1.00
H214   H     0.56067   0.27119   0.57279   0.00000  Uiso   1.00
H215   H     0.12113   0.44102   0.59877   0.00000  Uiso   1.00
H216   H     0.09077   0.51680   0.72288   0.00000  Uiso   1.00
H217   H     0.05532   0.49243   0.47198   0.00000  Uiso   1.00
H218   H     0.19331   0.30388   0.60462   0.00000  Uiso   1.00
H219   H     0.09491   0.61655   0.85541   0.00000  Uiso   1.00
H220   H     0.02016   0.56514   0.32636   0.00000  Uiso   1.00
H221   H     0.31115   0.16754   0.60606   0.00000  Uiso   1.00
O222   O     0.20494   0.72043   0.91970   0.00000  Uiso   1.00
O223   O     0.10688   0.65296   0.22560   0.00000  Uiso   1.00
O224   O     0.48865   0.13133   0.59257   0.00000  Uiso   1.00
N225   N     0.28987   0.68540   0.81294   0.00000  Uiso   1.00
N226   N     0.21999   0.63734   0.31832   0.00000  Uiso   1.00
N227   N     0.49204   0.26562   0.57980   0.00000  Uiso   1.00
N228   N     0.15561   0.62962   0.83085   0.00000  Uiso   1.00
N229   N     0.08573   0.58156   0.33623   0.00000  Uiso   1.00
N230   N     0.35777   0.20984   0.59770   0.00000  Uiso   1.00
C231   C     0.15420   0.96565   0.06882   0.00000  Uiso   1.00
C232   C     0.20242   0.93766   0.14048   0.00000  Uiso   1.00
C233   C     0.16818   0.88305   0.19076   0.00000  Uiso   1.00
C234   C     0.22280   0.86530   0.25295   0.00000  Uiso   1.00
C235   C     0.28464   0.81640   0.36246   0.00000  Uiso   1.00
C236   C     0.22169   0.95089   0.00416   0.00000  Uiso   1.00
C237   C     0.20364   0.90742   0.93982   0.00000  Uiso   1.00
C238   C     0.27448   0.90082   0.88725   0.00000  Uiso   1.00
C239   C     0.36621   0.87251   0.78510   0.00000  Uiso   1.00
C240   C     0.14671   0.05333   0.07624   0.00000  Uiso   1.00
C241   C     0.06562   0.09600   0.07248   0.00000  Uiso   1.00
C242   C     0.07334   0.17566   0.08058   0.00000  Uiso   1.00
C243   C     0.04865   0.30640   0.09033   0.00000  Uiso   1.00
C244   C     0.31210   0.03124   0.08987   0.00000  Uiso   1.00
C245   C     0.28818   0.97329   0.15191   0.00000  Uiso   1.00
C246   C     0.34287   0.95562   0.21405   0.00000  Uiso   1.00
C247   C     0.30871   0.90100   0.26441   0.00000  Uiso   1.00
C248   C     0.30745   0.98652   0.01560   0.00000  Uiso   1.00
C249   C     0.37833   0.97999   0.96311   0.00000  Uiso   1.00
C250   C     0.36039   0.93651   0.89871   0.00000  Uiso   1.00
C251   C     0.23247   0.08896   0.08768   0.00000  Uiso   1.00
C252   C     0.24031   0.16857   0.09577   0.00000  Uiso   1.00
C253   C     0.15925   0.21135   0.09203   0.00000  Uiso   1.00
H254   H     0.08744   0.93791   0.05991   0.00000  Uiso   1.00
H255   H     0.10181   0.85549   0.18188   0.00000  Uiso   1.00
H256   H     0.13726   0.87986   0.93098   0.00000  Uiso   1.00
H257   H     0.99927   0.06841   0.06363   0.00000  Uiso   1.00
H258   H     0.15558   0.77980   0.32214   0.00000  Uiso   1.00
H259   H     0.23032   0.83121   0.79309   0.00000  Uiso   1.00
H260   H     0.93933   0.22881   0.07279   0.00000  Uiso   1.00
H261   H     0.37887   0.05898   0.09877   0.00000  Uiso   1.00
H262   H     0.40923   0.98320   0.22288   0.00000  Uiso   1.00
H263   H     0.44468   0.00757   0.97198   0.00000  Uiso   1.00
H264   H     0.30669   0.19612   0.10462   0.00000  Uiso   1.00
H265   H     0.40509   0.88345   0.35541   0.00000  Uiso   1.00
H266   H     0.47984   0.93486   0.82636   0.00000  Uiso   1.00
H267   H     0.18885   0.33246   0.10606   0.00000  Uiso   1.00
O268   O     0.29506   0.77957   0.41970   0.00000  Uiso   1.00
O269   O     0.39312   0.84704   0.72560   0.00000  Uiso   1.00
O270   O     0.01135   0.36867   0.09257   0.00000  Uiso   1.00
N271   N     0.21013   0.81460   0.31294   0.00000  Uiso   1.00
N272   N     0.28001   0.86266   0.81832   0.00000  Uiso   1.00
N273   N     0.00796   0.23438   0.07980   0.00000  Uiso   1.00
N274   N     0.34439   0.87038   0.33085   0.00000  Uiso   1.00
N275   N     0.41427   0.91844   0.83623   0.00000  Uiso   1.00
N276   N     0.14223   0.29016   0.09770   0.00000  Uiso   1.00
C277   C     0.65420   0.53435   0.93118   0.00000  Uiso   1.00
C278   C     0.70242   0.56234   0.85952   0.00000  Uiso   1.00
C279   C     0.66818   0.61695   0.80924   0.00000  Uiso   1.00
C280   C     0.72280   0.63470   0.74705   0.00000  Uiso   1.00
C281   C     0.78464   0.68360   0.63754   0.00000  Uiso   1.00
C282   C     0.72169   0.54911   0.99584   0.00000  Uiso   1.00
C283   C     0.70364   0.59258   0.06018   0.00000  Uiso   1.00
C284   C     0.77448   0.59918   0.11275   0.00000  Uiso   1.00
C285   C     0.86621   0.62749   0.21490   0.00000  Uiso   1.00
C286   C     0.64671   0.44667   0.92376   0.00000  Uiso   1.00
C287   C     0.56562   0.40400   0.92752   0.00000  Uiso   1.00
C288   C     0.57334   0.32434   0.91942   0.00000  Uiso   1.00
C289   C     0.54865   0.19360   0.90967   0.00000  Uiso   1.00
C290   C     0.81210   0.46876   0.91013   0.00000  Uiso   1.00
C291   C     0.78818   0.52671   0.84809   0.00000  Uiso   1.00
C292   C     0.84287   0.54438   0.78595   0.00000  Uiso   1.00
C293   C     0.80871   0.59900   0.73559   0.00000  Uiso   1.00
C294   C     0.80745   0.51348   0.98440   0.00000  Uiso   1.00
C295   C     0.87833   0.52001   0.03689   0.00000  Uiso   1.00
C296   C     0.86039   0.56349   0.10129   0.00000  Uiso   1.00
C297   C     0.73247   0.41104   0.91232   0.00000  Uiso   1.00
C298   C     0.74031   0.33143   0.90423   0.00000  Uiso   1.00
C299   C     0.65925   0.28865   0.90797   0.00000  Uiso   1.00
H300   H     0.58744   0.56209   0.94009   0.00000  Uiso   1.00
H301   H     0.60181   0.64451   0.81812   0.00000  Uiso   1.00
H302   H     0.63726   0.62014   0.06902   0.00000  Uiso   1.00
H303   H     0.49927   0.43159   0.93637   0.00000  Uiso   1.00
H304   H     0.65558   0.72020   0.67786   0.00000  Uiso   1.00
H305   H     0.73032   0.66879   0.20691   0.00000  Uiso   1.00
H306   H     0.43933   0.27119   0.92721   0.00000  Uiso   1.00
H307   H     0.87887   0.44102   0.90123   0.00000  Uiso   1.00
H308   H     0.90923   0.51680   0.77712   0.00000  Uiso   1.00
H309   H     0.94468   0.49243   0.02802   0.00000  Uiso   1.00
H310   H     0.80669   0.30388   0.89538   0.00000  Uiso   1.00
H311   H     0.90509   0.61655   0.64459   0.00000  Uiso   1.00
H312   H     0.97984   0.56514   0.17364   0.00000  Uiso   1.00
H313   H     0.68885   0.16754   0.89394   0.00000  Uiso   1.00
O314   O     0.79506   0.72043   0.58030   0.00000  Uiso   1.00
O315   O     0.89312   0.65296   0.27440   0.00000  Uiso   1.00
O316   O     0.51135   0.13133   0.90743   0.00000  Uiso   1.00
N317   N     0.71013   0.68540   0.68706   0.00000  Uiso   1.00
N318   N     0.78001   0.63734   0.18168   0.00000  Uiso   1.00
N319   N     0.50796   0.26562   0.92020   0.00000  Uiso   1.00
N320   N     0.84439   0.62962   0.66915   0.00000  Uiso   1.00
N321   N     0.91427   0.58156   0.16377   0.00000  Uiso   1.00
N322   N     0.64223   0.20984   0.90230   0.00000  Uiso   1.00
C323   C     0.84580   0.96565   0.43118   0.00000  Uiso   1.00
C324   C     0.79758   0.93766   0.35952   0.00000  Uiso   1.00
C325   C     0.83182   0.88305   0.30924   0.00000  Uiso   1.00
C326   C     0.77720   0.86530   0.24705   0.00000  Uiso   1.00
C327   C     0.71536   0.81640   0.13754   0.00000  Uiso   1.00
C328   C     0.77831   0.95089   0.49584   0.00000  Uiso   1.00
C329   C     0.79636   0.90742   0.56018   0.00000  Uiso   1.00
C330   C     0.72552   0.90082   0.61275   0.00000  Uiso   1.00
C331   C     0.63379   0.87251   0.71490   0.00000  Uiso   1.00
C332   C     0.85329   0.05333   0.42376   0.00000  Uiso   1.00
C333   C     0.93438   0.09600   0.42752   0.00000  Uiso   1.00
C334   C     0.92666   0.17566   0.41942   0.00000  Uiso   1.00
C335   C     0.95135   0.30640   0.40967   0.00000  Uiso   1.00
C336   C     0.68790   0.03124   0.41013   0.00000  Uiso   1.00
C337   C     0.71182   0.97329   0.34809   0.00000  Uiso   1.00
C338   C     0.65713   0.95562   0.28595   0.00000  Uiso   1.00
C339   C     0.69129   0.90100   0.23559   0.00000  Uiso   1.00
C340   C     0.69255   0.98652   0.48440   0.00000  Uiso   1.00
C341   C     0.62167   0.97999   0.53689   0.00000  Uiso   1.00
C342   C     0.63961   0.93651   0.60129   0.00000  Uiso   1.00
C343   C     0.76753   0.08896   0.41232   0.00000  Uiso   1.00
C344   C     0.75969   0.16857   0.40423   0.00000  Uiso   1.00
C345   C     0.84075   0.21135   0.40797   0.00000  Uiso   1.00
H346   H     0.91256   0.93791   0.44009   0.00000  Uiso   1.00
H347   H     0.89819   0.85549   0.31812   0.00000  Uiso   1.00
H348   H     0.86274   0.87986   0.56902   0.00000  Uiso   1.00
H349   H     0.00073   0.06841   0.43637   0.00000  Uiso   1.00
H350   H     0.84442   0.77980   0.17786   0.00000  Uiso   1.00
H351   H     0.76968   0.83121   0.70691   0.00000  Uiso   1.00
H352   H     0.06067   0.22881   0.42721   0.00000  Uiso   1.00
H353   H     0.62113   0.05898   0.40123   0.00000  Uiso   1.00
H354   H     0.59077   0.98320   0.27712   0.00000  Uiso   1.00
H355   H     0.55532   0.00757   0.52802   0.00000  Uiso   1.00
H356   H     0.69331   0.19612   0.39538   0.00000  Uiso   1.00
H357   H     0.59491   0.88345   0.14459   0.00000  Uiso   1.00
H358   H     0.52016   0.93486   0.67364   0.00000  Uiso   1.00
H359   H     0.81115   0.33246   0.39394   0.00000  Uiso   1.00
O360   O     0.70494   0.77957   0.08030   0.00000  Uiso   1.00
O361   O     0.60688   0.84704   0.77440   0.00000  Uiso   1.00
O362   O     0.98865   0.36867   0.40743   0.00000  Uiso   1.00
N363   N     0.78987   0.81460   0.18706   0.00000  Uiso   1.00
N364   N     0.71999   0.86266   0.68168   0.00000  Uiso   1.00
N365   N     0.99204   0.23438   0.42020   0.00000  Uiso   1.00
N366   N     0.65561   0.87038   0.16915   0.00000  Uiso   1.00
N367   N     0.58573   0.91844   0.66377   0.00000  Uiso   1.00
N368   N     0.85777   0.29016   0.40230   0.00000  Uiso   1.00
