data_job_00113
_audit_creation_date              2018-12-19
_audit_creation_method            'Materials Studio'
_symmetry_space_group_name_H-M    'P1'
_symmetry_Int_Tables_number       1
_symmetry_cell_setting            triclinic
loop_
_symmetry_equiv_pos_as_xyz
  x,y,z
_cell_length_a                    15.9873
_cell_length_b                    18.6528
_cell_length_c                    24.6885
_cell_angle_alpha                 90.0000
_cell_angle_beta                  144.1908
_cell_angle_gamma                 90.0000
loop_
_atom_site_label
_atom_site_type_symbol
_atom_site_fract_x
_atom_site_fract_y
_atom_site_fract_z
_atom_site_U_iso_or_equiv
_atom_site_adp_type
_atom_site_occupancy
C1     C     0.16828   0.88288   0.26586   0.00000  Uiso   1.00
C2     C     0.21121   0.96163   0.28510   0.00000  Uiso   1.00
C3     C     0.23392   0.00684   0.34083   0.00000  Uiso   1.00
C4     C     0.27254   0.07707   0.34961   0.00000  Uiso   1.00
C5     C     0.33679   0.19570   0.38635   0.00000  Uiso   1.00
C6     C     0.03085   0.87587   0.16089   0.00000  Uiso   1.00
C7     C     0.90193   0.84897   0.11219   0.00000  Uiso   1.00
C8     C     0.78873   0.84700   0.01639   0.00000  Uiso   1.00
C9     C     0.57299   0.83244   0.86030   0.00000  Uiso   1.00
C10    C     0.28210   0.84153   0.29433   0.00000  Uiso   1.00
C11    C     0.36441   0.78574   0.35782   0.00000  Uiso   1.00
C12    C     0.46272   0.75485   0.37437   0.00000  Uiso   1.00
C13    C     0.63709   0.68696   0.42547   0.00000  Uiso   1.00
C14    C     0.19647   0.92722   0.18233   0.00000  Uiso   1.00
C15    C     0.22651   0.98571   0.23972   0.00000  Uiso   1.00
C16    C     0.26511   0.05590   0.24842   0.00000  Uiso   1.00
C17    C     0.28789   0.10120   0.30416   0.00000  Uiso   1.00
C18    C     0.04615   0.89995   0.11551   0.00000  Uiso   1.00
C19    C     0.93312   0.89802   0.01977   0.00000  Uiso   1.00
C20    C     0.80406   0.87113   0.97094   0.00000  Uiso   1.00
C21    C     0.29741   0.86561   0.24896   0.00000  Uiso   1.00
C22    C     0.39560   0.83480   0.26541   0.00000  Uiso   1.00
C23    C     0.47806   0.77898   0.32891   0.00000  Uiso   1.00
H24    H     0.15635   0.86413   0.30117   0.00000  Uiso   1.00
H25    H     0.22205   0.98818   0.37593   0.00000  Uiso   1.00
H26    H     0.89012   0.83033   0.14732   0.00000  Uiso   1.00
H27    H     0.35253   0.76711   0.39292   0.00000  Uiso   1.00
H28    H     0.30159   0.13634   0.43877   0.00000  Uiso   1.00
H29    H     0.60170   0.80348   0.95673   0.00000  Uiso   1.00
H30    H     0.57679   0.67018   0.47463   0.00000  Uiso   1.00
H31    H     0.20839   0.94597   0.14700   0.00000  Uiso   1.00
H32    H     0.27695   0.07452   0.21330   0.00000  Uiso   1.00
H33    H     0.94501   0.91666   0.98468   0.00000  Uiso   1.00
H34    H     0.40742   0.85345   0.23028   0.00000  Uiso   1.00
H35    H     0.34614   0.20642   0.30677   0.00000  Uiso   1.00
H36    H     0.64625   0.87355   0.82473   0.00000  Uiso   1.00
H37    H     0.62134   0.74025   0.34263   0.00000  Uiso   1.00
O38    O     0.36798   0.25447   0.41914   0.00000  Uiso   1.00
O39    O     0.44976   0.81775   0.78673   0.00000  Uiso   1.00
O40    O     0.72906   0.64287   0.46620   0.00000  Uiso   1.00
N41    N     0.30269   0.13519   0.39862   0.00000  Uiso   1.00
N42    N     0.64833   0.82399   0.94794   0.00000  Uiso   1.00
N43    N     0.55993   0.69935   0.43211   0.00000  Uiso   1.00
N44    N     0.32667   0.17290   0.32759   0.00000  Uiso   1.00
N45    N     0.67231   0.86170   0.87692   0.00000  Uiso   1.00
N46    N     0.58391   0.73706   0.36109   0.00000  Uiso   1.00
C47    C     0.66828   0.38288   0.26586   0.00000  Uiso   1.00
C48    C     0.71121   0.46163   0.28510   0.00000  Uiso   1.00
C49    C     0.73392   0.50684   0.34083   0.00000  Uiso   1.00
C50    C     0.77254   0.57707   0.34961   0.00000  Uiso   1.00
C51    C     0.83679   0.69570   0.38635   0.00000  Uiso   1.00
C52    C     0.53085   0.37587   0.16089   0.00000  Uiso   1.00
C53    C     0.40193   0.34897   0.11219   0.00000  Uiso   1.00
C54    C     0.28873   0.34700   0.01639   0.00000  Uiso   1.00
C55    C     0.07299   0.33244   0.86030   0.00000  Uiso   1.00
C56    C     0.78210   0.34153   0.29433   0.00000  Uiso   1.00
C57    C     0.86441   0.28574   0.35782   0.00000  Uiso   1.00
C58    C     0.96272   0.25485   0.37437   0.00000  Uiso   1.00
C59    C     0.13709   0.18696   0.42547   0.00000  Uiso   1.00
C60    C     0.69647   0.42722   0.18233   0.00000  Uiso   1.00
C61    C     0.72651   0.48571   0.23972   0.00000  Uiso   1.00
C62    C     0.76511   0.55590   0.24842   0.00000  Uiso   1.00
C63    C     0.78789   0.60120   0.30416   0.00000  Uiso   1.00
C64    C     0.54615   0.39995   0.11551   0.00000  Uiso   1.00
C65    C     0.43312   0.39802   0.01977   0.00000  Uiso   1.00
C66    C     0.30406   0.37113   0.97094   0.00000  Uiso   1.00
C67    C     0.79741   0.36561   0.24896   0.00000  Uiso   1.00
C68    C     0.89560   0.33480   0.26541   0.00000  Uiso   1.00
C69    C     0.97806   0.27898   0.32891   0.00000  Uiso   1.00
H70    H     0.65635   0.36413   0.30117   0.00000  Uiso   1.00
H71    H     0.72205   0.48818   0.37593   0.00000  Uiso   1.00
H72    H     0.39012   0.33033   0.14732   0.00000  Uiso   1.00
H73    H     0.85253   0.26711   0.39292   0.00000  Uiso   1.00
H74    H     0.80159   0.63634   0.43877   0.00000  Uiso   1.00
H75    H     0.10170   0.30348   0.95673   0.00000  Uiso   1.00
H76    H     0.07679   0.17018   0.47463   0.00000  Uiso   1.00
H77    H     0.70839   0.44597   0.14700   0.00000  Uiso   1.00
H78    H     0.77695   0.57452   0.21330   0.00000  Uiso   1.00
H79    H     0.44501   0.41666   0.98468   0.00000  Uiso   1.00
H80    H     0.90742   0.35345   0.23028   0.00000  Uiso   1.00
H81    H     0.84614   0.70642   0.30677   0.00000  Uiso   1.00
H82    H     0.14625   0.37355   0.82473   0.00000  Uiso   1.00
H83    H     0.12134   0.24025   0.34263   0.00000  Uiso   1.00
O84    O     0.86798   0.75447   0.41914   0.00000  Uiso   1.00
O85    O     0.94976   0.31775   0.78673   0.00000  Uiso   1.00
O86    O     0.22906   0.14287   0.46620   0.00000  Uiso   1.00
N87    N     0.80269   0.63519   0.39862   0.00000  Uiso   1.00
N88    N     0.14833   0.32399   0.94794   0.00000  Uiso   1.00
N89    N     0.05993   0.19935   0.43211   0.00000  Uiso   1.00
N90    N     0.82667   0.67290   0.32759   0.00000  Uiso   1.00
N91    N     0.17231   0.36170   0.87692   0.00000  Uiso   1.00
N92    N     0.08391   0.23706   0.36109   0.00000  Uiso   1.00
C93    C     0.83172   0.88288   0.23414   0.00000  Uiso   1.00
C94    C     0.78879   0.96163   0.21490   0.00000  Uiso   1.00
C95    C     0.76608   0.00684   0.15917   0.00000  Uiso   1.00
C96    C     0.72746   0.07707   0.15039   0.00000  Uiso   1.00
C97    C     0.66321   0.19570   0.11365   0.00000  Uiso   1.00
C98    C     0.96915   0.87587   0.33911   0.00000  Uiso   1.00
C99    C     0.09807   0.84897   0.38781   0.00000  Uiso   1.00
C100   C     0.21127   0.84700   0.48361   0.00000  Uiso   1.00
C101   C     0.42701   0.83244   0.63970   0.00000  Uiso   1.00
C102   C     0.71790   0.84153   0.20567   0.00000  Uiso   1.00
C103   C     0.63559   0.78574   0.14218   0.00000  Uiso   1.00
C104   C     0.53728   0.75485   0.12563   0.00000  Uiso   1.00
C105   C     0.36291   0.68696   0.07453   0.00000  Uiso   1.00
C106   C     0.80353   0.92722   0.31767   0.00000  Uiso   1.00
C107   C     0.77349   0.98571   0.26028   0.00000  Uiso   1.00
C108   C     0.73489   0.05590   0.25158   0.00000  Uiso   1.00
C109   C     0.71211   0.10120   0.19584   0.00000  Uiso   1.00
C110   C     0.95385   0.89995   0.38449   0.00000  Uiso   1.00
C111   C     0.06688   0.89802   0.48023   0.00000  Uiso   1.00
C112   C     0.19594   0.87113   0.52906   0.00000  Uiso   1.00
C113   C     0.70259   0.86561   0.25104   0.00000  Uiso   1.00
C114   C     0.60440   0.83480   0.23459   0.00000  Uiso   1.00
C115   C     0.52194   0.77898   0.17109   0.00000  Uiso   1.00
H116   H     0.84365   0.86413   0.19883   0.00000  Uiso   1.00
H117   H     0.77795   0.98818   0.12407   0.00000  Uiso   1.00
H118   H     0.10988   0.83033   0.35268   0.00000  Uiso   1.00
H119   H     0.64747   0.76711   0.10708   0.00000  Uiso   1.00
H120   H     0.69841   0.13634   0.06123   0.00000  Uiso   1.00
H121   H     0.39830   0.80348   0.54327   0.00000  Uiso   1.00
H122   H     0.42321   0.67018   0.02537   0.00000  Uiso   1.00
H123   H     0.79161   0.94597   0.35300   0.00000  Uiso   1.00
H124   H     0.72305   0.07452   0.28670   0.00000  Uiso   1.00
H125   H     0.05499   0.91666   0.51532   0.00000  Uiso   1.00
H126   H     0.59258   0.85345   0.26972   0.00000  Uiso   1.00
H127   H     0.65386   0.20642   0.19323   0.00000  Uiso   1.00
H128   H     0.35375   0.87355   0.67527   0.00000  Uiso   1.00
H129   H     0.37866   0.74025   0.15737   0.00000  Uiso   1.00
O130   O     0.63202   0.25447   0.08086   0.00000  Uiso   1.00
O131   O     0.55024   0.81775   0.71327   0.00000  Uiso   1.00
O132   O     0.27094   0.64287   0.03380   0.00000  Uiso   1.00
N133   N     0.69731   0.13519   0.10138   0.00000  Uiso   1.00
N134   N     0.35167   0.82399   0.55206   0.00000  Uiso   1.00
N135   N     0.44007   0.69935   0.06789   0.00000  Uiso   1.00
N136   N     0.67333   0.17290   0.17241   0.00000  Uiso   1.00
N137   N     0.32769   0.86170   0.62308   0.00000  Uiso   1.00
N138   N     0.41609   0.73706   0.13891   0.00000  Uiso   1.00
C139   C     0.33172   0.38288   0.23414   0.00000  Uiso   1.00
C140   C     0.28879   0.46163   0.21490   0.00000  Uiso   1.00
C141   C     0.26608   0.50684   0.15917   0.00000  Uiso   1.00
C142   C     0.22746   0.57707   0.15039   0.00000  Uiso   1.00
C143   C     0.16321   0.69570   0.11365   0.00000  Uiso   1.00
C144   C     0.46915   0.37587   0.33911   0.00000  Uiso   1.00
C145   C     0.59807   0.34897   0.38781   0.00000  Uiso   1.00
C146   C     0.71127   0.34700   0.48361   0.00000  Uiso   1.00
C147   C     0.92701   0.33244   0.63970   0.00000  Uiso   1.00
C148   C     0.21790   0.34153   0.20567   0.00000  Uiso   1.00
C149   C     0.13559   0.28574   0.14218   0.00000  Uiso   1.00
C150   C     0.03728   0.25485   0.12563   0.00000  Uiso   1.00
C151   C     0.86291   0.18696   0.07453   0.00000  Uiso   1.00
C152   C     0.30353   0.42722   0.31767   0.00000  Uiso   1.00
C153   C     0.27349   0.48571   0.26028   0.00000  Uiso   1.00
C154   C     0.23489   0.55590   0.25158   0.00000  Uiso   1.00
C155   C     0.21211   0.60120   0.19584   0.00000  Uiso   1.00
C156   C     0.45385   0.39995   0.38449   0.00000  Uiso   1.00
C157   C     0.56688   0.39802   0.48023   0.00000  Uiso   1.00
C158   C     0.69594   0.37113   0.52906   0.00000  Uiso   1.00
C159   C     0.20259   0.36561   0.25104   0.00000  Uiso   1.00
C160   C     0.10440   0.33480   0.23459   0.00000  Uiso   1.00
C161   C     0.02194   0.27898   0.17109   0.00000  Uiso   1.00
H162   H     0.34365   0.36413   0.19883   0.00000  Uiso   1.00
H163   H     0.27795   0.48818   0.12407   0.00000  Uiso   1.00
H164   H     0.60988   0.33033   0.35268   0.00000  Uiso   1.00
H165   H     0.14747   0.26711   0.10708   0.00000  Uiso   1.00
H166   H     0.19841   0.63634   0.06123   0.00000  Uiso   1.00
H167   H     0.89830   0.30348   0.54327   0.00000  Uiso   1.00
H168   H     0.92321   0.17018   0.02537   0.00000  Uiso   1.00
H169   H     0.29161   0.44597   0.35300   0.00000  Uiso   1.00
H170   H     0.22305   0.57452   0.28670   0.00000  Uiso   1.00
H171   H     0.55499   0.41666   0.51532   0.00000  Uiso   1.00
H172   H     0.09258   0.35345   0.26972   0.00000  Uiso   1.00
H173   H     0.15386   0.70642   0.19323   0.00000  Uiso   1.00
H174   H     0.85375   0.37355   0.67527   0.00000  Uiso   1.00
H175   H     0.87866   0.24025   0.15737   0.00000  Uiso   1.00
O176   O     0.13202   0.75447   0.08086   0.00000  Uiso   1.00
O177   O     0.05024   0.31775   0.71327   0.00000  Uiso   1.00
O178   O     0.77094   0.14287   0.03380   0.00000  Uiso   1.00
N179   N     0.19731   0.63519   0.10138   0.00000  Uiso   1.00
N180   N     0.85167   0.32399   0.55206   0.00000  Uiso   1.00
N181   N     0.94007   0.19935   0.06789   0.00000  Uiso   1.00
N182   N     0.17333   0.67290   0.17241   0.00000  Uiso   1.00
N183   N     0.82769   0.36170   0.62308   0.00000  Uiso   1.00
N184   N     0.91609   0.23706   0.13891   0.00000  Uiso   1.00
C185   C     0.83172   0.11712   0.73414   0.00000  Uiso   1.00
C186   C     0.78879   0.03837   0.71490   0.00000  Uiso   1.00
C187   C     0.76608   0.99316   0.65917   0.00000  Uiso   1.00
C188   C     0.72746   0.92293   0.65039   0.00000  Uiso   1.00
C189   C     0.66321   0.80430   0.61365   0.00000  Uiso   1.00
C190   C     0.96915   0.12413   0.83911   0.00000  Uiso   1.00
C191   C     0.09807   0.15103   0.88781   0.00000  Uiso   1.00
C192   C     0.21127   0.15300   0.98361   0.00000  Uiso   1.00
C193   C     0.42701   0.16756   0.13970   0.00000  Uiso   1.00
C194   C     0.71790   0.15847   0.70567   0.00000  Uiso   1.00
C195   C     0.63559   0.21426   0.64218   0.00000  Uiso   1.00
C196   C     0.53728   0.24515   0.62563   0.00000  Uiso   1.00
C197   C     0.36291   0.31304   0.57453   0.00000  Uiso   1.00
C198   C     0.80353   0.07278   0.81767   0.00000  Uiso   1.00
C199   C     0.77349   0.01429   0.76028   0.00000  Uiso   1.00
C200   C     0.73489   0.94410   0.75158   0.00000  Uiso   1.00
C201   C     0.71211   0.89880   0.69584   0.00000  Uiso   1.00
C202   C     0.95385   0.10005   0.88449   0.00000  Uiso   1.00
C203   C     0.06688   0.10198   0.98023   0.00000  Uiso   1.00
C204   C     0.19594   0.12887   0.02906   0.00000  Uiso   1.00
C205   C     0.70259   0.13439   0.75104   0.00000  Uiso   1.00
C206   C     0.60440   0.16520   0.73459   0.00000  Uiso   1.00
C207   C     0.52194   0.22102   0.67109   0.00000  Uiso   1.00
H208   H     0.84365   0.13587   0.69883   0.00000  Uiso   1.00
H209   H     0.77795   0.01182   0.62407   0.00000  Uiso   1.00
H210   H     0.10988   0.16967   0.85268   0.00000  Uiso   1.00
H211   H     0.64747   0.23289   0.60708   0.00000  Uiso   1.00
H212   H     0.69841   0.86366   0.56123   0.00000  Uiso   1.00
H213   H     0.39830   0.19652   0.04327   0.00000  Uiso   1.00
H214   H     0.42321   0.32982   0.52537   0.00000  Uiso   1.00
H215   H     0.79161   0.05403   0.85300   0.00000  Uiso   1.00
H216   H     0.72305   0.92548   0.78670   0.00000  Uiso   1.00
H217   H     0.05499   0.08334   0.01532   0.00000  Uiso   1.00
H218   H     0.59258   0.14655   0.76972   0.00000  Uiso   1.00
H219   H     0.65386   0.79358   0.69323   0.00000  Uiso   1.00
H220   H     0.35375   0.12645   0.17527   0.00000  Uiso   1.00
H221   H     0.37866   0.25975   0.65737   0.00000  Uiso   1.00
O222   O     0.63202   0.74553   0.58086   0.00000  Uiso   1.00
O223   O     0.55024   0.18225   0.21327   0.00000  Uiso   1.00
O224   O     0.27094   0.35713   0.53380   0.00000  Uiso   1.00
N225   N     0.69731   0.86481   0.60138   0.00000  Uiso   1.00
N226   N     0.35167   0.17601   0.05206   0.00000  Uiso   1.00
N227   N     0.44007   0.30065   0.56789   0.00000  Uiso   1.00
N228   N     0.67333   0.82710   0.67241   0.00000  Uiso   1.00
N229   N     0.32769   0.13830   0.12308   0.00000  Uiso   1.00
N230   N     0.41609   0.26294   0.63891   0.00000  Uiso   1.00
C231   C     0.33172   0.61712   0.73414   0.00000  Uiso   1.00
C232   C     0.28879   0.53837   0.71490   0.00000  Uiso   1.00
C233   C     0.26608   0.49316   0.65917   0.00000  Uiso   1.00
C234   C     0.22746   0.42293   0.65039   0.00000  Uiso   1.00
C235   C     0.16321   0.30430   0.61365   0.00000  Uiso   1.00
C236   C     0.46915   0.62413   0.83911   0.00000  Uiso   1.00
C237   C     0.59807   0.65103   0.88781   0.00000  Uiso   1.00
C238   C     0.71127   0.65300   0.98361   0.00000  Uiso   1.00
C239   C     0.92701   0.66756   0.13970   0.00000  Uiso   1.00
C240   C     0.21790   0.65847   0.70567   0.00000  Uiso   1.00
C241   C     0.13559   0.71426   0.64218   0.00000  Uiso   1.00
C242   C     0.03728   0.74515   0.62563   0.00000  Uiso   1.00
C243   C     0.86291   0.81304   0.57453   0.00000  Uiso   1.00
C244   C     0.30353   0.57278   0.81767   0.00000  Uiso   1.00
C245   C     0.27349   0.51429   0.76028   0.00000  Uiso   1.00
C246   C     0.23489   0.44410   0.75158   0.00000  Uiso   1.00
C247   C     0.21211   0.39880   0.69584   0.00000  Uiso   1.00
C248   C     0.45385   0.60005   0.88449   0.00000  Uiso   1.00
C249   C     0.56688   0.60198   0.98023   0.00000  Uiso   1.00
C250   C     0.69594   0.62887   0.02906   0.00000  Uiso   1.00
C251   C     0.20259   0.63439   0.75104   0.00000  Uiso   1.00
C252   C     0.10440   0.66520   0.73459   0.00000  Uiso   1.00
C253   C     0.02194   0.72102   0.67109   0.00000  Uiso   1.00
H254   H     0.34365   0.63587   0.69883   0.00000  Uiso   1.00
H255   H     0.27795   0.51182   0.62407   0.00000  Uiso   1.00
H256   H     0.60988   0.66967   0.85268   0.00000  Uiso   1.00
H257   H     0.14747   0.73289   0.60708   0.00000  Uiso   1.00
H258   H     0.19841   0.36366   0.56123   0.00000  Uiso   1.00
H259   H     0.89830   0.69652   0.04327   0.00000  Uiso   1.00
H260   H     0.92321   0.82982   0.52537   0.00000  Uiso   1.00
H261   H     0.29161   0.55403   0.85300   0.00000  Uiso   1.00
H262   H     0.22305   0.42548   0.78670   0.00000  Uiso   1.00
H263   H     0.55499   0.58334   0.01532   0.00000  Uiso   1.00
H264   H     0.09258   0.64655   0.76972   0.00000  Uiso   1.00
H265   H     0.15386   0.29358   0.69323   0.00000  Uiso   1.00
H266   H     0.85375   0.62645   0.17527   0.00000  Uiso   1.00
H267   H     0.87866   0.75975   0.65737   0.00000  Uiso   1.00
O268   O     0.13202   0.24553   0.58086   0.00000  Uiso   1.00
O269   O     0.05024   0.68225   0.21327   0.00000  Uiso   1.00
O270   O     0.77094   0.85713   0.53380   0.00000  Uiso   1.00
N271   N     0.19731   0.36481   0.60138   0.00000  Uiso   1.00
N272   N     0.85167   0.67601   0.05206   0.00000  Uiso   1.00
N273   N     0.94007   0.80065   0.56789   0.00000  Uiso   1.00
N274   N     0.17333   0.32710   0.67241   0.00000  Uiso   1.00
N275   N     0.82769   0.63830   0.12308   0.00000  Uiso   1.00
N276   N     0.91609   0.76294   0.63891   0.00000  Uiso   1.00
C277   C     0.16828   0.11712   0.76586   0.00000  Uiso   1.00
C278   C     0.21121   0.03837   0.78510   0.00000  Uiso   1.00
C279   C     0.23392   0.99316   0.84083   0.00000  Uiso   1.00
C280   C     0.27254   0.92293   0.84961   0.00000  Uiso   1.00
C281   C     0.33679   0.80430   0.88635   0.00000  Uiso   1.00
C282   C     0.03085   0.12413   0.66089   0.00000  Uiso   1.00
C283   C     0.90193   0.15103   0.61219   0.00000  Uiso   1.00
C284   C     0.78873   0.15300   0.51639   0.00000  Uiso   1.00
C285   C     0.57299   0.16756   0.36030   0.00000  Uiso   1.00
C286   C     0.28210   0.15847   0.79433   0.00000  Uiso   1.00
C287   C     0.36441   0.21426   0.85782   0.00000  Uiso   1.00
C288   C     0.46272   0.24515   0.87437   0.00000  Uiso   1.00
C289   C     0.63709   0.31304   0.92547   0.00000  Uiso   1.00
C290   C     0.19647   0.07278   0.68233   0.00000  Uiso   1.00
C291   C     0.22651   0.01429   0.73972   0.00000  Uiso   1.00
C292   C     0.26511   0.94410   0.74842   0.00000  Uiso   1.00
C293   C     0.28789   0.89880   0.80416   0.00000  Uiso   1.00
C294   C     0.04615   0.10005   0.61551   0.00000  Uiso   1.00
C295   C     0.93312   0.10198   0.51977   0.00000  Uiso   1.00
C296   C     0.80406   0.12887   0.47094   0.00000  Uiso   1.00
C297   C     0.29741   0.13439   0.74896   0.00000  Uiso   1.00
C298   C     0.39560   0.16520   0.76541   0.00000  Uiso   1.00
C299   C     0.47806   0.22102   0.82891   0.00000  Uiso   1.00
H300   H     0.15635   0.13587   0.80117   0.00000  Uiso   1.00
H301   H     0.22205   0.01182   0.87593   0.00000  Uiso   1.00
H302   H     0.89012   0.16967   0.64732   0.00000  Uiso   1.00
H303   H     0.35253   0.23289   0.89292   0.00000  Uiso   1.00
H304   H     0.30159   0.86366   0.93877   0.00000  Uiso   1.00
H305   H     0.60170   0.19652   0.45673   0.00000  Uiso   1.00
H306   H     0.57679   0.32982   0.97463   0.00000  Uiso   1.00
H307   H     0.20839   0.05403   0.64700   0.00000  Uiso   1.00
H308   H     0.27695   0.92548   0.71330   0.00000  Uiso   1.00
H309   H     0.94501   0.08334   0.48468   0.00000  Uiso   1.00
H310   H     0.40742   0.14655   0.73028   0.00000  Uiso   1.00
H311   H     0.34614   0.79358   0.80677   0.00000  Uiso   1.00
H312   H     0.64625   0.12645   0.32473   0.00000  Uiso   1.00
H313   H     0.62134   0.25975   0.84263   0.00000  Uiso   1.00
O314   O     0.36798   0.74553   0.91914   0.00000  Uiso   1.00
O315   O     0.44976   0.18225   0.28673   0.00000  Uiso   1.00
O316   O     0.72906   0.35713   0.96620   0.00000  Uiso   1.00
N317   N     0.30269   0.86481   0.89862   0.00000  Uiso   1.00
N318   N     0.64833   0.17601   0.44794   0.00000  Uiso   1.00
N319   N     0.55993   0.30065   0.93211   0.00000  Uiso   1.00
N320   N     0.32667   0.82710   0.82759   0.00000  Uiso   1.00
N321   N     0.67231   0.13830   0.37692   0.00000  Uiso   1.00
N322   N     0.58391   0.26294   0.86109   0.00000  Uiso   1.00
C323   C     0.66828   0.61712   0.76586   0.00000  Uiso   1.00
C324   C     0.71121   0.53837   0.78510   0.00000  Uiso   1.00
C325   C     0.73392   0.49316   0.84083   0.00000  Uiso   1.00
C326   C     0.77254   0.42293   0.84961   0.00000  Uiso   1.00
C327   C     0.83679   0.30430   0.88635   0.00000  Uiso   1.00
C328   C     0.53085   0.62413   0.66089   0.00000  Uiso   1.00
C329   C     0.40193   0.65103   0.61219   0.00000  Uiso   1.00
C330   C     0.28873   0.65300   0.51639   0.00000  Uiso   1.00
C331   C     0.07299   0.66756   0.36030   0.00000  Uiso   1.00
C332   C     0.78210   0.65847   0.79433   0.00000  Uiso   1.00
C333   C     0.86441   0.71426   0.85782   0.00000  Uiso   1.00
C334   C     0.96272   0.74515   0.87437   0.00000  Uiso   1.00
C335   C     0.13709   0.81304   0.92547   0.00000  Uiso   1.00
C336   C     0.69647   0.57278   0.68233   0.00000  Uiso   1.00
C337   C     0.72651   0.51429   0.73972   0.00000  Uiso   1.00
C338   C     0.76511   0.44410   0.74842   0.00000  Uiso   1.00
C339   C     0.78789   0.39880   0.80416   0.00000  Uiso   1.00
C340   C     0.54615   0.60005   0.61551   0.00000  Uiso   1.00
C341   C     0.43312   0.60198   0.51977   0.00000  Uiso   1.00
C342   C     0.30406   0.62887   0.47094   0.00000  Uiso   1.00
C343   C     0.79741   0.63439   0.74896   0.00000  Uiso   1.00
C344   C     0.89560   0.66520   0.76541   0.00000  Uiso   1.00
C345   C     0.97806   0.72102   0.82891   0.00000  Uiso   1.00
H346   H     0.65635   0.63587   0.80117   0.00000  Uiso   1.00
H347   H     0.72205   0.51182   0.87593   0.00000  Uiso   1.00
H348   H     0.39012   0.66967   0.64732   0.00000  Uiso   1.00
H349   H     0.85253   0.73289   0.89292   0.00000  Uiso   1.00
H350   H     0.80159   0.36366   0.93877   0.00000  Uiso   1.00
H351   H     0.10170   0.69652   0.45673   0.00000  Uiso   1.00
H352   H     0.07679   0.82982   0.97463   0.00000  Uiso   1.00
H353   H     0.70839   0.55403   0.64700   0.00000  Uiso   1.00
H354   H     0.77695   0.42548   0.71330   0.00000  Uiso   1.00
H355   H     0.44501   0.58334   0.48468   0.00000  Uiso   1.00
H356   H     0.90742   0.64655   0.73028   0.00000  Uiso   1.00
H357   H     0.84614   0.29358   0.80677   0.00000  Uiso   1.00
H358   H     0.14625   0.62645   0.32473   0.00000  Uiso   1.00
H359   H     0.12134   0.75975   0.84263   0.00000  Uiso   1.00
O360   O     0.86798   0.24553   0.91914   0.00000  Uiso   1.00
O361   O     0.94976   0.68225   0.28673   0.00000  Uiso   1.00
O362   O     0.22906   0.85713   0.96620   0.00000  Uiso   1.00
N363   N     0.80269   0.36481   0.89862   0.00000  Uiso   1.00
N364   N     0.14833   0.67601   0.44794   0.00000  Uiso   1.00
N365   N     0.05993   0.80065   0.93211   0.00000  Uiso   1.00
N366   N     0.82667   0.32710   0.82759   0.00000  Uiso   1.00
N367   N     0.17231   0.63830   0.37692   0.00000  Uiso   1.00
N368   N     0.08391   0.76294   0.86109   0.00000  Uiso   1.00
