data_job_00318
_audit_creation_date              2018-12-19
_audit_creation_method            'Materials Studio'
_symmetry_space_group_name_H-M    'P1'
_symmetry_Int_Tables_number       1
_symmetry_cell_setting            triclinic
loop_
_symmetry_equiv_pos_as_xyz
  x,y,z
_cell_length_a                    7.3171
_cell_length_b                    19.9771
_cell_length_c                    17.6488
_cell_angle_alpha                 90.0000
_cell_angle_beta                  109.0621
_cell_angle_gamma                 90.0000
loop_
_atom_site_label
_atom_site_type_symbol
_atom_site_fract_x
_atom_site_fract_y
_atom_site_fract_z
_atom_site_U_iso_or_equiv
_atom_site_adp_type
_atom_site_occupancy
C1     C     0.93101   0.70950   0.65194   0.00000  Uiso   1.00
C2     C     0.80653   0.77248   0.63706   0.00000  Uiso   1.00
C3     C     0.87000   0.83705   0.63072   0.00000  Uiso   1.00
C4     C     0.73370   0.88790   0.61705   0.00000  Uiso   1.00
C5     C     0.56977   0.98773   0.59505   0.00000  Uiso   1.00
C6     C     0.91023   0.67713   0.72695   0.00000  Uiso   1.00
C7     C     0.06090   0.66151   0.79620   0.00000  Uiso   1.00
C8     C     0.01189   0.63208   0.85819   0.00000  Uiso   1.00
C9     C     0.00896   0.58382   0.97574   0.00000  Uiso   1.00
C10    C     0.83303   0.66209   0.58290   0.00000  Uiso   1.00
C11    C     0.91879   0.63381   0.53103   0.00000  Uiso   1.00
C12    C     0.80479   0.59171   0.47175   0.00000  Uiso   1.00
C13    C     0.68200   0.52010   0.36563   0.00000  Uiso   1.00
C14    C     0.57607   0.68498   0.63892   0.00000  Uiso   1.00
C15    C     0.61375   0.75916   0.62998   0.00000  Uiso   1.00
C16    C     0.47731   0.80993   0.61631   0.00000  Uiso   1.00
C17    C     0.54056   0.87456   0.60995   0.00000  Uiso   1.00
C18    C     0.71745   0.66381   0.71988   0.00000  Uiso   1.00
C19    C     0.66820   0.63439   0.78179   0.00000  Uiso   1.00
C20    C     0.81875   0.61874   0.85111   0.00000  Uiso   1.00
C21    C     0.64024   0.64877   0.57582   0.00000  Uiso   1.00
C22    C     0.52609   0.60670   0.51662   0.00000  Uiso   1.00
C23    C     0.61166   0.57837   0.46467   0.00000  Uiso   1.00
H24    H     0.08110   0.71986   0.65746   0.00000  Uiso   1.00
H25    H     0.01922   0.84733   0.63621   0.00000  Uiso   1.00
H26    H     0.21008   0.67182   0.80165   0.00000  Uiso   1.00
H27    H     0.06798   0.64413   0.53653   0.00000  Uiso   1.00
H28    H     0.86560   0.98279   0.60956   0.00000  Uiso   1.00
H29    H     0.26805   0.61269   0.95840   0.00000  Uiso   1.00
H30    H     0.96843   0.55429   0.39933   0.00000  Uiso   1.00
H31    H     0.42597   0.67462   0.63341   0.00000  Uiso   1.00
H32    H     0.32813   0.79961   0.61084   0.00000  Uiso   1.00
H33    H     0.51900   0.62409   0.77629   0.00000  Uiso   1.00
H34    H     0.37691   0.59640   0.51116   0.00000  Uiso   1.00
H35    H     0.30469   0.94406   0.58897   0.00000  Uiso   1.00
H36    H     0.70714   0.57395   0.93781   0.00000  Uiso   1.00
H37    H     0.40752   0.51556   0.37874   0.00000  Uiso   1.00
O38    O     0.53261   0.04647   0.58488   0.00000  Uiso   1.00
O39    O     0.06062   0.56089   0.04254   0.00000  Uiso   1.00
O40    O     0.66752   0.48429   0.30905   0.00000  Uiso   1.00
N41    N     0.74700   0.95652   0.60780   0.00000  Uiso   1.00
N42    N     0.12327   0.61050   0.93395   0.00000  Uiso   1.00
N43    N     0.84317   0.55590   0.41127   0.00000  Uiso   1.00
N44    N     0.44518   0.93568   0.59672   0.00000  Uiso   1.00
N45    N     0.82145   0.58966   0.92287   0.00000  Uiso   1.00
N46    N     0.54135   0.53506   0.40019   0.00000  Uiso   1.00
C47    C     0.06899   0.20950   0.84806   0.00000  Uiso   1.00
C48    C     0.19347   0.27248   0.86294   0.00000  Uiso   1.00
C49    C     0.13000   0.33705   0.86928   0.00000  Uiso   1.00
C50    C     0.26630   0.38790   0.88295   0.00000  Uiso   1.00
C51    C     0.43023   0.48773   0.90495   0.00000  Uiso   1.00
C52    C     0.08977   0.17713   0.77305   0.00000  Uiso   1.00
C53    C     0.93910   0.16151   0.70380   0.00000  Uiso   1.00
C54    C     0.98811   0.13208   0.64181   0.00000  Uiso   1.00
C55    C     0.99104   0.08382   0.52426   0.00000  Uiso   1.00
C56    C     0.16697   0.16209   0.91710   0.00000  Uiso   1.00
C57    C     0.08121   0.13381   0.96897   0.00000  Uiso   1.00
C58    C     0.19521   0.09171   0.02825   0.00000  Uiso   1.00
C59    C     0.31800   0.02010   0.13437   0.00000  Uiso   1.00
C60    C     0.42393   0.18498   0.86108   0.00000  Uiso   1.00
C61    C     0.38625   0.25916   0.87002   0.00000  Uiso   1.00
C62    C     0.52269   0.30993   0.88369   0.00000  Uiso   1.00
C63    C     0.45944   0.37456   0.89005   0.00000  Uiso   1.00
C64    C     0.28255   0.16381   0.78012   0.00000  Uiso   1.00
C65    C     0.33180   0.13439   0.71821   0.00000  Uiso   1.00
C66    C     0.18125   0.11874   0.64889   0.00000  Uiso   1.00
C67    C     0.35976   0.14877   0.92418   0.00000  Uiso   1.00
C68    C     0.47391   0.10670   0.98338   0.00000  Uiso   1.00
C69    C     0.38834   0.07837   0.03533   0.00000  Uiso   1.00
H70    H     0.91890   0.21986   0.84254   0.00000  Uiso   1.00
H71    H     0.98078   0.34733   0.86379   0.00000  Uiso   1.00
H72    H     0.78992   0.17182   0.69835   0.00000  Uiso   1.00
H73    H     0.93202   0.14413   0.96347   0.00000  Uiso   1.00
H74    H     0.13440   0.48279   0.89044   0.00000  Uiso   1.00
H75    H     0.73195   0.11269   0.54160   0.00000  Uiso   1.00
H76    H     0.03157   0.05429   0.10067   0.00000  Uiso   1.00
H77    H     0.57403   0.17462   0.86659   0.00000  Uiso   1.00
H78    H     0.67187   0.29961   0.88916   0.00000  Uiso   1.00
H79    H     0.48100   0.12409   0.72371   0.00000  Uiso   1.00
H80    H     0.62309   0.09640   0.98884   0.00000  Uiso   1.00
H81    H     0.69531   0.44406   0.91103   0.00000  Uiso   1.00
H82    H     0.29286   0.07395   0.56219   0.00000  Uiso   1.00
H83    H     0.59248   0.01556   0.12126   0.00000  Uiso   1.00
O84    O     0.46739   0.54647   0.91512   0.00000  Uiso   1.00
O85    O     0.93938   0.06089   0.45746   0.00000  Uiso   1.00
O86    O     0.33248   0.98429   0.19095   0.00000  Uiso   1.00
N87    N     0.25300   0.45652   0.89220   0.00000  Uiso   1.00
N88    N     0.87673   0.11050   0.56605   0.00000  Uiso   1.00
N89    N     0.15683   0.05590   0.08873   0.00000  Uiso   1.00
N90    N     0.55482   0.43568   0.90328   0.00000  Uiso   1.00
N91    N     0.17855   0.08966   0.57713   0.00000  Uiso   1.00
N92    N     0.45865   0.03506   0.09981   0.00000  Uiso   1.00
C93    C     0.06899   0.29050   0.34806   0.00000  Uiso   1.00
C94    C     0.19347   0.22752   0.36294   0.00000  Uiso   1.00
C95    C     0.13000   0.16295   0.36928   0.00000  Uiso   1.00
C96    C     0.26630   0.11210   0.38295   0.00000  Uiso   1.00
C97    C     0.43023   0.01227   0.40495   0.00000  Uiso   1.00
C98    C     0.08977   0.32287   0.27305   0.00000  Uiso   1.00
C99    C     0.93910   0.33849   0.20380   0.00000  Uiso   1.00
C100   C     0.98811   0.36792   0.14181   0.00000  Uiso   1.00
C101   C     0.99104   0.41618   0.02426   0.00000  Uiso   1.00
C102   C     0.16697   0.33791   0.41710   0.00000  Uiso   1.00
C103   C     0.08121   0.36619   0.46897   0.00000  Uiso   1.00
C104   C     0.19521   0.40829   0.52825   0.00000  Uiso   1.00
C105   C     0.31800   0.47990   0.63437   0.00000  Uiso   1.00
C106   C     0.42393   0.31502   0.36108   0.00000  Uiso   1.00
C107   C     0.38625   0.24084   0.37002   0.00000  Uiso   1.00
C108   C     0.52269   0.19007   0.38369   0.00000  Uiso   1.00
C109   C     0.45944   0.12544   0.39005   0.00000  Uiso   1.00
C110   C     0.28255   0.33619   0.28012   0.00000  Uiso   1.00
C111   C     0.33180   0.36561   0.21821   0.00000  Uiso   1.00
C112   C     0.18125   0.38126   0.14889   0.00000  Uiso   1.00
C113   C     0.35976   0.35123   0.42418   0.00000  Uiso   1.00
C114   C     0.47391   0.39330   0.48338   0.00000  Uiso   1.00
C115   C     0.38834   0.42163   0.53533   0.00000  Uiso   1.00
H116   H     0.91890   0.28014   0.34254   0.00000  Uiso   1.00
H117   H     0.98078   0.15267   0.36379   0.00000  Uiso   1.00
H118   H     0.78992   0.32818   0.19835   0.00000  Uiso   1.00
H119   H     0.93202   0.35587   0.46347   0.00000  Uiso   1.00
H120   H     0.13440   0.01721   0.39044   0.00000  Uiso   1.00
H121   H     0.73195   0.38731   0.04160   0.00000  Uiso   1.00
H122   H     0.03157   0.44571   0.60067   0.00000  Uiso   1.00
H123   H     0.57403   0.32538   0.36659   0.00000  Uiso   1.00
H124   H     0.67187   0.20039   0.38916   0.00000  Uiso   1.00
H125   H     0.48100   0.37591   0.22371   0.00000  Uiso   1.00
H126   H     0.62309   0.40360   0.48884   0.00000  Uiso   1.00
H127   H     0.69531   0.05594   0.41103   0.00000  Uiso   1.00
H128   H     0.29286   0.42605   0.06219   0.00000  Uiso   1.00
H129   H     0.59248   0.48444   0.62126   0.00000  Uiso   1.00
O130   O     0.46739   0.95353   0.41512   0.00000  Uiso   1.00
O131   O     0.93938   0.43911   0.95746   0.00000  Uiso   1.00
O132   O     0.33248   0.51571   0.69095   0.00000  Uiso   1.00
N133   N     0.25300   0.04348   0.39220   0.00000  Uiso   1.00
N134   N     0.87673   0.38950   0.06605   0.00000  Uiso   1.00
N135   N     0.15683   0.44410   0.58873   0.00000  Uiso   1.00
N136   N     0.55482   0.06432   0.40328   0.00000  Uiso   1.00
N137   N     0.17855   0.41034   0.07713   0.00000  Uiso   1.00
N138   N     0.45865   0.46494   0.59981   0.00000  Uiso   1.00
C139   C     0.93101   0.79050   0.15194   0.00000  Uiso   1.00
C140   C     0.80653   0.72752   0.13706   0.00000  Uiso   1.00
C141   C     0.87000   0.66295   0.13072   0.00000  Uiso   1.00
C142   C     0.73370   0.61210   0.11705   0.00000  Uiso   1.00
C143   C     0.56977   0.51227   0.09505   0.00000  Uiso   1.00
C144   C     0.91023   0.82287   0.22695   0.00000  Uiso   1.00
C145   C     0.06090   0.83849   0.29620   0.00000  Uiso   1.00
C146   C     0.01189   0.86792   0.35819   0.00000  Uiso   1.00
C147   C     0.00896   0.91618   0.47574   0.00000  Uiso   1.00
C148   C     0.83303   0.83791   0.08290   0.00000  Uiso   1.00
C149   C     0.91879   0.86619   0.03103   0.00000  Uiso   1.00
C150   C     0.80479   0.90829   0.97175   0.00000  Uiso   1.00
C151   C     0.68200   0.97990   0.86563   0.00000  Uiso   1.00
C152   C     0.57607   0.81502   0.13892   0.00000  Uiso   1.00
C153   C     0.61375   0.74084   0.12998   0.00000  Uiso   1.00
C154   C     0.47731   0.69007   0.11631   0.00000  Uiso   1.00
C155   C     0.54056   0.62544   0.10995   0.00000  Uiso   1.00
C156   C     0.71745   0.83619   0.21988   0.00000  Uiso   1.00
C157   C     0.66820   0.86561   0.28179   0.00000  Uiso   1.00
C158   C     0.81875   0.88126   0.35111   0.00000  Uiso   1.00
C159   C     0.64024   0.85123   0.07582   0.00000  Uiso   1.00
C160   C     0.52609   0.89330   0.01662   0.00000  Uiso   1.00
C161   C     0.61166   0.92163   0.96467   0.00000  Uiso   1.00
H162   H     0.08110   0.78014   0.15746   0.00000  Uiso   1.00
H163   H     0.01922   0.65267   0.13621   0.00000  Uiso   1.00
H164   H     0.21008   0.82818   0.30165   0.00000  Uiso   1.00
H165   H     0.06798   0.85587   0.03653   0.00000  Uiso   1.00
H166   H     0.86560   0.51721   0.10956   0.00000  Uiso   1.00
H167   H     0.26805   0.88731   0.45840   0.00000  Uiso   1.00
H168   H     0.96843   0.94571   0.89933   0.00000  Uiso   1.00
H169   H     0.42597   0.82538   0.13341   0.00000  Uiso   1.00
H170   H     0.32813   0.70039   0.11084   0.00000  Uiso   1.00
H171   H     0.51900   0.87591   0.27629   0.00000  Uiso   1.00
H172   H     0.37691   0.90360   0.01116   0.00000  Uiso   1.00
H173   H     0.30469   0.55594   0.08897   0.00000  Uiso   1.00
H174   H     0.70714   0.92605   0.43781   0.00000  Uiso   1.00
H175   H     0.40752   0.98444   0.87874   0.00000  Uiso   1.00
O176   O     0.53261   0.45353   0.08488   0.00000  Uiso   1.00
O177   O     0.06062   0.93911   0.54254   0.00000  Uiso   1.00
O178   O     0.66752   0.01571   0.80905   0.00000  Uiso   1.00
N179   N     0.74700   0.54348   0.10780   0.00000  Uiso   1.00
N180   N     0.12327   0.88950   0.43395   0.00000  Uiso   1.00
N181   N     0.84317   0.94410   0.91127   0.00000  Uiso   1.00
N182   N     0.44518   0.56432   0.09672   0.00000  Uiso   1.00
N183   N     0.82145   0.91034   0.42287   0.00000  Uiso   1.00
N184   N     0.54135   0.96494   0.90019   0.00000  Uiso   1.00
