data_job_05761
_audit_creation_date              2018-12-19
_audit_creation_method            'Materials Studio'
_symmetry_space_group_name_H-M    'P1'
_symmetry_Int_Tables_number       1
_symmetry_cell_setting            triclinic
loop_
_symmetry_equiv_pos_as_xyz
  x,y,z
_cell_length_a                    22.9249
_cell_length_b                    22.9249
_cell_length_c                    12.4949
_cell_angle_alpha                 90.0000
_cell_angle_beta                  90.0000
_cell_angle_gamma                 90.0000
loop_
_atom_site_label
_atom_site_type_symbol
_atom_site_fract_x
_atom_site_fract_y
_atom_site_fract_z
_atom_site_U_iso_or_equiv
_atom_site_adp_type
_atom_site_occupancy
C1     C     0.70810   0.93536   0.59261   0.00000  Uiso   1.00
C2     C     0.67615   0.91983   0.69579   0.00000  Uiso   1.00
C3     C     0.64240   0.95766   0.75649   0.00000  Uiso   1.00
C4     C     0.61681   0.93505   0.84826   0.00000  Uiso   1.00
C5     C     0.56602   0.91982   0.00396   0.00000  Uiso   1.00
C6     C     0.77199   0.92000   0.61155   0.00000  Uiso   1.00
C7     C     0.81882   0.95797   0.60141   0.00000  Uiso   1.00
C8     C     0.87391   0.93550   0.62224   0.00000  Uiso   1.00
C9     C     0.97192   0.92053   0.64708   0.00000  Uiso   1.00
C10    C     0.68614   0.89264   0.50819   0.00000  Uiso   1.00
C11    C     0.66080   0.90760   0.41112   0.00000  Uiso   1.00
C12    C     0.64361   0.86209   0.34492   0.00000  Uiso   1.00
C13    C     0.60832   0.80463   0.20928   0.00000  Uiso   1.00
C14    C     0.72266   0.82795   0.64763   0.00000  Uiso   1.00
C15    C     0.68407   0.86149   0.72568   0.00000  Uiso   1.00
C16    C     0.65851   0.83882   0.81737   0.00000  Uiso   1.00
C17    C     0.62473   0.87660   0.87820   0.00000  Uiso   1.00
C18    C     0.77990   0.86166   0.64143   0.00000  Uiso   1.00
C19    C     0.83493   0.83913   0.66228   0.00000  Uiso   1.00
C20    C     0.88183   0.87705   0.65218   0.00000  Uiso   1.00
C21    C     0.69405   0.83430   0.53807   0.00000  Uiso   1.00
C22    C     0.67690   0.78876   0.47200   0.00000  Uiso   1.00
C23    C     0.65154   0.80364   0.37486   0.00000  Uiso   1.00
H24    H     0.70195   0.98078   0.56934   0.00000  Uiso   1.00
H25    H     0.63630   0.00281   0.73334   0.00000  Uiso   1.00
H26    H     0.81269   0.00312   0.57827   0.00000  Uiso   1.00
H27    H     0.65469   0.95275   0.38802   0.00000  Uiso   1.00
H28    H     0.56701   0.00150   0.92838   0.00000  Uiso   1.00
H29    H     0.93895   0.00215   0.60136   0.00000  Uiso   1.00
H30    H     0.60577   0.89594   0.20018   0.00000  Uiso   1.00
H31    H     0.72882   0.78253   0.67089   0.00000  Uiso   1.00
H32    H     0.66464   0.79367   0.84048   0.00000  Uiso   1.00
H33    H     0.84104   0.79398   0.68540   0.00000  Uiso   1.00
H34    H     0.68303   0.74361   0.49516   0.00000  Uiso   1.00
H35    H     0.59002   0.83176   0.01533   0.00000  Uiso   1.00
H36    H     0.96196   0.83240   0.68831   0.00000  Uiso   1.00
H37    H     0.62878   0.72620   0.28714   0.00000  Uiso   1.00
O38    O     0.53583   0.92754   0.08160   0.00000  Uiso   1.00
O39    O     0.02380   0.92839   0.65254   0.00000  Uiso   1.00
O40    O     0.58667   0.78905   0.12621   0.00000  Uiso   1.00
N41    N     0.58123   0.96002   0.92556   0.00000  Uiso   1.00
N42    N     0.92897   0.96063   0.61983   0.00000  Uiso   1.00
N43    N     0.61748   0.86133   0.24475   0.00000  Uiso   1.00
N44    N     0.59361   0.86868   0.97235   0.00000  Uiso   1.00
N45    N     0.94134   0.86929   0.66662   0.00000  Uiso   1.00
N46    N     0.62986   0.76999   0.29154   0.00000  Uiso   1.00
C47    C     0.29190   0.06464   0.59261   0.00000  Uiso   1.00
C48    C     0.32385   0.08017   0.69579   0.00000  Uiso   1.00
C49    C     0.35760   0.04234   0.75649   0.00000  Uiso   1.00
C50    C     0.38319   0.06495   0.84826   0.00000  Uiso   1.00
C51    C     0.43398   0.08018   0.00396   0.00000  Uiso   1.00
C52    C     0.22801   0.08000   0.61155   0.00000  Uiso   1.00
C53    C     0.18118   0.04203   0.60141   0.00000  Uiso   1.00
C54    C     0.12609   0.06450   0.62224   0.00000  Uiso   1.00
C55    C     0.02808   0.07947   0.64708   0.00000  Uiso   1.00
C56    C     0.31386   0.10736   0.50819   0.00000  Uiso   1.00
C57    C     0.33920   0.09240   0.41112   0.00000  Uiso   1.00
C58    C     0.35639   0.13791   0.34492   0.00000  Uiso   1.00
C59    C     0.39168   0.19537   0.20928   0.00000  Uiso   1.00
C60    C     0.27734   0.17205   0.64763   0.00000  Uiso   1.00
C61    C     0.31593   0.13851   0.72568   0.00000  Uiso   1.00
C62    C     0.34149   0.16118   0.81737   0.00000  Uiso   1.00
C63    C     0.37527   0.12340   0.87820   0.00000  Uiso   1.00
C64    C     0.22010   0.13834   0.64143   0.00000  Uiso   1.00
C65    C     0.16507   0.16087   0.66228   0.00000  Uiso   1.00
C66    C     0.11817   0.12295   0.65218   0.00000  Uiso   1.00
C67    C     0.30595   0.16570   0.53807   0.00000  Uiso   1.00
C68    C     0.32310   0.21124   0.47200   0.00000  Uiso   1.00
C69    C     0.34846   0.19636   0.37486   0.00000  Uiso   1.00
H70    H     0.29805   0.01922   0.56934   0.00000  Uiso   1.00
H71    H     0.36370   0.99719   0.73334   0.00000  Uiso   1.00
H72    H     0.18731   0.99688   0.57827   0.00000  Uiso   1.00
H73    H     0.34531   0.04725   0.38802   0.00000  Uiso   1.00
H74    H     0.43299   0.99850   0.92838   0.00000  Uiso   1.00
H75    H     0.06105   0.99785   0.60136   0.00000  Uiso   1.00
H76    H     0.39423   0.10406   0.20018   0.00000  Uiso   1.00
H77    H     0.27118   0.21747   0.67089   0.00000  Uiso   1.00
H78    H     0.33536   0.20633   0.84048   0.00000  Uiso   1.00
H79    H     0.15896   0.20602   0.68540   0.00000  Uiso   1.00
H80    H     0.31697   0.25639   0.49516   0.00000  Uiso   1.00
H81    H     0.40998   0.16824   0.01533   0.00000  Uiso   1.00
H82    H     0.03804   0.16760   0.68831   0.00000  Uiso   1.00
H83    H     0.37122   0.27380   0.28714   0.00000  Uiso   1.00
O84    O     0.46417   0.07246   0.08160   0.00000  Uiso   1.00
O85    O     0.97620   0.07161   0.65254   0.00000  Uiso   1.00
O86    O     0.41333   0.21095   0.12621   0.00000  Uiso   1.00
N87    N     0.41877   0.03998   0.92556   0.00000  Uiso   1.00
N88    N     0.07103   0.03937   0.61983   0.00000  Uiso   1.00
N89    N     0.38252   0.13867   0.24475   0.00000  Uiso   1.00
N90    N     0.40639   0.13132   0.97235   0.00000  Uiso   1.00
N91    N     0.05866   0.13071   0.66662   0.00000  Uiso   1.00
N92    N     0.37014   0.23001   0.29154   0.00000  Uiso   1.00
C93    C     0.56464   0.20810   0.09261   0.00000  Uiso   1.00
C94    C     0.58017   0.17615   0.19579   0.00000  Uiso   1.00
C95    C     0.54234   0.14240   0.25649   0.00000  Uiso   1.00
C96    C     0.56495   0.11681   0.34826   0.00000  Uiso   1.00
C97    C     0.58018   0.06602   0.50396   0.00000  Uiso   1.00
C98    C     0.58000   0.27199   0.11155   0.00000  Uiso   1.00
C99    C     0.54203   0.31882   0.10141   0.00000  Uiso   1.00
C100   C     0.56450   0.37391   0.12224   0.00000  Uiso   1.00
C101   C     0.57947   0.47192   0.14708   0.00000  Uiso   1.00
C102   C     0.60736   0.18614   0.00819   0.00000  Uiso   1.00
C103   C     0.59240   0.16080   0.91112   0.00000  Uiso   1.00
C104   C     0.63791   0.14361   0.84492   0.00000  Uiso   1.00
C105   C     0.69537   0.10832   0.70928   0.00000  Uiso   1.00
C106   C     0.67205   0.22266   0.14763   0.00000  Uiso   1.00
C107   C     0.63851   0.18407   0.22568   0.00000  Uiso   1.00
C108   C     0.66118   0.15851   0.31737   0.00000  Uiso   1.00
C109   C     0.62340   0.12473   0.37820   0.00000  Uiso   1.00
C110   C     0.63834   0.27990   0.14143   0.00000  Uiso   1.00
C111   C     0.66087   0.33493   0.16228   0.00000  Uiso   1.00
C112   C     0.62295   0.38183   0.15218   0.00000  Uiso   1.00
C113   C     0.66570   0.19405   0.03807   0.00000  Uiso   1.00
C114   C     0.71124   0.17690   0.97200   0.00000  Uiso   1.00
C115   C     0.69636   0.15154   0.87486   0.00000  Uiso   1.00
H116   H     0.51922   0.20195   0.06934   0.00000  Uiso   1.00
H117   H     0.49719   0.13630   0.23334   0.00000  Uiso   1.00
H118   H     0.49688   0.31269   0.07827   0.00000  Uiso   1.00
H119   H     0.54725   0.15469   0.88802   0.00000  Uiso   1.00
H120   H     0.49850   0.06701   0.42838   0.00000  Uiso   1.00
H121   H     0.49785   0.43895   0.10136   0.00000  Uiso   1.00
H122   H     0.60406   0.10577   0.70018   0.00000  Uiso   1.00
H123   H     0.71747   0.22882   0.17089   0.00000  Uiso   1.00
H124   H     0.70633   0.16464   0.34048   0.00000  Uiso   1.00
H125   H     0.70602   0.34104   0.18540   0.00000  Uiso   1.00
H126   H     0.75639   0.18303   0.99516   0.00000  Uiso   1.00
H127   H     0.66824   0.09002   0.51533   0.00000  Uiso   1.00
H128   H     0.66760   0.46196   0.18831   0.00000  Uiso   1.00
H129   H     0.77380   0.12878   0.78714   0.00000  Uiso   1.00
O130   O     0.57246   0.03583   0.58160   0.00000  Uiso   1.00
O131   O     0.57161   0.52380   0.15254   0.00000  Uiso   1.00
O132   O     0.71095   0.08667   0.62621   0.00000  Uiso   1.00
N133   N     0.53998   0.08123   0.42556   0.00000  Uiso   1.00
N134   N     0.53937   0.42897   0.11983   0.00000  Uiso   1.00
N135   N     0.63867   0.11748   0.74475   0.00000  Uiso   1.00
N136   N     0.63132   0.09361   0.47235   0.00000  Uiso   1.00
N137   N     0.63071   0.44134   0.16662   0.00000  Uiso   1.00
N138   N     0.73001   0.12986   0.79154   0.00000  Uiso   1.00
C139   C     0.43536   0.79190   0.09261   0.00000  Uiso   1.00
C140   C     0.41983   0.82385   0.19579   0.00000  Uiso   1.00
C141   C     0.45766   0.85760   0.25649   0.00000  Uiso   1.00
C142   C     0.43505   0.88319   0.34826   0.00000  Uiso   1.00
C143   C     0.41982   0.93398   0.50396   0.00000  Uiso   1.00
C144   C     0.42000   0.72801   0.11155   0.00000  Uiso   1.00
C145   C     0.45797   0.68118   0.10141   0.00000  Uiso   1.00
C146   C     0.43550   0.62609   0.12224   0.00000  Uiso   1.00
C147   C     0.42053   0.52808   0.14708   0.00000  Uiso   1.00
C148   C     0.39264   0.81386   0.00819   0.00000  Uiso   1.00
C149   C     0.40760   0.83920   0.91112   0.00000  Uiso   1.00
C150   C     0.36209   0.85639   0.84492   0.00000  Uiso   1.00
C151   C     0.30463   0.89168   0.70928   0.00000  Uiso   1.00
C152   C     0.32795   0.77734   0.14763   0.00000  Uiso   1.00
C153   C     0.36149   0.81593   0.22568   0.00000  Uiso   1.00
C154   C     0.33882   0.84149   0.31737   0.00000  Uiso   1.00
C155   C     0.37660   0.87527   0.37820   0.00000  Uiso   1.00
C156   C     0.36166   0.72010   0.14143   0.00000  Uiso   1.00
C157   C     0.33913   0.66507   0.16228   0.00000  Uiso   1.00
C158   C     0.37705   0.61817   0.15218   0.00000  Uiso   1.00
C159   C     0.33430   0.80595   0.03807   0.00000  Uiso   1.00
C160   C     0.28876   0.82310   0.97200   0.00000  Uiso   1.00
C161   C     0.30364   0.84846   0.87486   0.00000  Uiso   1.00
H162   H     0.48078   0.79805   0.06934   0.00000  Uiso   1.00
H163   H     0.50281   0.86370   0.23334   0.00000  Uiso   1.00
H164   H     0.50312   0.68731   0.07827   0.00000  Uiso   1.00
H165   H     0.45275   0.84531   0.88802   0.00000  Uiso   1.00
H166   H     0.50150   0.93299   0.42838   0.00000  Uiso   1.00
H167   H     0.50215   0.56105   0.10136   0.00000  Uiso   1.00
H168   H     0.39594   0.89423   0.70018   0.00000  Uiso   1.00
H169   H     0.28253   0.77118   0.17089   0.00000  Uiso   1.00
H170   H     0.29367   0.83536   0.34048   0.00000  Uiso   1.00
H171   H     0.29398   0.65896   0.18540   0.00000  Uiso   1.00
H172   H     0.24361   0.81697   0.99516   0.00000  Uiso   1.00
H173   H     0.33176   0.90998   0.51533   0.00000  Uiso   1.00
H174   H     0.33240   0.53804   0.18831   0.00000  Uiso   1.00
H175   H     0.22620   0.87122   0.78714   0.00000  Uiso   1.00
O176   O     0.42754   0.96417   0.58160   0.00000  Uiso   1.00
O177   O     0.42839   0.47620   0.15254   0.00000  Uiso   1.00
O178   O     0.28905   0.91333   0.62621   0.00000  Uiso   1.00
N179   N     0.46002   0.91877   0.42556   0.00000  Uiso   1.00
N180   N     0.46063   0.57103   0.11983   0.00000  Uiso   1.00
N181   N     0.36133   0.88252   0.74475   0.00000  Uiso   1.00
N182   N     0.36868   0.90639   0.47235   0.00000  Uiso   1.00
N183   N     0.36929   0.55866   0.16662   0.00000  Uiso   1.00
N184   N     0.26999   0.87014   0.79154   0.00000  Uiso   1.00
C185   C     0.79190   0.43536   0.90739   0.00000  Uiso   1.00
C186   C     0.82385   0.41983   0.80421   0.00000  Uiso   1.00
C187   C     0.85760   0.45766   0.74351   0.00000  Uiso   1.00
C188   C     0.88319   0.43505   0.65174   0.00000  Uiso   1.00
C189   C     0.93398   0.41982   0.49604   0.00000  Uiso   1.00
C190   C     0.72801   0.42000   0.88845   0.00000  Uiso   1.00
C191   C     0.68118   0.45797   0.89859   0.00000  Uiso   1.00
C192   C     0.62609   0.43550   0.87776   0.00000  Uiso   1.00
C193   C     0.52808   0.42053   0.85292   0.00000  Uiso   1.00
C194   C     0.81386   0.39264   0.99181   0.00000  Uiso   1.00
C195   C     0.83920   0.40760   0.08888   0.00000  Uiso   1.00
C196   C     0.85639   0.36209   0.15508   0.00000  Uiso   1.00
C197   C     0.89168   0.30463   0.29072   0.00000  Uiso   1.00
C198   C     0.77734   0.32795   0.85237   0.00000  Uiso   1.00
C199   C     0.81593   0.36149   0.77432   0.00000  Uiso   1.00
C200   C     0.84149   0.33882   0.68263   0.00000  Uiso   1.00
C201   C     0.87527   0.37660   0.62180   0.00000  Uiso   1.00
C202   C     0.72010   0.36166   0.85857   0.00000  Uiso   1.00
C203   C     0.66507   0.33913   0.83772   0.00000  Uiso   1.00
C204   C     0.61817   0.37705   0.84782   0.00000  Uiso   1.00
C205   C     0.80595   0.33430   0.96193   0.00000  Uiso   1.00
C206   C     0.82310   0.28876   0.02800   0.00000  Uiso   1.00
C207   C     0.84846   0.30364   0.12514   0.00000  Uiso   1.00
H208   H     0.79805   0.48078   0.93066   0.00000  Uiso   1.00
H209   H     0.86370   0.50281   0.76666   0.00000  Uiso   1.00
H210   H     0.68731   0.50312   0.92173   0.00000  Uiso   1.00
H211   H     0.84531   0.45275   0.11198   0.00000  Uiso   1.00
H212   H     0.93299   0.50150   0.57162   0.00000  Uiso   1.00
H213   H     0.56105   0.50215   0.89864   0.00000  Uiso   1.00
H214   H     0.89423   0.39594   0.29982   0.00000  Uiso   1.00
H215   H     0.77118   0.28253   0.82911   0.00000  Uiso   1.00
H216   H     0.83536   0.29367   0.65952   0.00000  Uiso   1.00
H217   H     0.65896   0.29398   0.81460   0.00000  Uiso   1.00
H218   H     0.81697   0.24361   0.00484   0.00000  Uiso   1.00
H219   H     0.90998   0.33176   0.48467   0.00000  Uiso   1.00
H220   H     0.53804   0.33240   0.81169   0.00000  Uiso   1.00
H221   H     0.87122   0.22620   0.21286   0.00000  Uiso   1.00
O222   O     0.96417   0.42754   0.41840   0.00000  Uiso   1.00
O223   O     0.47620   0.42839   0.84746   0.00000  Uiso   1.00
O224   O     0.91333   0.28905   0.37379   0.00000  Uiso   1.00
N225   N     0.91877   0.46002   0.57444   0.00000  Uiso   1.00
N226   N     0.57103   0.46063   0.88017   0.00000  Uiso   1.00
N227   N     0.88252   0.36133   0.25525   0.00000  Uiso   1.00
N228   N     0.90639   0.36868   0.52765   0.00000  Uiso   1.00
N229   N     0.55866   0.36929   0.83338   0.00000  Uiso   1.00
N230   N     0.87014   0.26999   0.20846   0.00000  Uiso   1.00
C231   C     0.20810   0.56464   0.90739   0.00000  Uiso   1.00
C232   C     0.17615   0.58017   0.80421   0.00000  Uiso   1.00
C233   C     0.14240   0.54234   0.74351   0.00000  Uiso   1.00
C234   C     0.11681   0.56495   0.65174   0.00000  Uiso   1.00
C235   C     0.06602   0.58018   0.49604   0.00000  Uiso   1.00
C236   C     0.27199   0.58000   0.88845   0.00000  Uiso   1.00
C237   C     0.31882   0.54203   0.89859   0.00000  Uiso   1.00
C238   C     0.37391   0.56450   0.87776   0.00000  Uiso   1.00
C239   C     0.47192   0.57947   0.85292   0.00000  Uiso   1.00
C240   C     0.18614   0.60736   0.99181   0.00000  Uiso   1.00
C241   C     0.16080   0.59240   0.08888   0.00000  Uiso   1.00
C242   C     0.14361   0.63791   0.15508   0.00000  Uiso   1.00
C243   C     0.10832   0.69537   0.29072   0.00000  Uiso   1.00
C244   C     0.22266   0.67205   0.85237   0.00000  Uiso   1.00
C245   C     0.18407   0.63851   0.77432   0.00000  Uiso   1.00
C246   C     0.15851   0.66118   0.68263   0.00000  Uiso   1.00
C247   C     0.12473   0.62340   0.62180   0.00000  Uiso   1.00
C248   C     0.27990   0.63834   0.85857   0.00000  Uiso   1.00
C249   C     0.33493   0.66087   0.83772   0.00000  Uiso   1.00
C250   C     0.38183   0.62295   0.84782   0.00000  Uiso   1.00
C251   C     0.19405   0.66570   0.96193   0.00000  Uiso   1.00
C252   C     0.17690   0.71124   0.02800   0.00000  Uiso   1.00
C253   C     0.15154   0.69636   0.12514   0.00000  Uiso   1.00
H254   H     0.20195   0.51922   0.93066   0.00000  Uiso   1.00
H255   H     0.13630   0.49719   0.76666   0.00000  Uiso   1.00
H256   H     0.31269   0.49688   0.92173   0.00000  Uiso   1.00
H257   H     0.15469   0.54725   0.11198   0.00000  Uiso   1.00
H258   H     0.06701   0.49850   0.57162   0.00000  Uiso   1.00
H259   H     0.43895   0.49785   0.89864   0.00000  Uiso   1.00
H260   H     0.10577   0.60406   0.29982   0.00000  Uiso   1.00
H261   H     0.22882   0.71747   0.82911   0.00000  Uiso   1.00
H262   H     0.16464   0.70633   0.65952   0.00000  Uiso   1.00
H263   H     0.34104   0.70602   0.81460   0.00000  Uiso   1.00
H264   H     0.18303   0.75639   0.00484   0.00000  Uiso   1.00
H265   H     0.09002   0.66824   0.48467   0.00000  Uiso   1.00
H266   H     0.46196   0.66760   0.81169   0.00000  Uiso   1.00
H267   H     0.12878   0.77380   0.21286   0.00000  Uiso   1.00
O268   O     0.03583   0.57246   0.41840   0.00000  Uiso   1.00
O269   O     0.52380   0.57161   0.84746   0.00000  Uiso   1.00
O270   O     0.08667   0.71095   0.37379   0.00000  Uiso   1.00
N271   N     0.08123   0.53998   0.57444   0.00000  Uiso   1.00
N272   N     0.42897   0.53937   0.88017   0.00000  Uiso   1.00
N273   N     0.11748   0.63867   0.25525   0.00000  Uiso   1.00
N274   N     0.09361   0.63132   0.52765   0.00000  Uiso   1.00
N275   N     0.44134   0.63071   0.83338   0.00000  Uiso   1.00
N276   N     0.12986   0.73001   0.20846   0.00000  Uiso   1.00
C277   C     0.93536   0.70810   0.40739   0.00000  Uiso   1.00
C278   C     0.91983   0.67615   0.30421   0.00000  Uiso   1.00
C279   C     0.95766   0.64240   0.24351   0.00000  Uiso   1.00
C280   C     0.93505   0.61681   0.15174   0.00000  Uiso   1.00
C281   C     0.91982   0.56602   0.99604   0.00000  Uiso   1.00
C282   C     0.92000   0.77199   0.38845   0.00000  Uiso   1.00
C283   C     0.95797   0.81882   0.39859   0.00000  Uiso   1.00
C284   C     0.93550   0.87391   0.37776   0.00000  Uiso   1.00
C285   C     0.92053   0.97192   0.35292   0.00000  Uiso   1.00
C286   C     0.89264   0.68614   0.49181   0.00000  Uiso   1.00
C287   C     0.90760   0.66080   0.58888   0.00000  Uiso   1.00
C288   C     0.86209   0.64361   0.65508   0.00000  Uiso   1.00
C289   C     0.80463   0.60832   0.79072   0.00000  Uiso   1.00
C290   C     0.82795   0.72266   0.35237   0.00000  Uiso   1.00
C291   C     0.86149   0.68407   0.27432   0.00000  Uiso   1.00
C292   C     0.83882   0.65851   0.18263   0.00000  Uiso   1.00
C293   C     0.87660   0.62473   0.12180   0.00000  Uiso   1.00
C294   C     0.86166   0.77990   0.35857   0.00000  Uiso   1.00
C295   C     0.83913   0.83493   0.33772   0.00000  Uiso   1.00
C296   C     0.87705   0.88183   0.34782   0.00000  Uiso   1.00
C297   C     0.83430   0.69405   0.46193   0.00000  Uiso   1.00
C298   C     0.78876   0.67690   0.52800   0.00000  Uiso   1.00
C299   C     0.80364   0.65154   0.62514   0.00000  Uiso   1.00
H300   H     0.98078   0.70195   0.43066   0.00000  Uiso   1.00
H301   H     0.00281   0.63630   0.26666   0.00000  Uiso   1.00
H302   H     0.00312   0.81269   0.42173   0.00000  Uiso   1.00
H303   H     0.95275   0.65469   0.61198   0.00000  Uiso   1.00
H304   H     0.00150   0.56701   0.07162   0.00000  Uiso   1.00
H305   H     0.00215   0.93895   0.39864   0.00000  Uiso   1.00
H306   H     0.89594   0.60577   0.79982   0.00000  Uiso   1.00
H307   H     0.78253   0.72882   0.32911   0.00000  Uiso   1.00
H308   H     0.79367   0.66464   0.15952   0.00000  Uiso   1.00
H309   H     0.79398   0.84104   0.31460   0.00000  Uiso   1.00
H310   H     0.74361   0.68303   0.50484   0.00000  Uiso   1.00
H311   H     0.83176   0.59002   0.98467   0.00000  Uiso   1.00
H312   H     0.83240   0.96196   0.31169   0.00000  Uiso   1.00
H313   H     0.72620   0.62878   0.71286   0.00000  Uiso   1.00
O314   O     0.92754   0.53583   0.91840   0.00000  Uiso   1.00
O315   O     0.92839   0.02380   0.34746   0.00000  Uiso   1.00
O316   O     0.78905   0.58667   0.87379   0.00000  Uiso   1.00
N317   N     0.96002   0.58123   0.07444   0.00000  Uiso   1.00
N318   N     0.96063   0.92897   0.38017   0.00000  Uiso   1.00
N319   N     0.86133   0.61748   0.75525   0.00000  Uiso   1.00
N320   N     0.86868   0.59361   0.02765   0.00000  Uiso   1.00
N321   N     0.86929   0.94134   0.33338   0.00000  Uiso   1.00
N322   N     0.76999   0.62986   0.70846   0.00000  Uiso   1.00
C323   C     0.06464   0.29190   0.40739   0.00000  Uiso   1.00
C324   C     0.08017   0.32385   0.30421   0.00000  Uiso   1.00
C325   C     0.04234   0.35760   0.24351   0.00000  Uiso   1.00
C326   C     0.06495   0.38319   0.15174   0.00000  Uiso   1.00
C327   C     0.08018   0.43398   0.99604   0.00000  Uiso   1.00
C328   C     0.08000   0.22801   0.38845   0.00000  Uiso   1.00
C329   C     0.04203   0.18118   0.39859   0.00000  Uiso   1.00
C330   C     0.06450   0.12609   0.37776   0.00000  Uiso   1.00
C331   C     0.07947   0.02808   0.35292   0.00000  Uiso   1.00
C332   C     0.10736   0.31386   0.49181   0.00000  Uiso   1.00
C333   C     0.09240   0.33920   0.58888   0.00000  Uiso   1.00
C334   C     0.13791   0.35639   0.65508   0.00000  Uiso   1.00
C335   C     0.19537   0.39168   0.79072   0.00000  Uiso   1.00
C336   C     0.17205   0.27734   0.35237   0.00000  Uiso   1.00
C337   C     0.13851   0.31593   0.27432   0.00000  Uiso   1.00
C338   C     0.16118   0.34149   0.18263   0.00000  Uiso   1.00
C339   C     0.12340   0.37527   0.12180   0.00000  Uiso   1.00
C340   C     0.13834   0.22010   0.35857   0.00000  Uiso   1.00
C341   C     0.16087   0.16507   0.33772   0.00000  Uiso   1.00
C342   C     0.12295   0.11817   0.34782   0.00000  Uiso   1.00
C343   C     0.16570   0.30595   0.46193   0.00000  Uiso   1.00
C344   C     0.21124   0.32310   0.52800   0.00000  Uiso   1.00
C345   C     0.19636   0.34846   0.62514   0.00000  Uiso   1.00
H346   H     0.01922   0.29805   0.43066   0.00000  Uiso   1.00
H347   H     0.99719   0.36370   0.26666   0.00000  Uiso   1.00
H348   H     0.99688   0.18731   0.42173   0.00000  Uiso   1.00
H349   H     0.04725   0.34531   0.61198   0.00000  Uiso   1.00
H350   H     0.99850   0.43299   0.07162   0.00000  Uiso   1.00
H351   H     0.99785   0.06105   0.39864   0.00000  Uiso   1.00
H352   H     0.10406   0.39423   0.79982   0.00000  Uiso   1.00
H353   H     0.21747   0.27118   0.32911   0.00000  Uiso   1.00
H354   H     0.20633   0.33536   0.15952   0.00000  Uiso   1.00
H355   H     0.20602   0.15896   0.31460   0.00000  Uiso   1.00
H356   H     0.25639   0.31697   0.50484   0.00000  Uiso   1.00
H357   H     0.16824   0.40998   0.98467   0.00000  Uiso   1.00
H358   H     0.16760   0.03804   0.31169   0.00000  Uiso   1.00
H359   H     0.27380   0.37122   0.71286   0.00000  Uiso   1.00
O360   O     0.07246   0.46417   0.91840   0.00000  Uiso   1.00
O361   O     0.07161   0.97620   0.34746   0.00000  Uiso   1.00
O362   O     0.21095   0.41333   0.87379   0.00000  Uiso   1.00
N363   N     0.03998   0.41877   0.07444   0.00000  Uiso   1.00
N364   N     0.03937   0.07103   0.38017   0.00000  Uiso   1.00
N365   N     0.13867   0.38252   0.75525   0.00000  Uiso   1.00
N366   N     0.13132   0.40639   0.02765   0.00000  Uiso   1.00
N367   N     0.13071   0.05866   0.33338   0.00000  Uiso   1.00
N368   N     0.23001   0.37014   0.70846   0.00000  Uiso   1.00
