data_job_02511
_audit_creation_date              2018-12-19
_audit_creation_method            'Materials Studio'
_symmetry_space_group_name_H-M    'P1'
_symmetry_Int_Tables_number       1
_symmetry_cell_setting            triclinic
loop_
_symmetry_equiv_pos_as_xyz
  x,y,z
_cell_length_a                    12.5913
_cell_length_b                    22.1191
_cell_length_c                    26.9395
_cell_angle_alpha                 90.0000
_cell_angle_beta                  102.2560
_cell_angle_gamma                 90.0000
loop_
_atom_site_label
_atom_site_type_symbol
_atom_site_fract_x
_atom_site_fract_y
_atom_site_fract_z
_atom_site_U_iso_or_equiv
_atom_site_adp_type
_atom_site_occupancy
C1     C     0.89200   0.56509   0.32228   0.00000  Uiso   1.00
C2     C     0.79206   0.54506   0.34152   0.00000  Uiso   1.00
C3     C     0.71571   0.50301   0.31828   0.00000  Uiso   1.00
C4     C     0.63012   0.49088   0.34186   0.00000  Uiso   1.00
C5     C     0.47625   0.45539   0.36485   0.00000  Uiso   1.00
C6     C     0.88351   0.63364   0.31676   0.00000  Uiso   1.00
C7     C     0.88407   0.66606   0.27271   0.00000  Uiso   1.00
C8     C     0.87548   0.72849   0.27546   0.00000  Uiso   1.00
C9     C     0.86368   0.83053   0.26003   0.00000  Uiso   1.00
C10    C     0.98929   0.55307   0.36557   0.00000  Uiso   1.00
C11    C     0.07882   0.51776   0.36255   0.00000  Uiso   1.00
C12    C     0.15931   0.51238   0.40639   0.00000  Uiso   1.00
C13    C     0.31175   0.48932   0.46673   0.00000  Uiso   1.00
C14    C     0.87577   0.61833   0.40549   0.00000  Uiso   1.00
C15    C     0.78325   0.57398   0.38671   0.00000  Uiso   1.00
C16    C     0.69776   0.56191   0.41034   0.00000  Uiso   1.00
C17    C     0.62129   0.51984   0.38714   0.00000  Uiso   1.00
C18    C     0.87470   0.66255   0.36196   0.00000  Uiso   1.00
C19    C     0.86612   0.72496   0.36477   0.00000  Uiso   1.00
C20    C     0.86666   0.75746   0.32074   0.00000  Uiso   1.00
C21    C     0.98049   0.58198   0.41076   0.00000  Uiso   1.00
C22    C     0.06086   0.57666   0.45461   0.00000  Uiso   1.00
C23    C     0.15048   0.54134   0.45166   0.00000  Uiso   1.00
H24    H     0.89886   0.54259   0.28709   0.00000  Uiso   1.00
H25    H     0.72255   0.48064   0.28330   0.00000  Uiso   1.00
H26    H     0.89090   0.64367   0.23774   0.00000  Uiso   1.00
H27    H     0.08561   0.49539   0.32757   0.00000  Uiso   1.00
H28    H     0.52317   0.42474   0.29902   0.00000  Uiso   1.00
H29    H     0.87818   0.76848   0.20297   0.00000  Uiso   1.00
H30    H     0.28877   0.45582   0.39238   0.00000  Uiso   1.00
H31    H     0.86891   0.64085   0.44067   0.00000  Uiso   1.00
H32    H     0.69096   0.58429   0.44531   0.00000  Uiso   1.00
H33    H     0.85931   0.74732   0.39976   0.00000  Uiso   1.00
H34    H     0.05402   0.59904   0.48958   0.00000  Uiso   1.00
H35    H     0.49753   0.50886   0.43052   0.00000  Uiso   1.00
H36    H     0.85254   0.85261   0.33446   0.00000  Uiso   1.00
H37    H     0.26313   0.53994   0.52387   0.00000  Uiso   1.00
O38    O     0.39381   0.42784   0.36504   0.00000  Uiso   1.00
O39    O     0.85959   0.87882   0.23902   0.00000  Uiso   1.00
O40    O     0.39826   0.46861   0.48753   0.00000  Uiso   1.00
N41    N     0.54157   0.45229   0.32934   0.00000  Uiso   1.00
N42    N     0.87347   0.77367   0.23953   0.00000  Uiso   1.00
N43    N     0.25734   0.48137   0.41661   0.00000  Uiso   1.00
N44    N     0.52777   0.49756   0.40009   0.00000  Uiso   1.00
N45    N     0.85967   0.81894   0.31029   0.00000  Uiso   1.00
N46    N     0.24355   0.52663   0.48737   0.00000  Uiso   1.00
C47    C     0.39200   0.06509   0.32228   0.00000  Uiso   1.00
C48    C     0.29206   0.04506   0.34152   0.00000  Uiso   1.00
C49    C     0.21571   0.00301   0.31828   0.00000  Uiso   1.00
C50    C     0.13012   0.99088   0.34186   0.00000  Uiso   1.00
C51    C     0.97625   0.95539   0.36485   0.00000  Uiso   1.00
C52    C     0.38351   0.13364   0.31676   0.00000  Uiso   1.00
C53    C     0.38407   0.16606   0.27271   0.00000  Uiso   1.00
C54    C     0.37548   0.22849   0.27546   0.00000  Uiso   1.00
C55    C     0.36368   0.33053   0.26003   0.00000  Uiso   1.00
C56    C     0.48929   0.05307   0.36557   0.00000  Uiso   1.00
C57    C     0.57882   0.01776   0.36255   0.00000  Uiso   1.00
C58    C     0.65931   0.01238   0.40639   0.00000  Uiso   1.00
C59    C     0.81175   0.98932   0.46673   0.00000  Uiso   1.00
C60    C     0.37577   0.11833   0.40549   0.00000  Uiso   1.00
C61    C     0.28325   0.07398   0.38671   0.00000  Uiso   1.00
C62    C     0.19776   0.06191   0.41034   0.00000  Uiso   1.00
C63    C     0.12129   0.01984   0.38714   0.00000  Uiso   1.00
C64    C     0.37470   0.16255   0.36196   0.00000  Uiso   1.00
C65    C     0.36612   0.22496   0.36477   0.00000  Uiso   1.00
C66    C     0.36666   0.25746   0.32074   0.00000  Uiso   1.00
C67    C     0.48049   0.08198   0.41076   0.00000  Uiso   1.00
C68    C     0.56086   0.07666   0.45461   0.00000  Uiso   1.00
C69    C     0.65048   0.04134   0.45166   0.00000  Uiso   1.00
H70    H     0.39886   0.04259   0.28709   0.00000  Uiso   1.00
H71    H     0.22255   0.98064   0.28330   0.00000  Uiso   1.00
H72    H     0.39090   0.14367   0.23774   0.00000  Uiso   1.00
H73    H     0.58561   0.99539   0.32757   0.00000  Uiso   1.00
H74    H     0.02317   0.92474   0.29902   0.00000  Uiso   1.00
H75    H     0.37818   0.26848   0.20297   0.00000  Uiso   1.00
H76    H     0.78877   0.95582   0.39238   0.00000  Uiso   1.00
H77    H     0.36891   0.14085   0.44067   0.00000  Uiso   1.00
H78    H     0.19096   0.08429   0.44531   0.00000  Uiso   1.00
H79    H     0.35931   0.24732   0.39976   0.00000  Uiso   1.00
H80    H     0.55402   0.09904   0.48958   0.00000  Uiso   1.00
H81    H     0.99753   0.00886   0.43052   0.00000  Uiso   1.00
H82    H     0.35254   0.35261   0.33446   0.00000  Uiso   1.00
H83    H     0.76313   0.03994   0.52387   0.00000  Uiso   1.00
O84    O     0.89381   0.92784   0.36504   0.00000  Uiso   1.00
O85    O     0.35959   0.37882   0.23902   0.00000  Uiso   1.00
O86    O     0.89826   0.96861   0.48753   0.00000  Uiso   1.00
N87    N     0.04157   0.95229   0.32934   0.00000  Uiso   1.00
N88    N     0.37347   0.27367   0.23953   0.00000  Uiso   1.00
N89    N     0.75734   0.98137   0.41661   0.00000  Uiso   1.00
N90    N     0.02777   0.99756   0.40009   0.00000  Uiso   1.00
N91    N     0.35967   0.31894   0.31029   0.00000  Uiso   1.00
N92    N     0.74355   0.02663   0.48737   0.00000  Uiso   1.00
C93    C     0.10800   0.56509   0.17772   0.00000  Uiso   1.00
C94    C     0.20794   0.54506   0.15848   0.00000  Uiso   1.00
C95    C     0.28429   0.50301   0.18172   0.00000  Uiso   1.00
C96    C     0.36988   0.49088   0.15814   0.00000  Uiso   1.00
C97    C     0.52375   0.45539   0.13515   0.00000  Uiso   1.00
C98    C     0.11649   0.63364   0.18324   0.00000  Uiso   1.00
C99    C     0.11593   0.66606   0.22729   0.00000  Uiso   1.00
C100   C     0.12452   0.72849   0.22454   0.00000  Uiso   1.00
C101   C     0.13632   0.83053   0.23997   0.00000  Uiso   1.00
C102   C     0.01071   0.55307   0.13443   0.00000  Uiso   1.00
C103   C     0.92118   0.51776   0.13745   0.00000  Uiso   1.00
C104   C     0.84069   0.51238   0.09361   0.00000  Uiso   1.00
C105   C     0.68825   0.48932   0.03327   0.00000  Uiso   1.00
C106   C     0.12423   0.61833   0.09451   0.00000  Uiso   1.00
C107   C     0.21675   0.57398   0.11329   0.00000  Uiso   1.00
C108   C     0.30224   0.56191   0.08966   0.00000  Uiso   1.00
C109   C     0.37871   0.51984   0.11286   0.00000  Uiso   1.00
C110   C     0.12530   0.66255   0.13804   0.00000  Uiso   1.00
C111   C     0.13388   0.72496   0.13523   0.00000  Uiso   1.00
C112   C     0.13334   0.75746   0.17926   0.00000  Uiso   1.00
C113   C     0.01951   0.58198   0.08924   0.00000  Uiso   1.00
C114   C     0.93914   0.57666   0.04539   0.00000  Uiso   1.00
C115   C     0.84952   0.54134   0.04834   0.00000  Uiso   1.00
H116   H     0.10114   0.54259   0.21291   0.00000  Uiso   1.00
H117   H     0.27745   0.48064   0.21670   0.00000  Uiso   1.00
H118   H     0.10910   0.64367   0.26226   0.00000  Uiso   1.00
H119   H     0.91439   0.49539   0.17243   0.00000  Uiso   1.00
H120   H     0.47683   0.42474   0.20098   0.00000  Uiso   1.00
H121   H     0.12182   0.76848   0.29703   0.00000  Uiso   1.00
H122   H     0.71123   0.45582   0.10762   0.00000  Uiso   1.00
H123   H     0.13109   0.64085   0.05933   0.00000  Uiso   1.00
H124   H     0.30904   0.58429   0.05469   0.00000  Uiso   1.00
H125   H     0.14069   0.74732   0.10024   0.00000  Uiso   1.00
H126   H     0.94598   0.59904   0.01042   0.00000  Uiso   1.00
H127   H     0.50247   0.50886   0.06948   0.00000  Uiso   1.00
H128   H     0.14746   0.85261   0.16554   0.00000  Uiso   1.00
H129   H     0.73687   0.53994   0.97613   0.00000  Uiso   1.00
O130   O     0.60619   0.42784   0.13496   0.00000  Uiso   1.00
O131   O     0.14041   0.87882   0.26098   0.00000  Uiso   1.00
O132   O     0.60174   0.46861   0.01247   0.00000  Uiso   1.00
N133   N     0.45843   0.45229   0.17066   0.00000  Uiso   1.00
N134   N     0.12653   0.77367   0.26047   0.00000  Uiso   1.00
N135   N     0.74266   0.48137   0.08339   0.00000  Uiso   1.00
N136   N     0.47223   0.49756   0.09991   0.00000  Uiso   1.00
N137   N     0.14033   0.81894   0.18971   0.00000  Uiso   1.00
N138   N     0.75645   0.52663   0.01263   0.00000  Uiso   1.00
C139   C     0.60800   0.06509   0.17772   0.00000  Uiso   1.00
C140   C     0.70794   0.04506   0.15848   0.00000  Uiso   1.00
C141   C     0.78429   0.00301   0.18172   0.00000  Uiso   1.00
C142   C     0.86988   0.99088   0.15814   0.00000  Uiso   1.00
C143   C     0.02375   0.95539   0.13515   0.00000  Uiso   1.00
C144   C     0.61649   0.13364   0.18324   0.00000  Uiso   1.00
C145   C     0.61593   0.16606   0.22729   0.00000  Uiso   1.00
C146   C     0.62452   0.22849   0.22454   0.00000  Uiso   1.00
C147   C     0.63632   0.33053   0.23997   0.00000  Uiso   1.00
C148   C     0.51071   0.05307   0.13443   0.00000  Uiso   1.00
C149   C     0.42118   0.01776   0.13745   0.00000  Uiso   1.00
C150   C     0.34069   0.01238   0.09361   0.00000  Uiso   1.00
C151   C     0.18825   0.98932   0.03327   0.00000  Uiso   1.00
C152   C     0.62423   0.11833   0.09451   0.00000  Uiso   1.00
C153   C     0.71675   0.07398   0.11329   0.00000  Uiso   1.00
C154   C     0.80224   0.06191   0.08966   0.00000  Uiso   1.00
C155   C     0.87871   0.01984   0.11286   0.00000  Uiso   1.00
C156   C     0.62530   0.16255   0.13804   0.00000  Uiso   1.00
C157   C     0.63388   0.22496   0.13523   0.00000  Uiso   1.00
C158   C     0.63334   0.25746   0.17926   0.00000  Uiso   1.00
C159   C     0.51951   0.08198   0.08924   0.00000  Uiso   1.00
C160   C     0.43914   0.07666   0.04539   0.00000  Uiso   1.00
C161   C     0.34952   0.04134   0.04834   0.00000  Uiso   1.00
H162   H     0.60114   0.04259   0.21291   0.00000  Uiso   1.00
H163   H     0.77745   0.98064   0.21670   0.00000  Uiso   1.00
H164   H     0.60910   0.14367   0.26226   0.00000  Uiso   1.00
H165   H     0.41439   0.99539   0.17243   0.00000  Uiso   1.00
H166   H     0.97683   0.92474   0.20098   0.00000  Uiso   1.00
H167   H     0.62182   0.26848   0.29703   0.00000  Uiso   1.00
H168   H     0.21123   0.95582   0.10762   0.00000  Uiso   1.00
H169   H     0.63109   0.14085   0.05933   0.00000  Uiso   1.00
H170   H     0.80904   0.08429   0.05469   0.00000  Uiso   1.00
H171   H     0.64069   0.24732   0.10024   0.00000  Uiso   1.00
H172   H     0.44598   0.09904   0.01042   0.00000  Uiso   1.00
H173   H     0.00247   0.00886   0.06948   0.00000  Uiso   1.00
H174   H     0.64746   0.35261   0.16554   0.00000  Uiso   1.00
H175   H     0.23687   0.03994   0.97613   0.00000  Uiso   1.00
O176   O     0.10619   0.92784   0.13496   0.00000  Uiso   1.00
O177   O     0.64041   0.37882   0.26098   0.00000  Uiso   1.00
O178   O     0.10174   0.96861   0.01247   0.00000  Uiso   1.00
N179   N     0.95843   0.95229   0.17066   0.00000  Uiso   1.00
N180   N     0.62653   0.27367   0.26047   0.00000  Uiso   1.00
N181   N     0.24266   0.98137   0.08339   0.00000  Uiso   1.00
N182   N     0.97223   0.99756   0.09991   0.00000  Uiso   1.00
N183   N     0.64033   0.31894   0.18971   0.00000  Uiso   1.00
N184   N     0.25645   0.02663   0.01263   0.00000  Uiso   1.00
C185   C     0.10800   0.43491   0.67772   0.00000  Uiso   1.00
C186   C     0.20794   0.45494   0.65848   0.00000  Uiso   1.00
C187   C     0.28429   0.49699   0.68172   0.00000  Uiso   1.00
C188   C     0.36988   0.50912   0.65814   0.00000  Uiso   1.00
C189   C     0.52375   0.54461   0.63515   0.00000  Uiso   1.00
C190   C     0.11649   0.36636   0.68324   0.00000  Uiso   1.00
C191   C     0.11593   0.33394   0.72729   0.00000  Uiso   1.00
C192   C     0.12452   0.27151   0.72454   0.00000  Uiso   1.00
C193   C     0.13632   0.16947   0.73997   0.00000  Uiso   1.00
C194   C     0.01071   0.44693   0.63443   0.00000  Uiso   1.00
C195   C     0.92118   0.48224   0.63745   0.00000  Uiso   1.00
C196   C     0.84069   0.48762   0.59361   0.00000  Uiso   1.00
C197   C     0.68825   0.51068   0.53327   0.00000  Uiso   1.00
C198   C     0.12423   0.38167   0.59451   0.00000  Uiso   1.00
C199   C     0.21675   0.42602   0.61329   0.00000  Uiso   1.00
C200   C     0.30224   0.43809   0.58966   0.00000  Uiso   1.00
C201   C     0.37871   0.48016   0.61286   0.00000  Uiso   1.00
C202   C     0.12530   0.33745   0.63804   0.00000  Uiso   1.00
C203   C     0.13388   0.27504   0.63523   0.00000  Uiso   1.00
C204   C     0.13334   0.24254   0.67926   0.00000  Uiso   1.00
C205   C     0.01951   0.41802   0.58924   0.00000  Uiso   1.00
C206   C     0.93914   0.42334   0.54539   0.00000  Uiso   1.00
C207   C     0.84952   0.45866   0.54834   0.00000  Uiso   1.00
H208   H     0.10114   0.45741   0.71291   0.00000  Uiso   1.00
H209   H     0.27745   0.51936   0.71670   0.00000  Uiso   1.00
H210   H     0.10910   0.35633   0.76226   0.00000  Uiso   1.00
H211   H     0.91439   0.50461   0.67243   0.00000  Uiso   1.00
H212   H     0.47683   0.57526   0.70098   0.00000  Uiso   1.00
H213   H     0.12182   0.23152   0.79703   0.00000  Uiso   1.00
H214   H     0.71123   0.54418   0.60762   0.00000  Uiso   1.00
H215   H     0.13109   0.35915   0.55933   0.00000  Uiso   1.00
H216   H     0.30904   0.41571   0.55469   0.00000  Uiso   1.00
H217   H     0.14069   0.25268   0.60024   0.00000  Uiso   1.00
H218   H     0.94598   0.40096   0.51042   0.00000  Uiso   1.00
H219   H     0.50247   0.49114   0.56948   0.00000  Uiso   1.00
H220   H     0.14746   0.14739   0.66554   0.00000  Uiso   1.00
H221   H     0.73687   0.46006   0.47613   0.00000  Uiso   1.00
O222   O     0.60619   0.57216   0.63496   0.00000  Uiso   1.00
O223   O     0.14041   0.12118   0.76098   0.00000  Uiso   1.00
O224   O     0.60174   0.53139   0.51247   0.00000  Uiso   1.00
N225   N     0.45843   0.54771   0.67066   0.00000  Uiso   1.00
N226   N     0.12653   0.22633   0.76047   0.00000  Uiso   1.00
N227   N     0.74266   0.51863   0.58339   0.00000  Uiso   1.00
N228   N     0.47223   0.50244   0.59991   0.00000  Uiso   1.00
N229   N     0.14033   0.18106   0.68971   0.00000  Uiso   1.00
N230   N     0.75645   0.47337   0.51263   0.00000  Uiso   1.00
C231   C     0.60800   0.93491   0.67772   0.00000  Uiso   1.00
C232   C     0.70794   0.95494   0.65848   0.00000  Uiso   1.00
C233   C     0.78429   0.99699   0.68172   0.00000  Uiso   1.00
C234   C     0.86988   0.00912   0.65814   0.00000  Uiso   1.00
C235   C     0.02375   0.04461   0.63515   0.00000  Uiso   1.00
C236   C     0.61649   0.86636   0.68324   0.00000  Uiso   1.00
C237   C     0.61593   0.83394   0.72729   0.00000  Uiso   1.00
C238   C     0.62452   0.77151   0.72454   0.00000  Uiso   1.00
C239   C     0.63632   0.66947   0.73997   0.00000  Uiso   1.00
C240   C     0.51071   0.94693   0.63443   0.00000  Uiso   1.00
C241   C     0.42118   0.98224   0.63745   0.00000  Uiso   1.00
C242   C     0.34069   0.98762   0.59361   0.00000  Uiso   1.00
C243   C     0.18825   0.01068   0.53327   0.00000  Uiso   1.00
C244   C     0.62423   0.88167   0.59451   0.00000  Uiso   1.00
C245   C     0.71675   0.92602   0.61329   0.00000  Uiso   1.00
C246   C     0.80224   0.93809   0.58966   0.00000  Uiso   1.00
C247   C     0.87871   0.98016   0.61286   0.00000  Uiso   1.00
C248   C     0.62530   0.83745   0.63804   0.00000  Uiso   1.00
C249   C     0.63388   0.77504   0.63523   0.00000  Uiso   1.00
C250   C     0.63334   0.74254   0.67926   0.00000  Uiso   1.00
C251   C     0.51951   0.91802   0.58924   0.00000  Uiso   1.00
C252   C     0.43914   0.92334   0.54539   0.00000  Uiso   1.00
C253   C     0.34952   0.95866   0.54834   0.00000  Uiso   1.00
H254   H     0.60114   0.95741   0.71291   0.00000  Uiso   1.00
H255   H     0.77745   0.01936   0.71670   0.00000  Uiso   1.00
H256   H     0.60910   0.85633   0.76226   0.00000  Uiso   1.00
H257   H     0.41439   0.00461   0.67243   0.00000  Uiso   1.00
H258   H     0.97683   0.07526   0.70098   0.00000  Uiso   1.00
H259   H     0.62182   0.73152   0.79703   0.00000  Uiso   1.00
H260   H     0.21123   0.04418   0.60762   0.00000  Uiso   1.00
H261   H     0.63109   0.85915   0.55933   0.00000  Uiso   1.00
H262   H     0.80904   0.91571   0.55469   0.00000  Uiso   1.00
H263   H     0.64069   0.75268   0.60024   0.00000  Uiso   1.00
H264   H     0.44598   0.90096   0.51042   0.00000  Uiso   1.00
H265   H     0.00247   0.99114   0.56948   0.00000  Uiso   1.00
H266   H     0.64746   0.64739   0.66554   0.00000  Uiso   1.00
H267   H     0.23687   0.96006   0.47613   0.00000  Uiso   1.00
O268   O     0.10619   0.07216   0.63496   0.00000  Uiso   1.00
O269   O     0.64041   0.62118   0.76098   0.00000  Uiso   1.00
O270   O     0.10174   0.03139   0.51247   0.00000  Uiso   1.00
N271   N     0.95843   0.04771   0.67066   0.00000  Uiso   1.00
N272   N     0.62653   0.72633   0.76047   0.00000  Uiso   1.00
N273   N     0.24266   0.01863   0.58339   0.00000  Uiso   1.00
N274   N     0.97223   0.00244   0.59991   0.00000  Uiso   1.00
N275   N     0.64033   0.68106   0.68971   0.00000  Uiso   1.00
N276   N     0.25645   0.97337   0.51263   0.00000  Uiso   1.00
C277   C     0.89200   0.43491   0.82228   0.00000  Uiso   1.00
C278   C     0.79206   0.45494   0.84152   0.00000  Uiso   1.00
C279   C     0.71571   0.49699   0.81828   0.00000  Uiso   1.00
C280   C     0.63012   0.50912   0.84186   0.00000  Uiso   1.00
C281   C     0.47625   0.54461   0.86485   0.00000  Uiso   1.00
C282   C     0.88351   0.36636   0.81676   0.00000  Uiso   1.00
C283   C     0.88407   0.33394   0.77271   0.00000  Uiso   1.00
C284   C     0.87548   0.27151   0.77546   0.00000  Uiso   1.00
C285   C     0.86368   0.16947   0.76003   0.00000  Uiso   1.00
C286   C     0.98929   0.44693   0.86557   0.00000  Uiso   1.00
C287   C     0.07882   0.48224   0.86255   0.00000  Uiso   1.00
C288   C     0.15931   0.48762   0.90639   0.00000  Uiso   1.00
C289   C     0.31175   0.51068   0.96673   0.00000  Uiso   1.00
C290   C     0.87577   0.38167   0.90549   0.00000  Uiso   1.00
C291   C     0.78325   0.42602   0.88671   0.00000  Uiso   1.00
C292   C     0.69776   0.43809   0.91034   0.00000  Uiso   1.00
C293   C     0.62129   0.48016   0.88714   0.00000  Uiso   1.00
C294   C     0.87470   0.33745   0.86196   0.00000  Uiso   1.00
C295   C     0.86612   0.27504   0.86477   0.00000  Uiso   1.00
C296   C     0.86666   0.24254   0.82074   0.00000  Uiso   1.00
C297   C     0.98049   0.41802   0.91076   0.00000  Uiso   1.00
C298   C     0.06086   0.42334   0.95461   0.00000  Uiso   1.00
C299   C     0.15048   0.45866   0.95166   0.00000  Uiso   1.00
H300   H     0.89886   0.45741   0.78709   0.00000  Uiso   1.00
H301   H     0.72255   0.51936   0.78330   0.00000  Uiso   1.00
H302   H     0.89090   0.35633   0.73774   0.00000  Uiso   1.00
H303   H     0.08561   0.50461   0.82757   0.00000  Uiso   1.00
H304   H     0.52317   0.57526   0.79902   0.00000  Uiso   1.00
H305   H     0.87818   0.23152   0.70297   0.00000  Uiso   1.00
H306   H     0.28877   0.54418   0.89238   0.00000  Uiso   1.00
H307   H     0.86891   0.35915   0.94067   0.00000  Uiso   1.00
H308   H     0.69096   0.41571   0.94531   0.00000  Uiso   1.00
H309   H     0.85931   0.25268   0.89976   0.00000  Uiso   1.00
H310   H     0.05402   0.40096   0.98958   0.00000  Uiso   1.00
H311   H     0.49753   0.49114   0.93052   0.00000  Uiso   1.00
H312   H     0.85254   0.14739   0.83446   0.00000  Uiso   1.00
H313   H     0.26313   0.46006   0.02387   0.00000  Uiso   1.00
O314   O     0.39381   0.57216   0.86504   0.00000  Uiso   1.00
O315   O     0.85959   0.12118   0.73902   0.00000  Uiso   1.00
O316   O     0.39826   0.53139   0.98753   0.00000  Uiso   1.00
N317   N     0.54157   0.54771   0.82934   0.00000  Uiso   1.00
N318   N     0.87347   0.22633   0.73953   0.00000  Uiso   1.00
N319   N     0.25734   0.51863   0.91661   0.00000  Uiso   1.00
N320   N     0.52777   0.50244   0.90009   0.00000  Uiso   1.00
N321   N     0.85967   0.18106   0.81029   0.00000  Uiso   1.00
N322   N     0.24355   0.47337   0.98737   0.00000  Uiso   1.00
C323   C     0.39200   0.93491   0.82228   0.00000  Uiso   1.00
C324   C     0.29206   0.95494   0.84152   0.00000  Uiso   1.00
C325   C     0.21571   0.99699   0.81828   0.00000  Uiso   1.00
C326   C     0.13012   0.00912   0.84186   0.00000  Uiso   1.00
C327   C     0.97625   0.04461   0.86485   0.00000  Uiso   1.00
C328   C     0.38351   0.86636   0.81676   0.00000  Uiso   1.00
C329   C     0.38407   0.83394   0.77271   0.00000  Uiso   1.00
C330   C     0.37548   0.77151   0.77546   0.00000  Uiso   1.00
C331   C     0.36368   0.66947   0.76003   0.00000  Uiso   1.00
C332   C     0.48929   0.94693   0.86557   0.00000  Uiso   1.00
C333   C     0.57882   0.98224   0.86255   0.00000  Uiso   1.00
C334   C     0.65931   0.98762   0.90639   0.00000  Uiso   1.00
C335   C     0.81175   0.01068   0.96673   0.00000  Uiso   1.00
C336   C     0.37577   0.88167   0.90549   0.00000  Uiso   1.00
C337   C     0.28325   0.92602   0.88671   0.00000  Uiso   1.00
C338   C     0.19776   0.93809   0.91034   0.00000  Uiso   1.00
C339   C     0.12129   0.98016   0.88714   0.00000  Uiso   1.00
C340   C     0.37470   0.83745   0.86196   0.00000  Uiso   1.00
C341   C     0.36612   0.77504   0.86477   0.00000  Uiso   1.00
C342   C     0.36666   0.74254   0.82074   0.00000  Uiso   1.00
C343   C     0.48049   0.91802   0.91076   0.00000  Uiso   1.00
C344   C     0.56086   0.92334   0.95461   0.00000  Uiso   1.00
C345   C     0.65048   0.95866   0.95166   0.00000  Uiso   1.00
H346   H     0.39886   0.95741   0.78709   0.00000  Uiso   1.00
H347   H     0.22255   0.01936   0.78330   0.00000  Uiso   1.00
H348   H     0.39090   0.85633   0.73774   0.00000  Uiso   1.00
H349   H     0.58561   0.00461   0.82757   0.00000  Uiso   1.00
H350   H     0.02317   0.07526   0.79902   0.00000  Uiso   1.00
H351   H     0.37818   0.73152   0.70297   0.00000  Uiso   1.00
H352   H     0.78877   0.04418   0.89238   0.00000  Uiso   1.00
H353   H     0.36891   0.85915   0.94067   0.00000  Uiso   1.00
H354   H     0.19096   0.91571   0.94531   0.00000  Uiso   1.00
H355   H     0.35931   0.75268   0.89976   0.00000  Uiso   1.00
H356   H     0.55402   0.90096   0.98958   0.00000  Uiso   1.00
H357   H     0.99753   0.99114   0.93052   0.00000  Uiso   1.00
H358   H     0.35254   0.64739   0.83446   0.00000  Uiso   1.00
H359   H     0.76313   0.96006   0.02387   0.00000  Uiso   1.00
O360   O     0.89381   0.07216   0.86504   0.00000  Uiso   1.00
O361   O     0.35959   0.62118   0.73902   0.00000  Uiso   1.00
O362   O     0.89826   0.03139   0.98753   0.00000  Uiso   1.00
N363   N     0.04157   0.04771   0.82934   0.00000  Uiso   1.00
N364   N     0.37347   0.72633   0.73953   0.00000  Uiso   1.00
N365   N     0.75734   0.01863   0.91661   0.00000  Uiso   1.00
N366   N     0.02777   0.00244   0.90009   0.00000  Uiso   1.00
N367   N     0.35967   0.68106   0.81029   0.00000  Uiso   1.00
N368   N     0.74355   0.97337   0.98737   0.00000  Uiso   1.00
