data_job_03352
_audit_creation_date              2018-12-19
_audit_creation_method            'Materials Studio'
_symmetry_space_group_name_H-M    'P1'
_symmetry_Int_Tables_number       1
_symmetry_cell_setting            triclinic
loop_
_symmetry_equiv_pos_as_xyz
  x,y,z
_cell_length_a                    24.8166
_cell_length_b                    16.4439
_cell_length_c                    13.5783
_cell_angle_alpha                 90.0000
_cell_angle_beta                  90.0000
_cell_angle_gamma                 90.0000
loop_
_atom_site_label
_atom_site_type_symbol
_atom_site_fract_x
_atom_site_fract_y
_atom_site_fract_z
_atom_site_U_iso_or_equiv
_atom_site_adp_type
_atom_site_occupancy
C1     C     0.13184   0.14268   0.01714   0.00000  Uiso   1.00
C2     C     0.19302   0.14109   0.00689   0.00000  Uiso   1.00
C3     C     0.22963   0.13588   0.08390   0.00000  Uiso   1.00
C4     C     0.28392   0.13528   0.05922   0.00000  Uiso   1.00
C5     C     0.37633   0.13218   0.05824   0.00000  Uiso   1.00
C6     C     0.11311   0.22021   0.96590   0.00000  Uiso   1.00
C7     C     0.08252   0.28151   0.00844   0.00000  Uiso   1.00
C8     C     0.06953   0.34750   0.94925   0.00000  Uiso   1.00
C9     C     0.03784   0.46720   0.88461   0.00000  Uiso   1.00
C10    C     0.11086   0.07238   0.95476   0.00000  Uiso   1.00
C11    C     0.07836   0.00939   0.98792   0.00000  Uiso   1.00
C12    C     0.06346   0.95094   0.91933   0.00000  Uiso   1.00
C13    C     0.02828   0.84111   0.83739   0.00000  Uiso   1.00
C14    C     0.16317   0.15089   0.83637   0.00000  Uiso   1.00
C15    C     0.21004   0.14555   0.90870   0.00000  Uiso   1.00
C16    C     0.26429   0.14496   0.88390   0.00000  Uiso   1.00
C17    C     0.30096   0.13975   0.96086   0.00000  Uiso   1.00
C18    C     0.13012   0.22467   0.86772   0.00000  Uiso   1.00
C19    C     0.11717   0.29059   0.80844   0.00000  Uiso   1.00
C20    C     0.08657   0.35197   0.85088   0.00000  Uiso   1.00
C21    C     0.12787   0.07684   0.85656   0.00000  Uiso   1.00
C22    C     0.11302   0.01847   0.78791   0.00000  Uiso   1.00
C23    C     0.08051   0.95541   0.82096   0.00000  Uiso   1.00
H24    H     0.11859   0.13921   0.09359   0.00000  Uiso   1.00
H25    H     0.21645   0.13244   0.15988   0.00000  Uiso   1.00
H26    H     0.06935   0.27803   0.08443   0.00000  Uiso   1.00
H27    H     0.06520   0.00596   0.06390   0.00000  Uiso   1.00
H28    H     0.33244   0.12692   0.19008   0.00000  Uiso   1.00
H29    H     0.02227   0.43391   0.03098   0.00000  Uiso   1.00
H30    H     0.01351   0.86019   0.98770   0.00000  Uiso   1.00
H31    H     0.17641   0.15436   0.75992   0.00000  Uiso   1.00
H32    H     0.27744   0.14842   0.80790   0.00000  Uiso   1.00
H33    H     0.13035   0.29402   0.73246   0.00000  Uiso   1.00
H34    H     0.12619   0.02194   0.71193   0.00000  Uiso   1.00
H35    H     0.38194   0.13989   0.90440   0.00000  Uiso   1.00
H36    H     0.07177   0.44688   0.74530   0.00000  Uiso   1.00
H37    H     0.06301   0.87316   0.70202   0.00000  Uiso   1.00
O38    O     0.42260   0.12925   0.08483   0.00000  Uiso   1.00
O39    O     0.01566   0.53199   0.87609   0.00000  Uiso   1.00
O40    O     0.00418   0.77929   0.81931   0.00000  Uiso   1.00
N41    N     0.33022   0.13077   0.11626   0.00000  Uiso   1.00
N42    N     0.04024   0.41779   0.96751   0.00000  Uiso   1.00
N43    N     0.03204   0.88143   0.92705   0.00000  Uiso   1.00
N44    N     0.35686   0.13775   0.96254   0.00000  Uiso   1.00
N45    N     0.06688   0.42477   0.81379   0.00000  Uiso   1.00
N46    N     0.05868   0.88841   0.77333   0.00000  Uiso   1.00
C47    C     0.36816   0.85732   0.51714   0.00000  Uiso   1.00
C48    C     0.30698   0.85891   0.50689   0.00000  Uiso   1.00
C49    C     0.27037   0.86412   0.58390   0.00000  Uiso   1.00
C50    C     0.21608   0.86472   0.55922   0.00000  Uiso   1.00
C51    C     0.12367   0.86782   0.55824   0.00000  Uiso   1.00
C52    C     0.38689   0.77979   0.46590   0.00000  Uiso   1.00
C53    C     0.41748   0.71849   0.50844   0.00000  Uiso   1.00
C54    C     0.43047   0.65250   0.44925   0.00000  Uiso   1.00
C55    C     0.46216   0.53280   0.38461   0.00000  Uiso   1.00
C56    C     0.38914   0.92762   0.45476   0.00000  Uiso   1.00
C57    C     0.42164   0.99061   0.48792   0.00000  Uiso   1.00
C58    C     0.43654   0.04906   0.41933   0.00000  Uiso   1.00
C59    C     0.47172   0.15889   0.33739   0.00000  Uiso   1.00
C60    C     0.33683   0.84911   0.33637   0.00000  Uiso   1.00
C61    C     0.28996   0.85445   0.40870   0.00000  Uiso   1.00
C62    C     0.23571   0.85504   0.38390   0.00000  Uiso   1.00
C63    C     0.19904   0.86025   0.46086   0.00000  Uiso   1.00
C64    C     0.36988   0.77533   0.36772   0.00000  Uiso   1.00
C65    C     0.38283   0.70941   0.30844   0.00000  Uiso   1.00
C66    C     0.41343   0.64803   0.35088   0.00000  Uiso   1.00
C67    C     0.37213   0.92316   0.35656   0.00000  Uiso   1.00
C68    C     0.38698   0.98153   0.28791   0.00000  Uiso   1.00
C69    C     0.41949   0.04459   0.32096   0.00000  Uiso   1.00
H70    H     0.38141   0.86079   0.59359   0.00000  Uiso   1.00
H71    H     0.28355   0.86756   0.65988   0.00000  Uiso   1.00
H72    H     0.43065   0.72197   0.58443   0.00000  Uiso   1.00
H73    H     0.43480   0.99404   0.56390   0.00000  Uiso   1.00
H74    H     0.16756   0.87308   0.69008   0.00000  Uiso   1.00
H75    H     0.47773   0.56609   0.53098   0.00000  Uiso   1.00
H76    H     0.48649   0.13981   0.48770   0.00000  Uiso   1.00
H77    H     0.32359   0.84564   0.25992   0.00000  Uiso   1.00
H78    H     0.22256   0.85158   0.30790   0.00000  Uiso   1.00
H79    H     0.36965   0.70598   0.23246   0.00000  Uiso   1.00
H80    H     0.37381   0.97806   0.21193   0.00000  Uiso   1.00
H81    H     0.11806   0.86011   0.40440   0.00000  Uiso   1.00
H82    H     0.42823   0.55312   0.24530   0.00000  Uiso   1.00
H83    H     0.43699   0.12684   0.20202   0.00000  Uiso   1.00
O84    O     0.07740   0.87075   0.58483   0.00000  Uiso   1.00
O85    O     0.48434   0.46801   0.37609   0.00000  Uiso   1.00
O86    O     0.49582   0.22071   0.31931   0.00000  Uiso   1.00
N87    N     0.16978   0.86923   0.61626   0.00000  Uiso   1.00
N88    N     0.45976   0.58221   0.46751   0.00000  Uiso   1.00
N89    N     0.46796   0.11857   0.42705   0.00000  Uiso   1.00
N90    N     0.14314   0.86225   0.46254   0.00000  Uiso   1.00
N91    N     0.43312   0.57523   0.31379   0.00000  Uiso   1.00
N92    N     0.44132   0.11159   0.27333   0.00000  Uiso   1.00
C93    C     0.86816   0.64268   0.48286   0.00000  Uiso   1.00
C94    C     0.80698   0.64109   0.49311   0.00000  Uiso   1.00
C95    C     0.77037   0.63588   0.41610   0.00000  Uiso   1.00
C96    C     0.71608   0.63528   0.44078   0.00000  Uiso   1.00
C97    C     0.62367   0.63218   0.44176   0.00000  Uiso   1.00
C98    C     0.88689   0.72021   0.53410   0.00000  Uiso   1.00
C99    C     0.91748   0.78151   0.49156   0.00000  Uiso   1.00
C100   C     0.93047   0.84750   0.55075   0.00000  Uiso   1.00
C101   C     0.96216   0.96720   0.61539   0.00000  Uiso   1.00
C102   C     0.88914   0.57238   0.54524   0.00000  Uiso   1.00
C103   C     0.92164   0.50939   0.51208   0.00000  Uiso   1.00
C104   C     0.93654   0.45094   0.58067   0.00000  Uiso   1.00
C105   C     0.97172   0.34111   0.66261   0.00000  Uiso   1.00
C106   C     0.83683   0.65089   0.66363   0.00000  Uiso   1.00
C107   C     0.78996   0.64555   0.59130   0.00000  Uiso   1.00
C108   C     0.73571   0.64496   0.61610   0.00000  Uiso   1.00
C109   C     0.69904   0.63975   0.53914   0.00000  Uiso   1.00
C110   C     0.86988   0.72467   0.63228   0.00000  Uiso   1.00
C111   C     0.88283   0.79059   0.69156   0.00000  Uiso   1.00
C112   C     0.91343   0.85197   0.64912   0.00000  Uiso   1.00
C113   C     0.87213   0.57684   0.64344   0.00000  Uiso   1.00
C114   C     0.88698   0.51847   0.71209   0.00000  Uiso   1.00
C115   C     0.91949   0.45541   0.67904   0.00000  Uiso   1.00
H116   H     0.88141   0.63921   0.40641   0.00000  Uiso   1.00
H117   H     0.78355   0.63244   0.34012   0.00000  Uiso   1.00
H118   H     0.93065   0.77803   0.41557   0.00000  Uiso   1.00
H119   H     0.93480   0.50596   0.43610   0.00000  Uiso   1.00
H120   H     0.66756   0.62692   0.30992   0.00000  Uiso   1.00
H121   H     0.97773   0.93391   0.46902   0.00000  Uiso   1.00
H122   H     0.98649   0.36019   0.51230   0.00000  Uiso   1.00
H123   H     0.82359   0.65436   0.74008   0.00000  Uiso   1.00
H124   H     0.72256   0.64842   0.69210   0.00000  Uiso   1.00
H125   H     0.86965   0.79402   0.76754   0.00000  Uiso   1.00
H126   H     0.87381   0.52194   0.78807   0.00000  Uiso   1.00
H127   H     0.61806   0.63989   0.59560   0.00000  Uiso   1.00
H128   H     0.92823   0.94688   0.75470   0.00000  Uiso   1.00
H129   H     0.93699   0.37316   0.79798   0.00000  Uiso   1.00
O130   O     0.57740   0.62925   0.41517   0.00000  Uiso   1.00
O131   O     0.98434   0.03199   0.62391   0.00000  Uiso   1.00
O132   O     0.99582   0.27929   0.68069   0.00000  Uiso   1.00
N133   N     0.66978   0.63077   0.38374   0.00000  Uiso   1.00
N134   N     0.95976   0.91779   0.53249   0.00000  Uiso   1.00
N135   N     0.96796   0.38143   0.57295   0.00000  Uiso   1.00
N136   N     0.64314   0.63775   0.53746   0.00000  Uiso   1.00
N137   N     0.93312   0.92477   0.68621   0.00000  Uiso   1.00
N138   N     0.94132   0.38841   0.72667   0.00000  Uiso   1.00
C139   C     0.63184   0.35732   0.98286   0.00000  Uiso   1.00
C140   C     0.69302   0.35891   0.99311   0.00000  Uiso   1.00
C141   C     0.72963   0.36412   0.91610   0.00000  Uiso   1.00
C142   C     0.78392   0.36472   0.94078   0.00000  Uiso   1.00
C143   C     0.87633   0.36782   0.94176   0.00000  Uiso   1.00
C144   C     0.61311   0.27979   0.03410   0.00000  Uiso   1.00
C145   C     0.58252   0.21849   0.99156   0.00000  Uiso   1.00
C146   C     0.56953   0.15250   0.05075   0.00000  Uiso   1.00
C147   C     0.53784   0.03280   0.11539   0.00000  Uiso   1.00
C148   C     0.61086   0.42762   0.04524   0.00000  Uiso   1.00
C149   C     0.57836   0.49061   0.01208   0.00000  Uiso   1.00
C150   C     0.56346   0.54906   0.08067   0.00000  Uiso   1.00
C151   C     0.52828   0.65889   0.16261   0.00000  Uiso   1.00
C152   C     0.66317   0.34911   0.16363   0.00000  Uiso   1.00
C153   C     0.71004   0.35445   0.09130   0.00000  Uiso   1.00
C154   C     0.76429   0.35504   0.11610   0.00000  Uiso   1.00
C155   C     0.80096   0.36025   0.03914   0.00000  Uiso   1.00
C156   C     0.63012   0.27533   0.13228   0.00000  Uiso   1.00
C157   C     0.61717   0.20941   0.19156   0.00000  Uiso   1.00
C158   C     0.58657   0.14803   0.14912   0.00000  Uiso   1.00
C159   C     0.62787   0.42316   0.14344   0.00000  Uiso   1.00
C160   C     0.61302   0.48153   0.21209   0.00000  Uiso   1.00
C161   C     0.58051   0.54459   0.17904   0.00000  Uiso   1.00
H162   H     0.61859   0.36079   0.90641   0.00000  Uiso   1.00
H163   H     0.71645   0.36756   0.84012   0.00000  Uiso   1.00
H164   H     0.56935   0.22197   0.91557   0.00000  Uiso   1.00
H165   H     0.56520   0.49404   0.93610   0.00000  Uiso   1.00
H166   H     0.83244   0.37308   0.80992   0.00000  Uiso   1.00
H167   H     0.52227   0.06609   0.96902   0.00000  Uiso   1.00
H168   H     0.51351   0.63981   0.01230   0.00000  Uiso   1.00
H169   H     0.67641   0.34564   0.24008   0.00000  Uiso   1.00
H170   H     0.77744   0.35158   0.19210   0.00000  Uiso   1.00
H171   H     0.63035   0.20598   0.26754   0.00000  Uiso   1.00
H172   H     0.62619   0.47806   0.28807   0.00000  Uiso   1.00
H173   H     0.88194   0.36011   0.09560   0.00000  Uiso   1.00
H174   H     0.57177   0.05312   0.25470   0.00000  Uiso   1.00
H175   H     0.56301   0.62684   0.29798   0.00000  Uiso   1.00
O176   O     0.92260   0.37075   0.91517   0.00000  Uiso   1.00
O177   O     0.51566   0.96801   0.12391   0.00000  Uiso   1.00
O178   O     0.50418   0.72071   0.18069   0.00000  Uiso   1.00
N179   N     0.83022   0.36923   0.88374   0.00000  Uiso   1.00
N180   N     0.54024   0.08221   0.03249   0.00000  Uiso   1.00
N181   N     0.53204   0.61857   0.07295   0.00000  Uiso   1.00
N182   N     0.85686   0.36225   0.03746   0.00000  Uiso   1.00
N183   N     0.56688   0.07523   0.18621   0.00000  Uiso   1.00
N184   N     0.55868   0.61159   0.22667   0.00000  Uiso   1.00
C185   C     0.86816   0.85732   0.98286   0.00000  Uiso   1.00
C186   C     0.80698   0.85891   0.99311   0.00000  Uiso   1.00
C187   C     0.77037   0.86412   0.91610   0.00000  Uiso   1.00
C188   C     0.71608   0.86472   0.94078   0.00000  Uiso   1.00
C189   C     0.62367   0.86782   0.94176   0.00000  Uiso   1.00
C190   C     0.88689   0.77979   0.03410   0.00000  Uiso   1.00
C191   C     0.91748   0.71849   0.99156   0.00000  Uiso   1.00
C192   C     0.93047   0.65250   0.05075   0.00000  Uiso   1.00
C193   C     0.96216   0.53280   0.11539   0.00000  Uiso   1.00
C194   C     0.88914   0.92762   0.04524   0.00000  Uiso   1.00
C195   C     0.92164   0.99061   0.01208   0.00000  Uiso   1.00
C196   C     0.93654   0.04906   0.08067   0.00000  Uiso   1.00
C197   C     0.97172   0.15889   0.16261   0.00000  Uiso   1.00
C198   C     0.83683   0.84911   0.16363   0.00000  Uiso   1.00
C199   C     0.78996   0.85445   0.09130   0.00000  Uiso   1.00
C200   C     0.73571   0.85504   0.11610   0.00000  Uiso   1.00
C201   C     0.69904   0.86025   0.03914   0.00000  Uiso   1.00
C202   C     0.86988   0.77533   0.13228   0.00000  Uiso   1.00
C203   C     0.88283   0.70941   0.19156   0.00000  Uiso   1.00
C204   C     0.91343   0.64803   0.14912   0.00000  Uiso   1.00
C205   C     0.87213   0.92316   0.14344   0.00000  Uiso   1.00
C206   C     0.88698   0.98153   0.21209   0.00000  Uiso   1.00
C207   C     0.91949   0.04459   0.17904   0.00000  Uiso   1.00
H208   H     0.88141   0.86079   0.90641   0.00000  Uiso   1.00
H209   H     0.78355   0.86756   0.84012   0.00000  Uiso   1.00
H210   H     0.93065   0.72197   0.91557   0.00000  Uiso   1.00
H211   H     0.93480   0.99404   0.93610   0.00000  Uiso   1.00
H212   H     0.66756   0.87308   0.80992   0.00000  Uiso   1.00
H213   H     0.97773   0.56609   0.96902   0.00000  Uiso   1.00
H214   H     0.98649   0.13981   0.01230   0.00000  Uiso   1.00
H215   H     0.82359   0.84564   0.24008   0.00000  Uiso   1.00
H216   H     0.72256   0.85158   0.19210   0.00000  Uiso   1.00
H217   H     0.86965   0.70598   0.26754   0.00000  Uiso   1.00
H218   H     0.87381   0.97806   0.28807   0.00000  Uiso   1.00
H219   H     0.61806   0.86011   0.09560   0.00000  Uiso   1.00
H220   H     0.92823   0.55312   0.25470   0.00000  Uiso   1.00
H221   H     0.93699   0.12684   0.29798   0.00000  Uiso   1.00
O222   O     0.57740   0.87075   0.91517   0.00000  Uiso   1.00
O223   O     0.98434   0.46801   0.12391   0.00000  Uiso   1.00
O224   O     0.99582   0.22071   0.18069   0.00000  Uiso   1.00
N225   N     0.66978   0.86923   0.88374   0.00000  Uiso   1.00
N226   N     0.95976   0.58221   0.03249   0.00000  Uiso   1.00
N227   N     0.96796   0.11857   0.07295   0.00000  Uiso   1.00
N228   N     0.64314   0.86225   0.03746   0.00000  Uiso   1.00
N229   N     0.93312   0.57523   0.18621   0.00000  Uiso   1.00
N230   N     0.94132   0.11159   0.22667   0.00000  Uiso   1.00
C231   C     0.63184   0.14268   0.48286   0.00000  Uiso   1.00
C232   C     0.69302   0.14109   0.49311   0.00000  Uiso   1.00
C233   C     0.72963   0.13588   0.41610   0.00000  Uiso   1.00
C234   C     0.78392   0.13528   0.44078   0.00000  Uiso   1.00
C235   C     0.87633   0.13218   0.44176   0.00000  Uiso   1.00
C236   C     0.61311   0.22021   0.53410   0.00000  Uiso   1.00
C237   C     0.58252   0.28151   0.49156   0.00000  Uiso   1.00
C238   C     0.56953   0.34750   0.55075   0.00000  Uiso   1.00
C239   C     0.53784   0.46720   0.61539   0.00000  Uiso   1.00
C240   C     0.61086   0.07238   0.54524   0.00000  Uiso   1.00
C241   C     0.57836   0.00939   0.51208   0.00000  Uiso   1.00
C242   C     0.56346   0.95094   0.58067   0.00000  Uiso   1.00
C243   C     0.52828   0.84111   0.66261   0.00000  Uiso   1.00
C244   C     0.66317   0.15089   0.66363   0.00000  Uiso   1.00
C245   C     0.71004   0.14555   0.59130   0.00000  Uiso   1.00
C246   C     0.76429   0.14496   0.61610   0.00000  Uiso   1.00
C247   C     0.80096   0.13975   0.53914   0.00000  Uiso   1.00
C248   C     0.63012   0.22467   0.63228   0.00000  Uiso   1.00
C249   C     0.61717   0.29059   0.69156   0.00000  Uiso   1.00
C250   C     0.58657   0.35197   0.64912   0.00000  Uiso   1.00
C251   C     0.62787   0.07684   0.64344   0.00000  Uiso   1.00
C252   C     0.61302   0.01847   0.71209   0.00000  Uiso   1.00
C253   C     0.58051   0.95541   0.67904   0.00000  Uiso   1.00
H254   H     0.61859   0.13921   0.40641   0.00000  Uiso   1.00
H255   H     0.71645   0.13244   0.34012   0.00000  Uiso   1.00
H256   H     0.56935   0.27803   0.41557   0.00000  Uiso   1.00
H257   H     0.56520   0.00596   0.43610   0.00000  Uiso   1.00
H258   H     0.83244   0.12692   0.30992   0.00000  Uiso   1.00
H259   H     0.52227   0.43391   0.46902   0.00000  Uiso   1.00
H260   H     0.51351   0.86019   0.51230   0.00000  Uiso   1.00
H261   H     0.67641   0.15436   0.74008   0.00000  Uiso   1.00
H262   H     0.77744   0.14842   0.69210   0.00000  Uiso   1.00
H263   H     0.63035   0.29402   0.76754   0.00000  Uiso   1.00
H264   H     0.62619   0.02194   0.78807   0.00000  Uiso   1.00
H265   H     0.88194   0.13989   0.59560   0.00000  Uiso   1.00
H266   H     0.57177   0.44688   0.75470   0.00000  Uiso   1.00
H267   H     0.56301   0.87316   0.79798   0.00000  Uiso   1.00
O268   O     0.92260   0.12925   0.41517   0.00000  Uiso   1.00
O269   O     0.51566   0.53199   0.62391   0.00000  Uiso   1.00
O270   O     0.50418   0.77929   0.68069   0.00000  Uiso   1.00
N271   N     0.83022   0.13077   0.38374   0.00000  Uiso   1.00
N272   N     0.54024   0.41779   0.53249   0.00000  Uiso   1.00
N273   N     0.53204   0.88143   0.57295   0.00000  Uiso   1.00
N274   N     0.85686   0.13775   0.53746   0.00000  Uiso   1.00
N275   N     0.56688   0.42477   0.68621   0.00000  Uiso   1.00
N276   N     0.55868   0.88841   0.72667   0.00000  Uiso   1.00
C277   C     0.13184   0.35732   0.51714   0.00000  Uiso   1.00
C278   C     0.19302   0.35891   0.50689   0.00000  Uiso   1.00
C279   C     0.22963   0.36412   0.58390   0.00000  Uiso   1.00
C280   C     0.28392   0.36472   0.55922   0.00000  Uiso   1.00
C281   C     0.37633   0.36782   0.55824   0.00000  Uiso   1.00
C282   C     0.11311   0.27979   0.46590   0.00000  Uiso   1.00
C283   C     0.08252   0.21849   0.50844   0.00000  Uiso   1.00
C284   C     0.06953   0.15250   0.44925   0.00000  Uiso   1.00
C285   C     0.03784   0.03280   0.38461   0.00000  Uiso   1.00
C286   C     0.11086   0.42762   0.45476   0.00000  Uiso   1.00
C287   C     0.07836   0.49061   0.48792   0.00000  Uiso   1.00
C288   C     0.06346   0.54906   0.41933   0.00000  Uiso   1.00
C289   C     0.02828   0.65889   0.33739   0.00000  Uiso   1.00
C290   C     0.16317   0.34911   0.33637   0.00000  Uiso   1.00
C291   C     0.21004   0.35445   0.40870   0.00000  Uiso   1.00
C292   C     0.26429   0.35504   0.38390   0.00000  Uiso   1.00
C293   C     0.30096   0.36025   0.46086   0.00000  Uiso   1.00
C294   C     0.13012   0.27533   0.36772   0.00000  Uiso   1.00
C295   C     0.11717   0.20941   0.30844   0.00000  Uiso   1.00
C296   C     0.08657   0.14803   0.35088   0.00000  Uiso   1.00
C297   C     0.12787   0.42316   0.35656   0.00000  Uiso   1.00
C298   C     0.11302   0.48153   0.28791   0.00000  Uiso   1.00
C299   C     0.08051   0.54459   0.32096   0.00000  Uiso   1.00
H300   H     0.11859   0.36079   0.59359   0.00000  Uiso   1.00
H301   H     0.21645   0.36756   0.65988   0.00000  Uiso   1.00
H302   H     0.06935   0.22197   0.58443   0.00000  Uiso   1.00
H303   H     0.06520   0.49404   0.56390   0.00000  Uiso   1.00
H304   H     0.33244   0.37308   0.69008   0.00000  Uiso   1.00
H305   H     0.02227   0.06609   0.53098   0.00000  Uiso   1.00
H306   H     0.01351   0.63981   0.48770   0.00000  Uiso   1.00
H307   H     0.17641   0.34564   0.25992   0.00000  Uiso   1.00
H308   H     0.27744   0.35158   0.30790   0.00000  Uiso   1.00
H309   H     0.13035   0.20598   0.23246   0.00000  Uiso   1.00
H310   H     0.12619   0.47806   0.21193   0.00000  Uiso   1.00
H311   H     0.38194   0.36011   0.40440   0.00000  Uiso   1.00
H312   H     0.07177   0.05312   0.24530   0.00000  Uiso   1.00
H313   H     0.06301   0.62684   0.20202   0.00000  Uiso   1.00
O314   O     0.42260   0.37075   0.58483   0.00000  Uiso   1.00
O315   O     0.01566   0.96801   0.37609   0.00000  Uiso   1.00
O316   O     0.00418   0.72071   0.31931   0.00000  Uiso   1.00
N317   N     0.33022   0.36923   0.61626   0.00000  Uiso   1.00
N318   N     0.04024   0.08221   0.46751   0.00000  Uiso   1.00
N319   N     0.03204   0.61857   0.42705   0.00000  Uiso   1.00
N320   N     0.35686   0.36225   0.46254   0.00000  Uiso   1.00
N321   N     0.06688   0.07523   0.31379   0.00000  Uiso   1.00
N322   N     0.05868   0.61159   0.27333   0.00000  Uiso   1.00
C323   C     0.36816   0.64268   0.01714   0.00000  Uiso   1.00
C324   C     0.30698   0.64109   0.00689   0.00000  Uiso   1.00
C325   C     0.27037   0.63588   0.08390   0.00000  Uiso   1.00
C326   C     0.21608   0.63528   0.05922   0.00000  Uiso   1.00
C327   C     0.12367   0.63218   0.05824   0.00000  Uiso   1.00
C328   C     0.38689   0.72021   0.96590   0.00000  Uiso   1.00
C329   C     0.41748   0.78151   0.00844   0.00000  Uiso   1.00
C330   C     0.43047   0.84750   0.94925   0.00000  Uiso   1.00
C331   C     0.46216   0.96720   0.88461   0.00000  Uiso   1.00
C332   C     0.38914   0.57238   0.95476   0.00000  Uiso   1.00
C333   C     0.42164   0.50939   0.98792   0.00000  Uiso   1.00
C334   C     0.43654   0.45094   0.91933   0.00000  Uiso   1.00
C335   C     0.47172   0.34111   0.83739   0.00000  Uiso   1.00
C336   C     0.33683   0.65089   0.83637   0.00000  Uiso   1.00
C337   C     0.28996   0.64555   0.90870   0.00000  Uiso   1.00
C338   C     0.23571   0.64496   0.88390   0.00000  Uiso   1.00
C339   C     0.19904   0.63975   0.96086   0.00000  Uiso   1.00
C340   C     0.36988   0.72467   0.86772   0.00000  Uiso   1.00
C341   C     0.38283   0.79059   0.80844   0.00000  Uiso   1.00
C342   C     0.41343   0.85197   0.85088   0.00000  Uiso   1.00
C343   C     0.37213   0.57684   0.85656   0.00000  Uiso   1.00
C344   C     0.38698   0.51847   0.78791   0.00000  Uiso   1.00
C345   C     0.41949   0.45541   0.82096   0.00000  Uiso   1.00
H346   H     0.38141   0.63921   0.09359   0.00000  Uiso   1.00
H347   H     0.28355   0.63244   0.15988   0.00000  Uiso   1.00
H348   H     0.43065   0.77803   0.08443   0.00000  Uiso   1.00
H349   H     0.43480   0.50596   0.06390   0.00000  Uiso   1.00
H350   H     0.16756   0.62692   0.19008   0.00000  Uiso   1.00
H351   H     0.47773   0.93391   0.03098   0.00000  Uiso   1.00
H352   H     0.48649   0.36019   0.98770   0.00000  Uiso   1.00
H353   H     0.32359   0.65436   0.75992   0.00000  Uiso   1.00
H354   H     0.22256   0.64842   0.80790   0.00000  Uiso   1.00
H355   H     0.36965   0.79402   0.73246   0.00000  Uiso   1.00
H356   H     0.37381   0.52194   0.71193   0.00000  Uiso   1.00
H357   H     0.11806   0.63989   0.90440   0.00000  Uiso   1.00
H358   H     0.42823   0.94688   0.74530   0.00000  Uiso   1.00
H359   H     0.43699   0.37316   0.70202   0.00000  Uiso   1.00
O360   O     0.07740   0.62925   0.08483   0.00000  Uiso   1.00
O361   O     0.48434   0.03199   0.87609   0.00000  Uiso   1.00
O362   O     0.49582   0.27929   0.81931   0.00000  Uiso   1.00
N363   N     0.16978   0.63077   0.11626   0.00000  Uiso   1.00
N364   N     0.45976   0.91779   0.96751   0.00000  Uiso   1.00
N365   N     0.46796   0.38143   0.92705   0.00000  Uiso   1.00
N366   N     0.14314   0.63775   0.96254   0.00000  Uiso   1.00
N367   N     0.43312   0.92477   0.81379   0.00000  Uiso   1.00
N368   N     0.44132   0.38841   0.77333   0.00000  Uiso   1.00
