data_job_02772
_audit_creation_date              2018-12-19
_audit_creation_method            'Materials Studio'
_symmetry_space_group_name_H-M    'P1'
_symmetry_Int_Tables_number       1
_symmetry_cell_setting            triclinic
loop_
_symmetry_equiv_pos_as_xyz
  x,y,z
_cell_length_a                    31.7205
_cell_length_b                    21.6371
_cell_length_c                    10.0489
_cell_angle_alpha                 90.0000
_cell_angle_beta                  81.7959
_cell_angle_gamma                 90.0000
loop_
_atom_site_label
_atom_site_type_symbol
_atom_site_fract_x
_atom_site_fract_y
_atom_site_fract_z
_atom_site_U_iso_or_equiv
_atom_site_adp_type
_atom_site_occupancy
C1     C     0.67982   0.13328   0.69070   0.00000  Uiso   1.00
C2     C     0.72273   0.10716   0.71489   0.00000  Uiso   1.00
C3     C     0.74819   0.13049   0.80449   0.00000  Uiso   1.00
C4     C     0.78631   0.10002   0.81185   0.00000  Uiso   1.00
C5     C     0.85109   0.06738   0.86145   0.00000  Uiso   1.00
C6     C     0.68400   0.14697   0.54052   0.00000  Uiso   1.00
C7     C     0.67689   0.20377   0.48354   0.00000  Uiso   1.00
C8     C     0.68240   0.20680   0.34412   0.00000  Uiso   1.00
C9     C     0.68703   0.23596   0.12302   0.00000  Uiso   1.00
C10    C     0.64809   0.08019   0.71643   0.00000  Uiso   1.00
C11    C     0.61078   0.08085   0.80732   0.00000  Uiso   1.00
C12    C     0.58605   0.02766   0.81597   0.00000  Uiso   1.00
C13    C     0.53492   0.95313   0.86799   0.00000  Uiso   1.00
C14    C     0.70222   0.03766   0.54443   0.00000  Uiso   1.00
C15    C     0.73490   0.05522   0.63543   0.00000  Uiso   1.00
C16    C     0.77298   0.02470   0.64266   0.00000  Uiso   1.00
C17    C     0.79850   0.04799   0.73227   0.00000  Uiso   1.00
C18    C     0.69617   0.09504   0.46108   0.00000  Uiso   1.00
C19    C     0.70168   0.09798   0.32171   0.00000  Uiso   1.00
C20    C     0.69459   0.15478   0.26453   0.00000  Uiso   1.00
C21    C     0.66026   0.02825   0.63698   0.00000  Uiso   1.00
C22    C     0.63558   0.97506   0.64549   0.00000  Uiso   1.00
C23    C     0.59824   0.97563   0.73638   0.00000  Uiso   1.00
H24    H     0.67034   0.17371   0.75254   0.00000  Uiso   1.00
H25    H     0.73877   0.17069   0.86595   0.00000  Uiso   1.00
H26    H     0.66747   0.24395   0.54504   0.00000  Uiso   1.00
H27    H     0.60138   0.12105   0.86878   0.00000  Uiso   1.00
H28    H     0.82000   0.14445   0.95661   0.00000  Uiso   1.00
H29    H     0.66966   0.29892   0.27997   0.00000  Uiso   1.00
H30    H     0.53028   0.03975   0.96262   0.00000  Uiso   1.00
H31    H     0.71170   0.99723   0.48257   0.00000  Uiso   1.00
H32    H     0.78239   0.98452   0.58117   0.00000  Uiso   1.00
H33    H     0.71110   0.05778   0.26026   0.00000  Uiso   1.00
H34    H     0.64500   0.93488   0.58400   0.00000  Uiso   1.00
H35    H     0.85541   0.99334   0.72547   0.00000  Uiso   1.00
H36    H     0.70507   0.14782   0.04883   0.00000  Uiso   1.00
H37    H     0.56569   0.88865   0.73148   0.00000  Uiso   1.00
O38    O     0.88347   0.06373   0.91074   0.00000  Uiso   1.00
O39    O     0.68622   0.26639   0.02302   0.00000  Uiso   1.00
O40    O     0.50336   0.92637   0.91864   0.00000  Uiso   1.00
N41    N     0.81863   0.11062   0.88870   0.00000  Uiso   1.00
N42    N     0.67808   0.25505   0.25608   0.00000  Uiso   1.00
N43    N     0.54776   0.01275   0.89428   0.00000  Uiso   1.00
N44    N     0.83768   0.02931   0.76433   0.00000  Uiso   1.00
N45    N     0.69713   0.17374   0.13171   0.00000  Uiso   1.00
N46    N     0.56682   0.93144   0.76990   0.00000  Uiso   1.00
C47    C     0.17982   0.63328   0.69070   0.00000  Uiso   1.00
C48    C     0.22273   0.60716   0.71489   0.00000  Uiso   1.00
C49    C     0.24819   0.63049   0.80449   0.00000  Uiso   1.00
C50    C     0.28631   0.60002   0.81185   0.00000  Uiso   1.00
C51    C     0.35109   0.56738   0.86145   0.00000  Uiso   1.00
C52    C     0.18400   0.64697   0.54052   0.00000  Uiso   1.00
C53    C     0.17689   0.70377   0.48354   0.00000  Uiso   1.00
C54    C     0.18240   0.70680   0.34412   0.00000  Uiso   1.00
C55    C     0.18703   0.73596   0.12302   0.00000  Uiso   1.00
C56    C     0.14809   0.58019   0.71643   0.00000  Uiso   1.00
C57    C     0.11078   0.58085   0.80732   0.00000  Uiso   1.00
C58    C     0.08605   0.52766   0.81597   0.00000  Uiso   1.00
C59    C     0.03492   0.45313   0.86799   0.00000  Uiso   1.00
C60    C     0.20222   0.53766   0.54443   0.00000  Uiso   1.00
C61    C     0.23490   0.55522   0.63543   0.00000  Uiso   1.00
C62    C     0.27298   0.52470   0.64266   0.00000  Uiso   1.00
C63    C     0.29850   0.54799   0.73227   0.00000  Uiso   1.00
C64    C     0.19617   0.59504   0.46108   0.00000  Uiso   1.00
C65    C     0.20168   0.59798   0.32171   0.00000  Uiso   1.00
C66    C     0.19459   0.65478   0.26453   0.00000  Uiso   1.00
C67    C     0.16026   0.52825   0.63698   0.00000  Uiso   1.00
C68    C     0.13558   0.47506   0.64549   0.00000  Uiso   1.00
C69    C     0.09824   0.47563   0.73638   0.00000  Uiso   1.00
H70    H     0.17034   0.67371   0.75254   0.00000  Uiso   1.00
H71    H     0.23877   0.67069   0.86595   0.00000  Uiso   1.00
H72    H     0.16747   0.74395   0.54504   0.00000  Uiso   1.00
H73    H     0.10138   0.62105   0.86878   0.00000  Uiso   1.00
H74    H     0.32000   0.64445   0.95661   0.00000  Uiso   1.00
H75    H     0.16966   0.79892   0.27997   0.00000  Uiso   1.00
H76    H     0.03028   0.53975   0.96262   0.00000  Uiso   1.00
H77    H     0.21170   0.49723   0.48257   0.00000  Uiso   1.00
H78    H     0.28239   0.48452   0.58117   0.00000  Uiso   1.00
H79    H     0.21110   0.55778   0.26026   0.00000  Uiso   1.00
H80    H     0.14500   0.43488   0.58400   0.00000  Uiso   1.00
H81    H     0.35541   0.49334   0.72547   0.00000  Uiso   1.00
H82    H     0.20507   0.64782   0.04883   0.00000  Uiso   1.00
H83    H     0.06569   0.38865   0.73148   0.00000  Uiso   1.00
O84    O     0.38347   0.56373   0.91074   0.00000  Uiso   1.00
O85    O     0.18622   0.76639   0.02302   0.00000  Uiso   1.00
O86    O     0.00336   0.42637   0.91864   0.00000  Uiso   1.00
N87    N     0.31863   0.61062   0.88870   0.00000  Uiso   1.00
N88    N     0.17808   0.75505   0.25608   0.00000  Uiso   1.00
N89    N     0.04776   0.51275   0.89428   0.00000  Uiso   1.00
N90    N     0.33768   0.52931   0.76433   0.00000  Uiso   1.00
N91    N     0.19713   0.67374   0.13171   0.00000  Uiso   1.00
N92    N     0.06682   0.43144   0.76990   0.00000  Uiso   1.00
C93    C     0.32018   0.13328   0.80930   0.00000  Uiso   1.00
C94    C     0.27727   0.10716   0.78511   0.00000  Uiso   1.00
C95    C     0.25181   0.13049   0.69551   0.00000  Uiso   1.00
C96    C     0.21369   0.10002   0.68815   0.00000  Uiso   1.00
C97    C     0.14891   0.06738   0.63855   0.00000  Uiso   1.00
C98    C     0.31600   0.14697   0.95948   0.00000  Uiso   1.00
C99    C     0.32311   0.20377   0.01646   0.00000  Uiso   1.00
C100   C     0.31760   0.20680   0.15588   0.00000  Uiso   1.00
C101   C     0.31297   0.23596   0.37698   0.00000  Uiso   1.00
C102   C     0.35191   0.08019   0.78357   0.00000  Uiso   1.00
C103   C     0.38922   0.08085   0.69268   0.00000  Uiso   1.00
C104   C     0.41395   0.02766   0.68403   0.00000  Uiso   1.00
C105   C     0.46508   0.95313   0.63201   0.00000  Uiso   1.00
C106   C     0.29778   0.03766   0.95557   0.00000  Uiso   1.00
C107   C     0.26510   0.05522   0.86457   0.00000  Uiso   1.00
C108   C     0.22702   0.02470   0.85734   0.00000  Uiso   1.00
C109   C     0.20150   0.04799   0.76773   0.00000  Uiso   1.00
C110   C     0.30383   0.09504   0.03892   0.00000  Uiso   1.00
C111   C     0.29832   0.09798   0.17829   0.00000  Uiso   1.00
C112   C     0.30541   0.15478   0.23547   0.00000  Uiso   1.00
C113   C     0.33974   0.02825   0.86302   0.00000  Uiso   1.00
C114   C     0.36442   0.97506   0.85451   0.00000  Uiso   1.00
C115   C     0.40176   0.97563   0.76362   0.00000  Uiso   1.00
H116   H     0.32966   0.17371   0.74746   0.00000  Uiso   1.00
H117   H     0.26123   0.17069   0.63405   0.00000  Uiso   1.00
H118   H     0.33253   0.24395   0.95496   0.00000  Uiso   1.00
H119   H     0.39862   0.12105   0.63122   0.00000  Uiso   1.00
H120   H     0.18000   0.14445   0.54339   0.00000  Uiso   1.00
H121   H     0.33034   0.29892   0.22003   0.00000  Uiso   1.00
H122   H     0.46972   0.03975   0.53738   0.00000  Uiso   1.00
H123   H     0.28830   0.99723   0.01743   0.00000  Uiso   1.00
H124   H     0.21761   0.98452   0.91883   0.00000  Uiso   1.00
H125   H     0.28890   0.05778   0.23974   0.00000  Uiso   1.00
H126   H     0.35500   0.93488   0.91600   0.00000  Uiso   1.00
H127   H     0.14459   0.99334   0.77453   0.00000  Uiso   1.00
H128   H     0.29493   0.14782   0.45117   0.00000  Uiso   1.00
H129   H     0.43431   0.88865   0.76852   0.00000  Uiso   1.00
O130   O     0.11653   0.06373   0.58926   0.00000  Uiso   1.00
O131   O     0.31378   0.26639   0.47698   0.00000  Uiso   1.00
O132   O     0.49664   0.92637   0.58136   0.00000  Uiso   1.00
N133   N     0.18137   0.11062   0.61130   0.00000  Uiso   1.00
N134   N     0.32192   0.25505   0.24392   0.00000  Uiso   1.00
N135   N     0.45224   0.01275   0.60572   0.00000  Uiso   1.00
N136   N     0.16232   0.02931   0.73567   0.00000  Uiso   1.00
N137   N     0.30287   0.17374   0.36829   0.00000  Uiso   1.00
N138   N     0.43318   0.93144   0.73010   0.00000  Uiso   1.00
C139   C     0.82018   0.63328   0.80930   0.00000  Uiso   1.00
C140   C     0.77727   0.60716   0.78511   0.00000  Uiso   1.00
C141   C     0.75181   0.63049   0.69551   0.00000  Uiso   1.00
C142   C     0.71369   0.60002   0.68815   0.00000  Uiso   1.00
C143   C     0.64891   0.56738   0.63855   0.00000  Uiso   1.00
C144   C     0.81600   0.64697   0.95948   0.00000  Uiso   1.00
C145   C     0.82311   0.70377   0.01646   0.00000  Uiso   1.00
C146   C     0.81760   0.70680   0.15588   0.00000  Uiso   1.00
C147   C     0.81297   0.73596   0.37698   0.00000  Uiso   1.00
C148   C     0.85191   0.58019   0.78357   0.00000  Uiso   1.00
C149   C     0.88922   0.58085   0.69268   0.00000  Uiso   1.00
C150   C     0.91395   0.52766   0.68403   0.00000  Uiso   1.00
C151   C     0.96508   0.45313   0.63201   0.00000  Uiso   1.00
C152   C     0.79778   0.53766   0.95557   0.00000  Uiso   1.00
C153   C     0.76510   0.55522   0.86457   0.00000  Uiso   1.00
C154   C     0.72702   0.52470   0.85734   0.00000  Uiso   1.00
C155   C     0.70150   0.54799   0.76773   0.00000  Uiso   1.00
C156   C     0.80383   0.59504   0.03892   0.00000  Uiso   1.00
C157   C     0.79832   0.59798   0.17829   0.00000  Uiso   1.00
C158   C     0.80541   0.65478   0.23547   0.00000  Uiso   1.00
C159   C     0.83974   0.52825   0.86302   0.00000  Uiso   1.00
C160   C     0.86442   0.47506   0.85451   0.00000  Uiso   1.00
C161   C     0.90176   0.47563   0.76362   0.00000  Uiso   1.00
H162   H     0.82966   0.67371   0.74746   0.00000  Uiso   1.00
H163   H     0.76123   0.67069   0.63405   0.00000  Uiso   1.00
H164   H     0.83253   0.74395   0.95496   0.00000  Uiso   1.00
H165   H     0.89862   0.62105   0.63122   0.00000  Uiso   1.00
H166   H     0.68000   0.64445   0.54339   0.00000  Uiso   1.00
H167   H     0.83034   0.79892   0.22003   0.00000  Uiso   1.00
H168   H     0.96972   0.53975   0.53738   0.00000  Uiso   1.00
H169   H     0.78830   0.49723   0.01743   0.00000  Uiso   1.00
H170   H     0.71761   0.48452   0.91883   0.00000  Uiso   1.00
H171   H     0.78890   0.55778   0.23974   0.00000  Uiso   1.00
H172   H     0.85500   0.43488   0.91600   0.00000  Uiso   1.00
H173   H     0.64459   0.49334   0.77453   0.00000  Uiso   1.00
H174   H     0.79493   0.64782   0.45117   0.00000  Uiso   1.00
H175   H     0.93431   0.38865   0.76852   0.00000  Uiso   1.00
O176   O     0.61653   0.56373   0.58926   0.00000  Uiso   1.00
O177   O     0.81378   0.76639   0.47698   0.00000  Uiso   1.00
O178   O     0.99664   0.42637   0.58136   0.00000  Uiso   1.00
N179   N     0.68137   0.61062   0.61130   0.00000  Uiso   1.00
N180   N     0.82192   0.75505   0.24392   0.00000  Uiso   1.00
N181   N     0.95224   0.51275   0.60572   0.00000  Uiso   1.00
N182   N     0.66232   0.52931   0.73567   0.00000  Uiso   1.00
N183   N     0.80287   0.67374   0.36829   0.00000  Uiso   1.00
N184   N     0.93318   0.43144   0.73010   0.00000  Uiso   1.00
C185   C     0.32018   0.86672   0.30930   0.00000  Uiso   1.00
C186   C     0.27727   0.89284   0.28511   0.00000  Uiso   1.00
C187   C     0.25181   0.86951   0.19551   0.00000  Uiso   1.00
C188   C     0.21369   0.89998   0.18815   0.00000  Uiso   1.00
C189   C     0.14891   0.93262   0.13855   0.00000  Uiso   1.00
C190   C     0.31600   0.85303   0.45948   0.00000  Uiso   1.00
C191   C     0.32311   0.79623   0.51646   0.00000  Uiso   1.00
C192   C     0.31760   0.79320   0.65588   0.00000  Uiso   1.00
C193   C     0.31297   0.76404   0.87698   0.00000  Uiso   1.00
C194   C     0.35191   0.91981   0.28357   0.00000  Uiso   1.00
C195   C     0.38922   0.91915   0.19268   0.00000  Uiso   1.00
C196   C     0.41395   0.97234   0.18403   0.00000  Uiso   1.00
C197   C     0.46508   0.04687   0.13201   0.00000  Uiso   1.00
C198   C     0.29778   0.96234   0.45557   0.00000  Uiso   1.00
C199   C     0.26510   0.94478   0.36457   0.00000  Uiso   1.00
C200   C     0.22702   0.97530   0.35734   0.00000  Uiso   1.00
C201   C     0.20150   0.95201   0.26773   0.00000  Uiso   1.00
C202   C     0.30383   0.90496   0.53892   0.00000  Uiso   1.00
C203   C     0.29832   0.90202   0.67829   0.00000  Uiso   1.00
C204   C     0.30541   0.84522   0.73547   0.00000  Uiso   1.00
C205   C     0.33974   0.97175   0.36302   0.00000  Uiso   1.00
C206   C     0.36442   0.02494   0.35451   0.00000  Uiso   1.00
C207   C     0.40176   0.02437   0.26362   0.00000  Uiso   1.00
H208   H     0.32966   0.82629   0.24746   0.00000  Uiso   1.00
H209   H     0.26123   0.82931   0.13405   0.00000  Uiso   1.00
H210   H     0.33253   0.75605   0.45496   0.00000  Uiso   1.00
H211   H     0.39862   0.87895   0.13122   0.00000  Uiso   1.00
H212   H     0.18000   0.85555   0.04339   0.00000  Uiso   1.00
H213   H     0.33034   0.70108   0.72003   0.00000  Uiso   1.00
H214   H     0.46972   0.96025   0.03738   0.00000  Uiso   1.00
H215   H     0.28830   0.00277   0.51743   0.00000  Uiso   1.00
H216   H     0.21761   0.01548   0.41883   0.00000  Uiso   1.00
H217   H     0.28890   0.94222   0.73974   0.00000  Uiso   1.00
H218   H     0.35500   0.06512   0.41600   0.00000  Uiso   1.00
H219   H     0.14459   0.00666   0.27453   0.00000  Uiso   1.00
H220   H     0.29493   0.85218   0.95117   0.00000  Uiso   1.00
H221   H     0.43431   0.11135   0.26852   0.00000  Uiso   1.00
O222   O     0.11653   0.93627   0.08926   0.00000  Uiso   1.00
O223   O     0.31378   0.73361   0.97698   0.00000  Uiso   1.00
O224   O     0.49664   0.07363   0.08136   0.00000  Uiso   1.00
N225   N     0.18137   0.88938   0.11130   0.00000  Uiso   1.00
N226   N     0.32192   0.74495   0.74392   0.00000  Uiso   1.00
N227   N     0.45224   0.98725   0.10572   0.00000  Uiso   1.00
N228   N     0.16232   0.97069   0.23567   0.00000  Uiso   1.00
N229   N     0.30287   0.82626   0.86829   0.00000  Uiso   1.00
N230   N     0.43318   0.06856   0.23010   0.00000  Uiso   1.00
C231   C     0.82018   0.36672   0.30930   0.00000  Uiso   1.00
C232   C     0.77727   0.39284   0.28511   0.00000  Uiso   1.00
C233   C     0.75181   0.36951   0.19551   0.00000  Uiso   1.00
C234   C     0.71369   0.39998   0.18815   0.00000  Uiso   1.00
C235   C     0.64891   0.43262   0.13855   0.00000  Uiso   1.00
C236   C     0.81600   0.35303   0.45948   0.00000  Uiso   1.00
C237   C     0.82311   0.29623   0.51646   0.00000  Uiso   1.00
C238   C     0.81760   0.29320   0.65588   0.00000  Uiso   1.00
C239   C     0.81297   0.26404   0.87698   0.00000  Uiso   1.00
C240   C     0.85191   0.41981   0.28357   0.00000  Uiso   1.00
C241   C     0.88922   0.41915   0.19268   0.00000  Uiso   1.00
C242   C     0.91395   0.47234   0.18403   0.00000  Uiso   1.00
C243   C     0.96508   0.54687   0.13201   0.00000  Uiso   1.00
C244   C     0.79778   0.46234   0.45557   0.00000  Uiso   1.00
C245   C     0.76510   0.44478   0.36457   0.00000  Uiso   1.00
C246   C     0.72702   0.47530   0.35734   0.00000  Uiso   1.00
C247   C     0.70150   0.45201   0.26773   0.00000  Uiso   1.00
C248   C     0.80383   0.40496   0.53892   0.00000  Uiso   1.00
C249   C     0.79832   0.40202   0.67829   0.00000  Uiso   1.00
C250   C     0.80541   0.34522   0.73547   0.00000  Uiso   1.00
C251   C     0.83974   0.47175   0.36302   0.00000  Uiso   1.00
C252   C     0.86442   0.52494   0.35451   0.00000  Uiso   1.00
C253   C     0.90176   0.52437   0.26362   0.00000  Uiso   1.00
H254   H     0.82966   0.32629   0.24746   0.00000  Uiso   1.00
H255   H     0.76123   0.32931   0.13405   0.00000  Uiso   1.00
H256   H     0.83253   0.25605   0.45496   0.00000  Uiso   1.00
H257   H     0.89862   0.37895   0.13122   0.00000  Uiso   1.00
H258   H     0.68000   0.35555   0.04339   0.00000  Uiso   1.00
H259   H     0.83034   0.20108   0.72003   0.00000  Uiso   1.00
H260   H     0.96972   0.46025   0.03738   0.00000  Uiso   1.00
H261   H     0.78830   0.50277   0.51743   0.00000  Uiso   1.00
H262   H     0.71761   0.51548   0.41883   0.00000  Uiso   1.00
H263   H     0.78890   0.44222   0.73974   0.00000  Uiso   1.00
H264   H     0.85500   0.56512   0.41600   0.00000  Uiso   1.00
H265   H     0.64459   0.50666   0.27453   0.00000  Uiso   1.00
H266   H     0.79493   0.35218   0.95117   0.00000  Uiso   1.00
H267   H     0.93431   0.61135   0.26852   0.00000  Uiso   1.00
O268   O     0.61653   0.43627   0.08926   0.00000  Uiso   1.00
O269   O     0.81378   0.23361   0.97698   0.00000  Uiso   1.00
O270   O     0.99664   0.57363   0.08136   0.00000  Uiso   1.00
N271   N     0.68137   0.38938   0.11130   0.00000  Uiso   1.00
N272   N     0.82192   0.24495   0.74392   0.00000  Uiso   1.00
N273   N     0.95224   0.48725   0.10572   0.00000  Uiso   1.00
N274   N     0.66232   0.47069   0.23567   0.00000  Uiso   1.00
N275   N     0.80287   0.32626   0.86829   0.00000  Uiso   1.00
N276   N     0.93318   0.56856   0.23010   0.00000  Uiso   1.00
C277   C     0.67982   0.86672   0.19070   0.00000  Uiso   1.00
C278   C     0.72273   0.89284   0.21489   0.00000  Uiso   1.00
C279   C     0.74819   0.86951   0.30449   0.00000  Uiso   1.00
C280   C     0.78631   0.89998   0.31185   0.00000  Uiso   1.00
C281   C     0.85109   0.93262   0.36145   0.00000  Uiso   1.00
C282   C     0.68400   0.85303   0.04052   0.00000  Uiso   1.00
C283   C     0.67689   0.79623   0.98354   0.00000  Uiso   1.00
C284   C     0.68240   0.79320   0.84412   0.00000  Uiso   1.00
C285   C     0.68703   0.76404   0.62302   0.00000  Uiso   1.00
C286   C     0.64809   0.91981   0.21643   0.00000  Uiso   1.00
C287   C     0.61078   0.91915   0.30732   0.00000  Uiso   1.00
C288   C     0.58605   0.97234   0.31597   0.00000  Uiso   1.00
C289   C     0.53492   0.04687   0.36799   0.00000  Uiso   1.00
C290   C     0.70222   0.96234   0.04443   0.00000  Uiso   1.00
C291   C     0.73490   0.94478   0.13543   0.00000  Uiso   1.00
C292   C     0.77298   0.97530   0.14266   0.00000  Uiso   1.00
C293   C     0.79850   0.95201   0.23227   0.00000  Uiso   1.00
C294   C     0.69617   0.90496   0.96108   0.00000  Uiso   1.00
C295   C     0.70168   0.90202   0.82171   0.00000  Uiso   1.00
C296   C     0.69459   0.84522   0.76453   0.00000  Uiso   1.00
C297   C     0.66026   0.97175   0.13698   0.00000  Uiso   1.00
C298   C     0.63558   0.02494   0.14549   0.00000  Uiso   1.00
C299   C     0.59824   0.02437   0.23638   0.00000  Uiso   1.00
H300   H     0.67034   0.82629   0.25254   0.00000  Uiso   1.00
H301   H     0.73877   0.82931   0.36595   0.00000  Uiso   1.00
H302   H     0.66747   0.75605   0.04504   0.00000  Uiso   1.00
H303   H     0.60138   0.87895   0.36878   0.00000  Uiso   1.00
H304   H     0.82000   0.85555   0.45661   0.00000  Uiso   1.00
H305   H     0.66966   0.70108   0.77997   0.00000  Uiso   1.00
H306   H     0.53028   0.96025   0.46262   0.00000  Uiso   1.00
H307   H     0.71170   0.00277   0.98257   0.00000  Uiso   1.00
H308   H     0.78239   0.01548   0.08117   0.00000  Uiso   1.00
H309   H     0.71110   0.94222   0.76026   0.00000  Uiso   1.00
H310   H     0.64500   0.06512   0.08400   0.00000  Uiso   1.00
H311   H     0.85541   0.00666   0.22547   0.00000  Uiso   1.00
H312   H     0.70507   0.85218   0.54883   0.00000  Uiso   1.00
H313   H     0.56569   0.11135   0.23148   0.00000  Uiso   1.00
O314   O     0.88347   0.93627   0.41074   0.00000  Uiso   1.00
O315   O     0.68622   0.73361   0.52302   0.00000  Uiso   1.00
O316   O     0.50336   0.07363   0.41864   0.00000  Uiso   1.00
N317   N     0.81863   0.88938   0.38870   0.00000  Uiso   1.00
N318   N     0.67808   0.74495   0.75608   0.00000  Uiso   1.00
N319   N     0.54776   0.98725   0.39428   0.00000  Uiso   1.00
N320   N     0.83768   0.97069   0.26433   0.00000  Uiso   1.00
N321   N     0.69713   0.82626   0.63171   0.00000  Uiso   1.00
N322   N     0.56682   0.06856   0.26990   0.00000  Uiso   1.00
C323   C     0.17982   0.36672   0.19070   0.00000  Uiso   1.00
C324   C     0.22273   0.39284   0.21489   0.00000  Uiso   1.00
C325   C     0.24819   0.36951   0.30449   0.00000  Uiso   1.00
C326   C     0.28631   0.39998   0.31185   0.00000  Uiso   1.00
C327   C     0.35109   0.43262   0.36145   0.00000  Uiso   1.00
C328   C     0.18400   0.35303   0.04052   0.00000  Uiso   1.00
C329   C     0.17689   0.29623   0.98354   0.00000  Uiso   1.00
C330   C     0.18240   0.29320   0.84412   0.00000  Uiso   1.00
C331   C     0.18703   0.26404   0.62302   0.00000  Uiso   1.00
C332   C     0.14809   0.41981   0.21643   0.00000  Uiso   1.00
C333   C     0.11078   0.41915   0.30732   0.00000  Uiso   1.00
C334   C     0.08605   0.47234   0.31597   0.00000  Uiso   1.00
C335   C     0.03492   0.54687   0.36799   0.00000  Uiso   1.00
C336   C     0.20222   0.46234   0.04443   0.00000  Uiso   1.00
C337   C     0.23490   0.44478   0.13543   0.00000  Uiso   1.00
C338   C     0.27298   0.47530   0.14266   0.00000  Uiso   1.00
C339   C     0.29850   0.45201   0.23227   0.00000  Uiso   1.00
C340   C     0.19617   0.40496   0.96108   0.00000  Uiso   1.00
C341   C     0.20168   0.40202   0.82171   0.00000  Uiso   1.00
C342   C     0.19459   0.34522   0.76453   0.00000  Uiso   1.00
C343   C     0.16026   0.47175   0.13698   0.00000  Uiso   1.00
C344   C     0.13558   0.52494   0.14549   0.00000  Uiso   1.00
C345   C     0.09824   0.52437   0.23638   0.00000  Uiso   1.00
H346   H     0.17034   0.32629   0.25254   0.00000  Uiso   1.00
H347   H     0.23877   0.32931   0.36595   0.00000  Uiso   1.00
H348   H     0.16747   0.25605   0.04504   0.00000  Uiso   1.00
H349   H     0.10138   0.37895   0.36878   0.00000  Uiso   1.00
H350   H     0.32000   0.35555   0.45661   0.00000  Uiso   1.00
H351   H     0.16966   0.20108   0.77997   0.00000  Uiso   1.00
H352   H     0.03028   0.46025   0.46262   0.00000  Uiso   1.00
H353   H     0.21170   0.50277   0.98257   0.00000  Uiso   1.00
H354   H     0.28239   0.51548   0.08117   0.00000  Uiso   1.00
H355   H     0.21110   0.44222   0.76026   0.00000  Uiso   1.00
H356   H     0.14500   0.56512   0.08400   0.00000  Uiso   1.00
H357   H     0.35541   0.50666   0.22547   0.00000  Uiso   1.00
H358   H     0.20507   0.35218   0.54883   0.00000  Uiso   1.00
H359   H     0.06569   0.61135   0.23148   0.00000  Uiso   1.00
O360   O     0.38347   0.43627   0.41074   0.00000  Uiso   1.00
O361   O     0.18622   0.23361   0.52302   0.00000  Uiso   1.00
O362   O     0.00336   0.57363   0.41864   0.00000  Uiso   1.00
N363   N     0.31863   0.38938   0.38870   0.00000  Uiso   1.00
N364   N     0.17808   0.24495   0.75608   0.00000  Uiso   1.00
N365   N     0.04776   0.48725   0.39428   0.00000  Uiso   1.00
N366   N     0.33768   0.47069   0.26433   0.00000  Uiso   1.00
N367   N     0.19713   0.32626   0.63171   0.00000  Uiso   1.00
N368   N     0.06682   0.56856   0.26990   0.00000  Uiso   1.00
