data_job_02693
_audit_creation_date              2018-12-19
_audit_creation_method            'Materials Studio'
_symmetry_space_group_name_H-M    'P1'
_symmetry_Int_Tables_number       1
_symmetry_cell_setting            triclinic
loop_
_symmetry_equiv_pos_as_xyz
  x,y,z
_cell_length_a                    20.8376
_cell_length_b                    13.8562
_cell_length_c                    37.9964
_cell_angle_alpha                 90.0000
_cell_angle_beta                  124.1792
_cell_angle_gamma                 90.0000
loop_
_atom_site_label
_atom_site_type_symbol
_atom_site_fract_x
_atom_site_fract_y
_atom_site_fract_z
_atom_site_U_iso_or_equiv
_atom_site_adp_type
_atom_site_occupancy
C1     C     0.52871   0.22979   0.17633   0.00000  Uiso   1.00
C2     C     0.56636   0.13362   0.17848   0.00000  Uiso   1.00
C3     C     0.63278   0.09564   0.21424   0.00000  Uiso   1.00
C4     C     0.65797   0.00665   0.20968   0.00000  Uiso   1.00
C5     C     0.72251   0.86483   0.21894   0.00000  Uiso   1.00
C6     C     0.52436   0.28719   0.14080   0.00000  Uiso   1.00
C7     C     0.55547   0.37832   0.14488   0.00000  Uiso   1.00
C8     C     0.54530   0.41861   0.10860   0.00000  Uiso   1.00
C9     C     0.54459   0.51523   0.05936   0.00000  Uiso   1.00
C10    C     0.44511   0.20655   0.16058   0.00000  Uiso   1.00
C11    C     0.40958   0.22990   0.18128   0.00000  Uiso   1.00
C12    C     0.33267   0.20231   0.16166   0.00000  Uiso   1.00
C13    C     0.20892   0.17373   0.14313   0.00000  Uiso   1.00
C14    C     0.45530   0.13929   0.10466   0.00000  Uiso   1.00
C15    C     0.52648   0.08447   0.13955   0.00000  Uiso   1.00
C16    C     0.55157   0.99552   0.13494   0.00000  Uiso   1.00
C17    C     0.61802   0.95741   0.17069   0.00000  Uiso   1.00
C18    C     0.48449   0.23804   0.10187   0.00000  Uiso   1.00
C19    C     0.47426   0.27820   0.06558   0.00000  Uiso   1.00
C20    C     0.50535   0.36937   0.06960   0.00000  Uiso   1.00
C21    C     0.40524   0.15739   0.12165   0.00000  Uiso   1.00
C22    C     0.32837   0.12977   0.10199   0.00000  Uiso   1.00
C23    C     0.29273   0.15307   0.12266   0.00000  Uiso   1.00
H24    H     0.55975   0.26806   0.20663   0.00000  Uiso   1.00
H25    H     0.66363   0.13371   0.24436   0.00000  Uiso   1.00
H26    H     0.58632   0.41635   0.17500   0.00000  Uiso   1.00
H27    H     0.44045   0.26794   0.21141   0.00000  Uiso   1.00
H28    H     0.76123   0.96309   0.26901   0.00000  Uiso   1.00
H29    H     0.59820   0.55906   0.12278   0.00000  Uiso   1.00
H30    H     0.29061   0.24613   0.19954   0.00000  Uiso   1.00
H31    H     0.42426   0.10103   0.07435   0.00000  Uiso   1.00
H32    H     0.52070   0.95750   0.10481   0.00000  Uiso   1.00
H33    H     0.44340   0.24014   0.03546   0.00000  Uiso   1.00
H34    H     0.29753   0.09174   0.07187   0.00000  Uiso   1.00
H35    H     0.64522   0.82007   0.15575   0.00000  Uiso   1.00
H36    H     0.48219   0.41605   0.00952   0.00000  Uiso   1.00
H37    H     0.17460   0.10311   0.08628   0.00000  Uiso   1.00
O38    O     0.76913   0.80019   0.23480   0.00000  Uiso   1.00
O39    O     0.55523   0.58210   0.04295   0.00000  Uiso   1.00
O40    O     0.15168   0.17152   0.14367   0.00000  Uiso   1.00
N41    N     0.72068   0.94912   0.23817   0.00000  Uiso   1.00
N42    N     0.56827   0.50631   0.10146   0.00000  Uiso   1.00
N43    N     0.28069   0.21376   0.17322   0.00000  Uiso   1.00
N44    N     0.65826   0.87216   0.17723   0.00000  Uiso   1.00
N45    N     0.50585   0.42936   0.04051   0.00000  Uiso   1.00
N46    N     0.21827   0.13681   0.11228   0.00000  Uiso   1.00
C47    C     0.02871   0.72979   0.17633   0.00000  Uiso   1.00
C48    C     0.06636   0.63362   0.17848   0.00000  Uiso   1.00
C49    C     0.13278   0.59564   0.21424   0.00000  Uiso   1.00
C50    C     0.15797   0.50665   0.20968   0.00000  Uiso   1.00
C51    C     0.22251   0.36483   0.21894   0.00000  Uiso   1.00
C52    C     0.02436   0.78719   0.14080   0.00000  Uiso   1.00
C53    C     0.05547   0.87832   0.14488   0.00000  Uiso   1.00
C54    C     0.04530   0.91861   0.10860   0.00000  Uiso   1.00
C55    C     0.04459   0.01523   0.05936   0.00000  Uiso   1.00
C56    C     0.94511   0.70655   0.16058   0.00000  Uiso   1.00
C57    C     0.90958   0.72990   0.18128   0.00000  Uiso   1.00
C58    C     0.83267   0.70231   0.16166   0.00000  Uiso   1.00
C59    C     0.70892   0.67373   0.14313   0.00000  Uiso   1.00
C60    C     0.95530   0.63929   0.10466   0.00000  Uiso   1.00
C61    C     0.02648   0.58447   0.13955   0.00000  Uiso   1.00
C62    C     0.05157   0.49552   0.13494   0.00000  Uiso   1.00
C63    C     0.11802   0.45741   0.17069   0.00000  Uiso   1.00
C64    C     0.98449   0.73804   0.10187   0.00000  Uiso   1.00
C65    C     0.97426   0.77820   0.06558   0.00000  Uiso   1.00
C66    C     0.00535   0.86937   0.06960   0.00000  Uiso   1.00
C67    C     0.90524   0.65739   0.12165   0.00000  Uiso   1.00
C68    C     0.82837   0.62977   0.10199   0.00000  Uiso   1.00
C69    C     0.79273   0.65307   0.12266   0.00000  Uiso   1.00
H70    H     0.05975   0.76806   0.20663   0.00000  Uiso   1.00
H71    H     0.16363   0.63371   0.24436   0.00000  Uiso   1.00
H72    H     0.08632   0.91635   0.17500   0.00000  Uiso   1.00
H73    H     0.94045   0.76794   0.21141   0.00000  Uiso   1.00
H74    H     0.26123   0.46309   0.26901   0.00000  Uiso   1.00
H75    H     0.09820   0.05906   0.12278   0.00000  Uiso   1.00
H76    H     0.79061   0.74613   0.19954   0.00000  Uiso   1.00
H77    H     0.92426   0.60103   0.07435   0.00000  Uiso   1.00
H78    H     0.02070   0.45750   0.10481   0.00000  Uiso   1.00
H79    H     0.94340   0.74014   0.03546   0.00000  Uiso   1.00
H80    H     0.79753   0.59174   0.07187   0.00000  Uiso   1.00
H81    H     0.14522   0.32007   0.15575   0.00000  Uiso   1.00
H82    H     0.98219   0.91605   0.00952   0.00000  Uiso   1.00
H83    H     0.67460   0.60311   0.08628   0.00000  Uiso   1.00
O84    O     0.26913   0.30019   0.23480   0.00000  Uiso   1.00
O85    O     0.05523   0.08210   0.04295   0.00000  Uiso   1.00
O86    O     0.65168   0.67152   0.14367   0.00000  Uiso   1.00
N87    N     0.22068   0.44912   0.23817   0.00000  Uiso   1.00
N88    N     0.06827   0.00631   0.10146   0.00000  Uiso   1.00
N89    N     0.78069   0.71376   0.17322   0.00000  Uiso   1.00
N90    N     0.15826   0.37216   0.17723   0.00000  Uiso   1.00
N91    N     0.00585   0.92936   0.04051   0.00000  Uiso   1.00
N92    N     0.71827   0.63681   0.11228   0.00000  Uiso   1.00
C93    C     0.47129   0.22979   0.32367   0.00000  Uiso   1.00
C94    C     0.43364   0.13362   0.32152   0.00000  Uiso   1.00
C95    C     0.36722   0.09564   0.28576   0.00000  Uiso   1.00
C96    C     0.34203   0.00665   0.29032   0.00000  Uiso   1.00
C97    C     0.27749   0.86483   0.28106   0.00000  Uiso   1.00
C98    C     0.47564   0.28719   0.35920   0.00000  Uiso   1.00
C99    C     0.44453   0.37832   0.35512   0.00000  Uiso   1.00
C100   C     0.45470   0.41861   0.39140   0.00000  Uiso   1.00
C101   C     0.45541   0.51523   0.44064   0.00000  Uiso   1.00
C102   C     0.55489   0.20655   0.33942   0.00000  Uiso   1.00
C103   C     0.59042   0.22990   0.31872   0.00000  Uiso   1.00
C104   C     0.66733   0.20231   0.33834   0.00000  Uiso   1.00
C105   C     0.79108   0.17373   0.35687   0.00000  Uiso   1.00
C106   C     0.54470   0.13929   0.39534   0.00000  Uiso   1.00
C107   C     0.47352   0.08447   0.36045   0.00000  Uiso   1.00
C108   C     0.44843   0.99552   0.36506   0.00000  Uiso   1.00
C109   C     0.38198   0.95741   0.32931   0.00000  Uiso   1.00
C110   C     0.51551   0.23804   0.39813   0.00000  Uiso   1.00
C111   C     0.52574   0.27820   0.43442   0.00000  Uiso   1.00
C112   C     0.49465   0.36937   0.43040   0.00000  Uiso   1.00
C113   C     0.59476   0.15739   0.37835   0.00000  Uiso   1.00
C114   C     0.67163   0.12977   0.39801   0.00000  Uiso   1.00
C115   C     0.70727   0.15307   0.37734   0.00000  Uiso   1.00
H116   H     0.44025   0.26806   0.29337   0.00000  Uiso   1.00
H117   H     0.33637   0.13371   0.25564   0.00000  Uiso   1.00
H118   H     0.41368   0.41635   0.32500   0.00000  Uiso   1.00
H119   H     0.55955   0.26794   0.28859   0.00000  Uiso   1.00
H120   H     0.23877   0.96309   0.23099   0.00000  Uiso   1.00
H121   H     0.40180   0.55906   0.37722   0.00000  Uiso   1.00
H122   H     0.70939   0.24613   0.30046   0.00000  Uiso   1.00
H123   H     0.57574   0.10103   0.42565   0.00000  Uiso   1.00
H124   H     0.47930   0.95750   0.39519   0.00000  Uiso   1.00
H125   H     0.55660   0.24014   0.46454   0.00000  Uiso   1.00
H126   H     0.70247   0.09174   0.42813   0.00000  Uiso   1.00
H127   H     0.35478   0.82007   0.34425   0.00000  Uiso   1.00
H128   H     0.51781   0.41605   0.49048   0.00000  Uiso   1.00
H129   H     0.82540   0.10311   0.41372   0.00000  Uiso   1.00
O130   O     0.23087   0.80019   0.26520   0.00000  Uiso   1.00
O131   O     0.44477   0.58210   0.45705   0.00000  Uiso   1.00
O132   O     0.84832   0.17152   0.35633   0.00000  Uiso   1.00
N133   N     0.27932   0.94912   0.26183   0.00000  Uiso   1.00
N134   N     0.43173   0.50631   0.39854   0.00000  Uiso   1.00
N135   N     0.71931   0.21376   0.32678   0.00000  Uiso   1.00
N136   N     0.34174   0.87216   0.32277   0.00000  Uiso   1.00
N137   N     0.49415   0.42936   0.45949   0.00000  Uiso   1.00
N138   N     0.78173   0.13681   0.38772   0.00000  Uiso   1.00
C139   C     0.97129   0.72979   0.32367   0.00000  Uiso   1.00
C140   C     0.93364   0.63362   0.32152   0.00000  Uiso   1.00
C141   C     0.86722   0.59564   0.28576   0.00000  Uiso   1.00
C142   C     0.84203   0.50665   0.29032   0.00000  Uiso   1.00
C143   C     0.77749   0.36483   0.28106   0.00000  Uiso   1.00
C144   C     0.97564   0.78719   0.35920   0.00000  Uiso   1.00
C145   C     0.94453   0.87832   0.35512   0.00000  Uiso   1.00
C146   C     0.95470   0.91861   0.39140   0.00000  Uiso   1.00
C147   C     0.95541   0.01523   0.44064   0.00000  Uiso   1.00
C148   C     0.05489   0.70655   0.33942   0.00000  Uiso   1.00
C149   C     0.09042   0.72990   0.31872   0.00000  Uiso   1.00
C150   C     0.16733   0.70231   0.33834   0.00000  Uiso   1.00
C151   C     0.29108   0.67373   0.35687   0.00000  Uiso   1.00
C152   C     0.04470   0.63929   0.39534   0.00000  Uiso   1.00
C153   C     0.97352   0.58447   0.36045   0.00000  Uiso   1.00
C154   C     0.94843   0.49552   0.36506   0.00000  Uiso   1.00
C155   C     0.88198   0.45741   0.32931   0.00000  Uiso   1.00
C156   C     0.01551   0.73804   0.39813   0.00000  Uiso   1.00
C157   C     0.02574   0.77820   0.43442   0.00000  Uiso   1.00
C158   C     0.99465   0.86937   0.43040   0.00000  Uiso   1.00
C159   C     0.09476   0.65739   0.37835   0.00000  Uiso   1.00
C160   C     0.17163   0.62977   0.39801   0.00000  Uiso   1.00
C161   C     0.20727   0.65307   0.37734   0.00000  Uiso   1.00
H162   H     0.94025   0.76806   0.29337   0.00000  Uiso   1.00
H163   H     0.83637   0.63371   0.25564   0.00000  Uiso   1.00
H164   H     0.91368   0.91635   0.32500   0.00000  Uiso   1.00
H165   H     0.05955   0.76794   0.28859   0.00000  Uiso   1.00
H166   H     0.73877   0.46309   0.23099   0.00000  Uiso   1.00
H167   H     0.90180   0.05906   0.37722   0.00000  Uiso   1.00
H168   H     0.20939   0.74613   0.30046   0.00000  Uiso   1.00
H169   H     0.07574   0.60103   0.42565   0.00000  Uiso   1.00
H170   H     0.97930   0.45750   0.39519   0.00000  Uiso   1.00
H171   H     0.05660   0.74014   0.46454   0.00000  Uiso   1.00
H172   H     0.20247   0.59174   0.42813   0.00000  Uiso   1.00
H173   H     0.85478   0.32007   0.34425   0.00000  Uiso   1.00
H174   H     0.01781   0.91605   0.49048   0.00000  Uiso   1.00
H175   H     0.32540   0.60311   0.41372   0.00000  Uiso   1.00
O176   O     0.73087   0.30019   0.26520   0.00000  Uiso   1.00
O177   O     0.94477   0.08210   0.45705   0.00000  Uiso   1.00
O178   O     0.34832   0.67152   0.35633   0.00000  Uiso   1.00
N179   N     0.77932   0.44912   0.26183   0.00000  Uiso   1.00
N180   N     0.93173   0.00631   0.39854   0.00000  Uiso   1.00
N181   N     0.21931   0.71376   0.32678   0.00000  Uiso   1.00
N182   N     0.84174   0.37216   0.32277   0.00000  Uiso   1.00
N183   N     0.99415   0.92936   0.45949   0.00000  Uiso   1.00
N184   N     0.28173   0.63681   0.38772   0.00000  Uiso   1.00
C185   C     0.47129   0.77021   0.82367   0.00000  Uiso   1.00
C186   C     0.43364   0.86638   0.82152   0.00000  Uiso   1.00
C187   C     0.36722   0.90436   0.78576   0.00000  Uiso   1.00
C188   C     0.34203   0.99335   0.79032   0.00000  Uiso   1.00
C189   C     0.27749   0.13517   0.78106   0.00000  Uiso   1.00
C190   C     0.47564   0.71281   0.85920   0.00000  Uiso   1.00
C191   C     0.44453   0.62168   0.85512   0.00000  Uiso   1.00
C192   C     0.45470   0.58139   0.89140   0.00000  Uiso   1.00
C193   C     0.45541   0.48477   0.94064   0.00000  Uiso   1.00
C194   C     0.55489   0.79345   0.83942   0.00000  Uiso   1.00
C195   C     0.59042   0.77010   0.81872   0.00000  Uiso   1.00
C196   C     0.66733   0.79769   0.83834   0.00000  Uiso   1.00
C197   C     0.79108   0.82627   0.85687   0.00000  Uiso   1.00
C198   C     0.54470   0.86071   0.89534   0.00000  Uiso   1.00
C199   C     0.47352   0.91553   0.86045   0.00000  Uiso   1.00
C200   C     0.44843   0.00448   0.86506   0.00000  Uiso   1.00
C201   C     0.38198   0.04259   0.82931   0.00000  Uiso   1.00
C202   C     0.51551   0.76196   0.89813   0.00000  Uiso   1.00
C203   C     0.52574   0.72180   0.93442   0.00000  Uiso   1.00
C204   C     0.49465   0.63063   0.93040   0.00000  Uiso   1.00
C205   C     0.59476   0.84261   0.87835   0.00000  Uiso   1.00
C206   C     0.67163   0.87023   0.89801   0.00000  Uiso   1.00
C207   C     0.70727   0.84693   0.87734   0.00000  Uiso   1.00
H208   H     0.44025   0.73194   0.79337   0.00000  Uiso   1.00
H209   H     0.33637   0.86629   0.75564   0.00000  Uiso   1.00
H210   H     0.41368   0.58365   0.82500   0.00000  Uiso   1.00
H211   H     0.55955   0.73206   0.78859   0.00000  Uiso   1.00
H212   H     0.23877   0.03691   0.73099   0.00000  Uiso   1.00
H213   H     0.40180   0.44094   0.87722   0.00000  Uiso   1.00
H214   H     0.70939   0.75387   0.80046   0.00000  Uiso   1.00
H215   H     0.57574   0.89897   0.92565   0.00000  Uiso   1.00
H216   H     0.47930   0.04250   0.89519   0.00000  Uiso   1.00
H217   H     0.55660   0.75986   0.96454   0.00000  Uiso   1.00
H218   H     0.70247   0.90826   0.92813   0.00000  Uiso   1.00
H219   H     0.35478   0.17993   0.84425   0.00000  Uiso   1.00
H220   H     0.51781   0.58395   0.99048   0.00000  Uiso   1.00
H221   H     0.82540   0.89689   0.91372   0.00000  Uiso   1.00
O222   O     0.23087   0.19981   0.76520   0.00000  Uiso   1.00
O223   O     0.44477   0.41790   0.95705   0.00000  Uiso   1.00
O224   O     0.84832   0.82848   0.85633   0.00000  Uiso   1.00
N225   N     0.27932   0.05088   0.76183   0.00000  Uiso   1.00
N226   N     0.43173   0.49369   0.89854   0.00000  Uiso   1.00
N227   N     0.71931   0.78624   0.82678   0.00000  Uiso   1.00
N228   N     0.34174   0.12784   0.82277   0.00000  Uiso   1.00
N229   N     0.49415   0.57064   0.95949   0.00000  Uiso   1.00
N230   N     0.78173   0.86319   0.88772   0.00000  Uiso   1.00
C231   C     0.97129   0.27021   0.82367   0.00000  Uiso   1.00
C232   C     0.93364   0.36638   0.82152   0.00000  Uiso   1.00
C233   C     0.86722   0.40436   0.78576   0.00000  Uiso   1.00
C234   C     0.84203   0.49335   0.79032   0.00000  Uiso   1.00
C235   C     0.77749   0.63517   0.78106   0.00000  Uiso   1.00
C236   C     0.97564   0.21281   0.85920   0.00000  Uiso   1.00
C237   C     0.94453   0.12168   0.85512   0.00000  Uiso   1.00
C238   C     0.95470   0.08139   0.89140   0.00000  Uiso   1.00
C239   C     0.95541   0.98477   0.94064   0.00000  Uiso   1.00
C240   C     0.05489   0.29345   0.83942   0.00000  Uiso   1.00
C241   C     0.09042   0.27010   0.81872   0.00000  Uiso   1.00
C242   C     0.16733   0.29769   0.83834   0.00000  Uiso   1.00
C243   C     0.29108   0.32627   0.85687   0.00000  Uiso   1.00
C244   C     0.04470   0.36071   0.89534   0.00000  Uiso   1.00
C245   C     0.97352   0.41553   0.86045   0.00000  Uiso   1.00
C246   C     0.94843   0.50448   0.86506   0.00000  Uiso   1.00
C247   C     0.88198   0.54259   0.82931   0.00000  Uiso   1.00
C248   C     0.01551   0.26196   0.89813   0.00000  Uiso   1.00
C249   C     0.02574   0.22180   0.93442   0.00000  Uiso   1.00
C250   C     0.99465   0.13063   0.93040   0.00000  Uiso   1.00
C251   C     0.09476   0.34261   0.87835   0.00000  Uiso   1.00
C252   C     0.17163   0.37023   0.89801   0.00000  Uiso   1.00
C253   C     0.20727   0.34693   0.87734   0.00000  Uiso   1.00
H254   H     0.94025   0.23194   0.79337   0.00000  Uiso   1.00
H255   H     0.83637   0.36629   0.75564   0.00000  Uiso   1.00
H256   H     0.91368   0.08365   0.82500   0.00000  Uiso   1.00
H257   H     0.05955   0.23206   0.78859   0.00000  Uiso   1.00
H258   H     0.73877   0.53691   0.73099   0.00000  Uiso   1.00
H259   H     0.90180   0.94094   0.87722   0.00000  Uiso   1.00
H260   H     0.20939   0.25387   0.80046   0.00000  Uiso   1.00
H261   H     0.07574   0.39897   0.92565   0.00000  Uiso   1.00
H262   H     0.97930   0.54250   0.89519   0.00000  Uiso   1.00
H263   H     0.05660   0.25986   0.96454   0.00000  Uiso   1.00
H264   H     0.20247   0.40826   0.92813   0.00000  Uiso   1.00
H265   H     0.85478   0.67993   0.84425   0.00000  Uiso   1.00
H266   H     0.01781   0.08395   0.99048   0.00000  Uiso   1.00
H267   H     0.32540   0.39689   0.91372   0.00000  Uiso   1.00
O268   O     0.73087   0.69981   0.76520   0.00000  Uiso   1.00
O269   O     0.94477   0.91790   0.95705   0.00000  Uiso   1.00
O270   O     0.34832   0.32848   0.85633   0.00000  Uiso   1.00
N271   N     0.77932   0.55088   0.76183   0.00000  Uiso   1.00
N272   N     0.93173   0.99369   0.89854   0.00000  Uiso   1.00
N273   N     0.21931   0.28624   0.82678   0.00000  Uiso   1.00
N274   N     0.84174   0.62784   0.82277   0.00000  Uiso   1.00
N275   N     0.99415   0.07064   0.95949   0.00000  Uiso   1.00
N276   N     0.28173   0.36319   0.88772   0.00000  Uiso   1.00
C277   C     0.52871   0.77021   0.67633   0.00000  Uiso   1.00
C278   C     0.56636   0.86638   0.67848   0.00000  Uiso   1.00
C279   C     0.63278   0.90436   0.71424   0.00000  Uiso   1.00
C280   C     0.65797   0.99335   0.70968   0.00000  Uiso   1.00
C281   C     0.72251   0.13517   0.71894   0.00000  Uiso   1.00
C282   C     0.52436   0.71281   0.64080   0.00000  Uiso   1.00
C283   C     0.55547   0.62168   0.64488   0.00000  Uiso   1.00
C284   C     0.54530   0.58139   0.60860   0.00000  Uiso   1.00
C285   C     0.54459   0.48477   0.55936   0.00000  Uiso   1.00
C286   C     0.44511   0.79345   0.66058   0.00000  Uiso   1.00
C287   C     0.40958   0.77010   0.68128   0.00000  Uiso   1.00
C288   C     0.33267   0.79769   0.66166   0.00000  Uiso   1.00
C289   C     0.20892   0.82627   0.64313   0.00000  Uiso   1.00
C290   C     0.45530   0.86071   0.60466   0.00000  Uiso   1.00
C291   C     0.52648   0.91553   0.63955   0.00000  Uiso   1.00
C292   C     0.55157   0.00448   0.63494   0.00000  Uiso   1.00
C293   C     0.61802   0.04259   0.67069   0.00000  Uiso   1.00
C294   C     0.48449   0.76196   0.60187   0.00000  Uiso   1.00
C295   C     0.47426   0.72180   0.56558   0.00000  Uiso   1.00
C296   C     0.50535   0.63063   0.56960   0.00000  Uiso   1.00
C297   C     0.40524   0.84261   0.62165   0.00000  Uiso   1.00
C298   C     0.32837   0.87023   0.60199   0.00000  Uiso   1.00
C299   C     0.29273   0.84693   0.62266   0.00000  Uiso   1.00
H300   H     0.55975   0.73194   0.70663   0.00000  Uiso   1.00
H301   H     0.66363   0.86629   0.74436   0.00000  Uiso   1.00
H302   H     0.58632   0.58365   0.67500   0.00000  Uiso   1.00
H303   H     0.44045   0.73206   0.71141   0.00000  Uiso   1.00
H304   H     0.76123   0.03691   0.76901   0.00000  Uiso   1.00
H305   H     0.59820   0.44094   0.62278   0.00000  Uiso   1.00
H306   H     0.29061   0.75387   0.69954   0.00000  Uiso   1.00
H307   H     0.42426   0.89897   0.57435   0.00000  Uiso   1.00
H308   H     0.52070   0.04250   0.60481   0.00000  Uiso   1.00
H309   H     0.44340   0.75986   0.53546   0.00000  Uiso   1.00
H310   H     0.29753   0.90826   0.57187   0.00000  Uiso   1.00
H311   H     0.64522   0.17993   0.65575   0.00000  Uiso   1.00
H312   H     0.48219   0.58395   0.50952   0.00000  Uiso   1.00
H313   H     0.17460   0.89689   0.58628   0.00000  Uiso   1.00
O314   O     0.76913   0.19981   0.73480   0.00000  Uiso   1.00
O315   O     0.55523   0.41790   0.54295   0.00000  Uiso   1.00
O316   O     0.15168   0.82848   0.64367   0.00000  Uiso   1.00
N317   N     0.72068   0.05088   0.73817   0.00000  Uiso   1.00
N318   N     0.56827   0.49369   0.60146   0.00000  Uiso   1.00
N319   N     0.28069   0.78624   0.67322   0.00000  Uiso   1.00
N320   N     0.65826   0.12784   0.67723   0.00000  Uiso   1.00
N321   N     0.50585   0.57064   0.54051   0.00000  Uiso   1.00
N322   N     0.21827   0.86319   0.61228   0.00000  Uiso   1.00
C323   C     0.02871   0.27021   0.67633   0.00000  Uiso   1.00
C324   C     0.06636   0.36638   0.67848   0.00000  Uiso   1.00
C325   C     0.13278   0.40436   0.71424   0.00000  Uiso   1.00
C326   C     0.15797   0.49335   0.70968   0.00000  Uiso   1.00
C327   C     0.22251   0.63517   0.71894   0.00000  Uiso   1.00
C328   C     0.02436   0.21281   0.64080   0.00000  Uiso   1.00
C329   C     0.05547   0.12168   0.64488   0.00000  Uiso   1.00
C330   C     0.04530   0.08139   0.60860   0.00000  Uiso   1.00
C331   C     0.04459   0.98477   0.55936   0.00000  Uiso   1.00
C332   C     0.94511   0.29345   0.66058   0.00000  Uiso   1.00
C333   C     0.90958   0.27010   0.68128   0.00000  Uiso   1.00
C334   C     0.83267   0.29769   0.66166   0.00000  Uiso   1.00
C335   C     0.70892   0.32627   0.64313   0.00000  Uiso   1.00
C336   C     0.95530   0.36071   0.60466   0.00000  Uiso   1.00
C337   C     0.02648   0.41553   0.63955   0.00000  Uiso   1.00
C338   C     0.05157   0.50448   0.63494   0.00000  Uiso   1.00
C339   C     0.11802   0.54259   0.67069   0.00000  Uiso   1.00
C340   C     0.98449   0.26196   0.60187   0.00000  Uiso   1.00
C341   C     0.97426   0.22180   0.56558   0.00000  Uiso   1.00
C342   C     0.00535   0.13063   0.56960   0.00000  Uiso   1.00
C343   C     0.90524   0.34261   0.62165   0.00000  Uiso   1.00
C344   C     0.82837   0.37023   0.60199   0.00000  Uiso   1.00
C345   C     0.79273   0.34693   0.62266   0.00000  Uiso   1.00
H346   H     0.05975   0.23194   0.70663   0.00000  Uiso   1.00
H347   H     0.16363   0.36629   0.74436   0.00000  Uiso   1.00
H348   H     0.08632   0.08365   0.67500   0.00000  Uiso   1.00
H349   H     0.94045   0.23206   0.71141   0.00000  Uiso   1.00
H350   H     0.26123   0.53691   0.76901   0.00000  Uiso   1.00
H351   H     0.09820   0.94094   0.62278   0.00000  Uiso   1.00
H352   H     0.79061   0.25387   0.69954   0.00000  Uiso   1.00
H353   H     0.92426   0.39897   0.57435   0.00000  Uiso   1.00
H354   H     0.02070   0.54250   0.60481   0.00000  Uiso   1.00
H355   H     0.94340   0.25986   0.53546   0.00000  Uiso   1.00
H356   H     0.79753   0.40826   0.57187   0.00000  Uiso   1.00
H357   H     0.14522   0.67993   0.65575   0.00000  Uiso   1.00
H358   H     0.98219   0.08395   0.50952   0.00000  Uiso   1.00
H359   H     0.67460   0.39689   0.58628   0.00000  Uiso   1.00
O360   O     0.26913   0.69981   0.73480   0.00000  Uiso   1.00
O361   O     0.05523   0.91790   0.54295   0.00000  Uiso   1.00
O362   O     0.65168   0.32848   0.64367   0.00000  Uiso   1.00
N363   N     0.22068   0.55088   0.73817   0.00000  Uiso   1.00
N364   N     0.06827   0.99369   0.60146   0.00000  Uiso   1.00
N365   N     0.78069   0.28624   0.67322   0.00000  Uiso   1.00
N366   N     0.15826   0.62784   0.67723   0.00000  Uiso   1.00
N367   N     0.00585   0.07064   0.54051   0.00000  Uiso   1.00
N368   N     0.71827   0.36319   0.61228   0.00000  Uiso   1.00
