data_job_05059
_audit_creation_date              2018-12-19
_audit_creation_method            'Materials Studio'
_symmetry_space_group_name_H-M    'P1'
_symmetry_Int_Tables_number       1
_symmetry_cell_setting            triclinic
loop_
_symmetry_equiv_pos_as_xyz
  x,y,z
_cell_length_a                    13.2384
_cell_length_b                    13.2384
_cell_length_c                    12.6263
_cell_angle_alpha                 90.0000
_cell_angle_beta                  90.0000
_cell_angle_gamma                 90.0000
loop_
_atom_site_label
_atom_site_type_symbol
_atom_site_fract_x
_atom_site_fract_y
_atom_site_fract_z
_atom_site_U_iso_or_equiv
_atom_site_adp_type
_atom_site_occupancy
C1     C     0.79714   0.82351   0.95088   0.00000  Uiso   1.00
C2     C     0.70596   0.85803   0.88656   0.00000  Uiso   1.00
C3     C     0.65259   0.94708   0.90173   0.00000  Uiso   1.00
C4     C     0.57145   0.96487   0.83461   0.00000  Uiso   1.00
C5     C     0.43390   0.02891   0.74685   0.00000  Uiso   1.00
C6     C     0.76990   0.71971   0.99475   0.00000  Uiso   1.00
C7     C     0.77029   0.69247   0.10089   0.00000  Uiso   1.00
C8     C     0.74298   0.59382   0.12484   0.00000  Uiso   1.00
C9     C     0.70476   0.44309   0.20504   0.00000  Uiso   1.00
C10    C     0.88186   0.80593   0.87116   0.00000  Uiso   1.00
C11    C     0.97641   0.85117   0.87339   0.00000  Uiso   1.00
C12    C     0.04337   0.82509   0.79330   0.00000  Uiso   1.00
C13    C     0.17900   0.80824   0.68160   0.00000  Uiso   1.00
C14    C     0.74796   0.69675   0.80468   0.00000  Uiso   1.00
C15    C     0.67925   0.78917   0.80715   0.00000  Uiso   1.00
C16    C     0.59817   0.80683   0.73998   0.00000  Uiso   1.00
C17    C     0.54469   0.89590   0.75506   0.00000  Uiso   1.00
C18    C     0.74318   0.65086   0.91535   0.00000  Uiso   1.00
C19    C     0.71587   0.55222   0.93914   0.00000  Uiso   1.00
C20    C     0.71622   0.52484   0.04529   0.00000  Uiso   1.00
C21    C     0.85515   0.73708   0.79175   0.00000  Uiso   1.00
C22    C     0.92198   0.71092   0.71164   0.00000  Uiso   1.00
C23    C     0.01661   0.75611   0.71375   0.00000  Uiso   1.00
H24    H     0.81794   0.87711   0.01271   0.00000  Uiso   1.00
H25    H     0.67328   0.00034   0.96320   0.00000  Uiso   1.00
H26    H     0.79098   0.74576   0.16232   0.00000  Uiso   1.00
H27    H     0.99705   0.90444   0.93486   0.00000  Uiso   1.00
H28    H     0.50109   0.10658   0.87332   0.00000  Uiso   1.00
H29    H     0.74929   0.56978   0.29318   0.00000  Uiso   1.00
H30    H     0.18385   0.90438   0.81352   0.00000  Uiso   1.00
H31    H     0.72716   0.64314   0.74286   0.00000  Uiso   1.00
H32    H     0.57751   0.75353   0.67854   0.00000  Uiso   1.00
H33    H     0.69521   0.49896   0.87767   0.00000  Uiso   1.00
H34    H     0.90129   0.65764   0.65020   0.00000  Uiso   1.00
H35    H     0.42336   0.90626   0.64228   0.00000  Uiso   1.00
H36    H     0.67157   0.36946   0.06214   0.00000  Uiso   1.00
H37    H     0.10612   0.70406   0.58249   0.00000  Uiso   1.00
O38    O     0.36540   0.08324   0.72038   0.00000  Uiso   1.00
O39    O     0.69105   0.37898   0.27122   0.00000  Uiso   1.00
O40    O     0.26118   0.81798   0.64192   0.00000  Uiso   1.00
N41    N     0.50335   0.04429   0.82776   0.00000  Uiso   1.00
N42    N     0.73538   0.54243   0.22030   0.00000  Uiso   1.00
N43    N     0.14167   0.85523   0.77188   0.00000  Uiso   1.00
N44    N     0.46152   0.93650   0.70344   0.00000  Uiso   1.00
N45    N     0.69356   0.43464   0.09598   0.00000  Uiso   1.00
N46    N     0.09985   0.74744   0.64756   0.00000  Uiso   1.00
C47    C     0.20286   0.17649   0.45088   0.00000  Uiso   1.00
C48    C     0.29404   0.14197   0.38656   0.00000  Uiso   1.00
C49    C     0.34741   0.05292   0.40173   0.00000  Uiso   1.00
C50    C     0.42855   0.03513   0.33461   0.00000  Uiso   1.00
C51    C     0.56610   0.97109   0.24685   0.00000  Uiso   1.00
C52    C     0.23010   0.28029   0.49475   0.00000  Uiso   1.00
C53    C     0.22971   0.30753   0.60089   0.00000  Uiso   1.00
C54    C     0.25702   0.40618   0.62484   0.00000  Uiso   1.00
C55    C     0.29524   0.55691   0.70504   0.00000  Uiso   1.00
C56    C     0.11814   0.19407   0.37116   0.00000  Uiso   1.00
C57    C     0.02359   0.14883   0.37339   0.00000  Uiso   1.00
C58    C     0.95663   0.17491   0.29330   0.00000  Uiso   1.00
C59    C     0.82100   0.19176   0.18160   0.00000  Uiso   1.00
C60    C     0.25204   0.30325   0.30468   0.00000  Uiso   1.00
C61    C     0.32075   0.21083   0.30715   0.00000  Uiso   1.00
C62    C     0.40183   0.19317   0.23998   0.00000  Uiso   1.00
C63    C     0.45531   0.10410   0.25506   0.00000  Uiso   1.00
C64    C     0.25682   0.34914   0.41535   0.00000  Uiso   1.00
C65    C     0.28413   0.44778   0.43914   0.00000  Uiso   1.00
C66    C     0.28378   0.47516   0.54529   0.00000  Uiso   1.00
C67    C     0.14485   0.26292   0.29175   0.00000  Uiso   1.00
C68    C     0.07802   0.28908   0.21164   0.00000  Uiso   1.00
C69    C     0.98339   0.24389   0.21375   0.00000  Uiso   1.00
H70    H     0.18206   0.12289   0.51271   0.00000  Uiso   1.00
H71    H     0.32672   0.99966   0.46320   0.00000  Uiso   1.00
H72    H     0.20902   0.25424   0.66232   0.00000  Uiso   1.00
H73    H     0.00295   0.09556   0.43486   0.00000  Uiso   1.00
H74    H     0.49891   0.89342   0.37332   0.00000  Uiso   1.00
H75    H     0.25071   0.43022   0.79318   0.00000  Uiso   1.00
H76    H     0.81615   0.09562   0.31352   0.00000  Uiso   1.00
H77    H     0.27284   0.35686   0.24286   0.00000  Uiso   1.00
H78    H     0.42249   0.24647   0.17854   0.00000  Uiso   1.00
H79    H     0.30479   0.50104   0.37767   0.00000  Uiso   1.00
H80    H     0.09871   0.34236   0.15020   0.00000  Uiso   1.00
H81    H     0.57664   0.09374   0.14228   0.00000  Uiso   1.00
H82    H     0.32843   0.63054   0.56214   0.00000  Uiso   1.00
H83    H     0.89388   0.29594   0.08249   0.00000  Uiso   1.00
O84    O     0.63460   0.91676   0.22038   0.00000  Uiso   1.00
O85    O     0.30895   0.62102   0.77122   0.00000  Uiso   1.00
O86    O     0.73882   0.18202   0.14192   0.00000  Uiso   1.00
N87    N     0.49665   0.95571   0.32776   0.00000  Uiso   1.00
N88    N     0.26462   0.45757   0.72030   0.00000  Uiso   1.00
N89    N     0.85833   0.14477   0.27188   0.00000  Uiso   1.00
N90    N     0.53848   0.06350   0.20344   0.00000  Uiso   1.00
N91    N     0.30644   0.56536   0.59598   0.00000  Uiso   1.00
N92    N     0.90015   0.25256   0.14756   0.00000  Uiso   1.00
C93    C     0.17649   0.79714   0.20088   0.00000  Uiso   1.00
C94    C     0.14197   0.70596   0.13656   0.00000  Uiso   1.00
C95    C     0.05292   0.65259   0.15173   0.00000  Uiso   1.00
C96    C     0.03513   0.57145   0.08461   0.00000  Uiso   1.00
C97    C     0.97109   0.43390   0.99685   0.00000  Uiso   1.00
C98    C     0.28029   0.76990   0.24475   0.00000  Uiso   1.00
C99    C     0.30753   0.77029   0.35089   0.00000  Uiso   1.00
C100   C     0.40618   0.74298   0.37484   0.00000  Uiso   1.00
C101   C     0.55691   0.70476   0.45504   0.00000  Uiso   1.00
C102   C     0.19407   0.88186   0.12116   0.00000  Uiso   1.00
C103   C     0.14883   0.97641   0.12339   0.00000  Uiso   1.00
C104   C     0.17491   0.04337   0.04330   0.00000  Uiso   1.00
C105   C     0.19176   0.17900   0.93160   0.00000  Uiso   1.00
C106   C     0.30325   0.74796   0.05468   0.00000  Uiso   1.00
C107   C     0.21083   0.67925   0.05715   0.00000  Uiso   1.00
C108   C     0.19317   0.59817   0.98998   0.00000  Uiso   1.00
C109   C     0.10410   0.54469   0.00506   0.00000  Uiso   1.00
C110   C     0.34914   0.74318   0.16535   0.00000  Uiso   1.00
C111   C     0.44778   0.71587   0.18914   0.00000  Uiso   1.00
C112   C     0.47516   0.71622   0.29529   0.00000  Uiso   1.00
C113   C     0.26292   0.85515   0.04175   0.00000  Uiso   1.00
C114   C     0.28908   0.92198   0.96164   0.00000  Uiso   1.00
C115   C     0.24389   0.01661   0.96375   0.00000  Uiso   1.00
H116   H     0.12289   0.81794   0.26271   0.00000  Uiso   1.00
H117   H     0.99966   0.67328   0.21320   0.00000  Uiso   1.00
H118   H     0.25424   0.79098   0.41232   0.00000  Uiso   1.00
H119   H     0.09556   0.99705   0.18486   0.00000  Uiso   1.00
H120   H     0.89342   0.50109   0.12332   0.00000  Uiso   1.00
H121   H     0.43022   0.74929   0.54318   0.00000  Uiso   1.00
H122   H     0.09562   0.18385   0.06352   0.00000  Uiso   1.00
H123   H     0.35686   0.72716   0.99286   0.00000  Uiso   1.00
H124   H     0.24647   0.57751   0.92854   0.00000  Uiso   1.00
H125   H     0.50104   0.69521   0.12767   0.00000  Uiso   1.00
H126   H     0.34236   0.90129   0.90020   0.00000  Uiso   1.00
H127   H     0.09374   0.42336   0.89228   0.00000  Uiso   1.00
H128   H     0.63054   0.67157   0.31214   0.00000  Uiso   1.00
H129   H     0.29594   0.10612   0.83249   0.00000  Uiso   1.00
O130   O     0.91676   0.36540   0.97038   0.00000  Uiso   1.00
O131   O     0.62102   0.69105   0.52122   0.00000  Uiso   1.00
O132   O     0.18202   0.26118   0.89192   0.00000  Uiso   1.00
N133   N     0.95571   0.50335   0.07776   0.00000  Uiso   1.00
N134   N     0.45757   0.73538   0.47030   0.00000  Uiso   1.00
N135   N     0.14477   0.14167   0.02188   0.00000  Uiso   1.00
N136   N     0.06350   0.46152   0.95344   0.00000  Uiso   1.00
N137   N     0.56536   0.69356   0.34598   0.00000  Uiso   1.00
N138   N     0.25256   0.09985   0.89756   0.00000  Uiso   1.00
C139   C     0.82351   0.20286   0.70088   0.00000  Uiso   1.00
C140   C     0.85803   0.29404   0.63656   0.00000  Uiso   1.00
C141   C     0.94708   0.34741   0.65173   0.00000  Uiso   1.00
C142   C     0.96487   0.42855   0.58461   0.00000  Uiso   1.00
C143   C     0.02891   0.56610   0.49685   0.00000  Uiso   1.00
C144   C     0.71971   0.23010   0.74475   0.00000  Uiso   1.00
C145   C     0.69247   0.22971   0.85089   0.00000  Uiso   1.00
C146   C     0.59382   0.25702   0.87484   0.00000  Uiso   1.00
C147   C     0.44309   0.29524   0.95504   0.00000  Uiso   1.00
C148   C     0.80593   0.11814   0.62116   0.00000  Uiso   1.00
C149   C     0.85117   0.02359   0.62339   0.00000  Uiso   1.00
C150   C     0.82509   0.95663   0.54330   0.00000  Uiso   1.00
C151   C     0.80824   0.82100   0.43160   0.00000  Uiso   1.00
C152   C     0.69675   0.25204   0.55468   0.00000  Uiso   1.00
C153   C     0.78917   0.32075   0.55715   0.00000  Uiso   1.00
C154   C     0.80683   0.40183   0.48998   0.00000  Uiso   1.00
C155   C     0.89590   0.45531   0.50506   0.00000  Uiso   1.00
C156   C     0.65086   0.25682   0.66535   0.00000  Uiso   1.00
C157   C     0.55222   0.28413   0.68914   0.00000  Uiso   1.00
C158   C     0.52484   0.28378   0.79529   0.00000  Uiso   1.00
C159   C     0.73708   0.14485   0.54175   0.00000  Uiso   1.00
C160   C     0.71092   0.07802   0.46164   0.00000  Uiso   1.00
C161   C     0.75611   0.98339   0.46375   0.00000  Uiso   1.00
H162   H     0.87711   0.18206   0.76271   0.00000  Uiso   1.00
H163   H     0.00034   0.32672   0.71320   0.00000  Uiso   1.00
H164   H     0.74576   0.20902   0.91232   0.00000  Uiso   1.00
H165   H     0.90444   0.00295   0.68486   0.00000  Uiso   1.00
H166   H     0.10658   0.49891   0.62332   0.00000  Uiso   1.00
H167   H     0.56978   0.25071   0.04318   0.00000  Uiso   1.00
H168   H     0.90438   0.81615   0.56352   0.00000  Uiso   1.00
H169   H     0.64314   0.27284   0.49286   0.00000  Uiso   1.00
H170   H     0.75353   0.42249   0.42854   0.00000  Uiso   1.00
H171   H     0.49896   0.30479   0.62767   0.00000  Uiso   1.00
H172   H     0.65764   0.09871   0.40020   0.00000  Uiso   1.00
H173   H     0.90626   0.57664   0.39228   0.00000  Uiso   1.00
H174   H     0.36946   0.32843   0.81214   0.00000  Uiso   1.00
H175   H     0.70406   0.89388   0.33249   0.00000  Uiso   1.00
O176   O     0.08324   0.63460   0.47038   0.00000  Uiso   1.00
O177   O     0.37898   0.30895   0.02122   0.00000  Uiso   1.00
O178   O     0.81798   0.73882   0.39192   0.00000  Uiso   1.00
N179   N     0.04429   0.49665   0.57776   0.00000  Uiso   1.00
N180   N     0.54243   0.26462   0.97030   0.00000  Uiso   1.00
N181   N     0.85523   0.85833   0.52188   0.00000  Uiso   1.00
N182   N     0.93650   0.53848   0.45344   0.00000  Uiso   1.00
N183   N     0.43464   0.30644   0.84598   0.00000  Uiso   1.00
N184   N     0.74744   0.90015   0.39756   0.00000  Uiso   1.00
