data_job_00402
_audit_creation_date              2018-12-19
_audit_creation_method            'Materials Studio'
_symmetry_space_group_name_H-M    'P1'
_symmetry_Int_Tables_number       1
_symmetry_cell_setting            triclinic
loop_
_symmetry_equiv_pos_as_xyz
  x,y,z
_cell_length_a                    16.7532
_cell_length_b                    12.5755
_cell_length_c                    25.6881
_cell_angle_alpha                 90.0000
_cell_angle_beta                  90.0000
_cell_angle_gamma                 90.0000
loop_
_atom_site_label
_atom_site_type_symbol
_atom_site_fract_x
_atom_site_fract_y
_atom_site_fract_z
_atom_site_U_iso_or_equiv
_atom_site_adp_type
_atom_site_occupancy
C1     C     0.06826   0.57473   0.31314   0.00000  Uiso   1.00
C2     C     0.03590   0.67471   0.33928   0.00000  Uiso   1.00
C3     C     0.96962   0.73227   0.32327   0.00000  Uiso   1.00
C4     C     0.94971   0.82142   0.35239   0.00000  Uiso   1.00
C5     C     0.89267   0.97206   0.38634   0.00000  Uiso   1.00
C6     C     0.15515   0.59854   0.29983   0.00000  Uiso   1.00
C7     C     0.18913   0.59204   0.25066   0.00000  Uiso   1.00
C8     C     0.26961   0.61706   0.24658   0.00000  Uiso   1.00
C9     C     0.39771   0.64937   0.21929   0.00000  Uiso   1.00
C10    C     0.07027   0.48931   0.35525   0.00000  Uiso   1.00
C11    C     0.03291   0.39095   0.35267   0.00000  Uiso   1.00
C12    C     0.04195   0.32399   0.39524   0.00000  Uiso   1.00
C13    C     0.03828   0.18671   0.45399   0.00000  Uiso   1.00
C14    C     0.15076   0.63070   0.39331   0.00000  Uiso   1.00
C15    C     0.08071   0.70511   0.38282   0.00000  Uiso   1.00
C16    C     0.06090   0.79419   0.41198   0.00000  Uiso   1.00
C17    C     0.99460   0.85187   0.39602   0.00000  Uiso   1.00
C18    C     0.19996   0.62894   0.34338   0.00000  Uiso   1.00
C19    C     0.28041   0.65396   0.33937   0.00000  Uiso   1.00
C20    C     0.31450   0.64751   0.29020   0.00000  Uiso   1.00
C21    C     0.11508   0.51971   0.39880   0.00000  Uiso   1.00
C22    C     0.12419   0.45288   0.44137   0.00000  Uiso   1.00
C23    C     0.08684   0.35444   0.43886   0.00000  Uiso   1.00
H24    H     0.03337   0.55107   0.27923   0.00000  Uiso   1.00
H25    H     0.93496   0.70872   0.28956   0.00000  Uiso   1.00
H26    H     0.15444   0.56850   0.21697   0.00000  Uiso   1.00
H27    H     0.99824   0.36746   0.31896   0.00000  Uiso   1.00
H28    H     0.84563   0.89694   0.32022   0.00000  Uiso   1.00
H29    H     0.30841   0.60125   0.16714   0.00000  Uiso   1.00
H30    H     0.97904   0.17730   0.38221   0.00000  Uiso   1.00
H31    H     0.18565   0.65437   0.42722   0.00000  Uiso   1.00
H32    H     0.09559   0.81769   0.44568   0.00000  Uiso   1.00
H33    H     0.31507   0.67747   0.37307   0.00000  Uiso   1.00
H34    H     0.15887   0.47643   0.47507   0.00000  Uiso   1.00
H35    H     0.97600   0.98539   0.44692   0.00000  Uiso   1.00
H36    H     0.43879   0.68969   0.29384   0.00000  Uiso   1.00
H37    H     0.10942   0.26574   0.50892   0.00000  Uiso   1.00
O38    O     0.84884   0.04676   0.39303   0.00000  Uiso   1.00
O39    O     0.45599   0.65880   0.19220   0.00000  Uiso   1.00
O40    O     0.02387   0.10259   0.47437   0.00000  Uiso   1.00
N41    N     0.88866   0.89533   0.34751   0.00000  Uiso   1.00
N42    N     0.32133   0.61889   0.20439   0.00000  Uiso   1.00
N43    N     0.01342   0.22252   0.40546   0.00000  Uiso   1.00
N44    N     0.95881   0.94292   0.41569   0.00000  Uiso   1.00
N45    N     0.39149   0.66648   0.27257   0.00000  Uiso   1.00
N46    N     0.08357   0.27011   0.47364   0.00000  Uiso   1.00
C47    C     0.43174   0.92527   0.81314   0.00000  Uiso   1.00
C48    C     0.46410   0.82529   0.83928   0.00000  Uiso   1.00
C49    C     0.53038   0.76773   0.82327   0.00000  Uiso   1.00
C50    C     0.55029   0.67858   0.85239   0.00000  Uiso   1.00
C51    C     0.60733   0.52794   0.88634   0.00000  Uiso   1.00
C52    C     0.34485   0.90146   0.79983   0.00000  Uiso   1.00
C53    C     0.31087   0.90796   0.75066   0.00000  Uiso   1.00
C54    C     0.23039   0.88294   0.74658   0.00000  Uiso   1.00
C55    C     0.10229   0.85063   0.71929   0.00000  Uiso   1.00
C56    C     0.42973   0.01069   0.85525   0.00000  Uiso   1.00
C57    C     0.46709   0.10905   0.85267   0.00000  Uiso   1.00
C58    C     0.45805   0.17601   0.89524   0.00000  Uiso   1.00
C59    C     0.46172   0.31329   0.95399   0.00000  Uiso   1.00
C60    C     0.34924   0.86930   0.89331   0.00000  Uiso   1.00
C61    C     0.41929   0.79489   0.88282   0.00000  Uiso   1.00
C62    C     0.43910   0.70581   0.91198   0.00000  Uiso   1.00
C63    C     0.50540   0.64813   0.89602   0.00000  Uiso   1.00
C64    C     0.30004   0.87106   0.84338   0.00000  Uiso   1.00
C65    C     0.21959   0.84604   0.83937   0.00000  Uiso   1.00
C66    C     0.18550   0.85249   0.79020   0.00000  Uiso   1.00
C67    C     0.38492   0.98029   0.89880   0.00000  Uiso   1.00
C68    C     0.37581   0.04712   0.94137   0.00000  Uiso   1.00
C69    C     0.41316   0.14556   0.93886   0.00000  Uiso   1.00
H70    H     0.46663   0.94893   0.77923   0.00000  Uiso   1.00
H71    H     0.56504   0.79128   0.78956   0.00000  Uiso   1.00
H72    H     0.34556   0.93150   0.71697   0.00000  Uiso   1.00
H73    H     0.50176   0.13254   0.81896   0.00000  Uiso   1.00
H74    H     0.65437   0.60306   0.82022   0.00000  Uiso   1.00
H75    H     0.19159   0.89875   0.66714   0.00000  Uiso   1.00
H76    H     0.52096   0.32270   0.88221   0.00000  Uiso   1.00
H77    H     0.31435   0.84563   0.92722   0.00000  Uiso   1.00
H78    H     0.40441   0.68231   0.94568   0.00000  Uiso   1.00
H79    H     0.18493   0.82253   0.87307   0.00000  Uiso   1.00
H80    H     0.34113   0.02357   0.97507   0.00000  Uiso   1.00
H81    H     0.52400   0.51461   0.94692   0.00000  Uiso   1.00
H82    H     0.06121   0.81031   0.79384   0.00000  Uiso   1.00
H83    H     0.39058   0.23426   0.00892   0.00000  Uiso   1.00
O84    O     0.65116   0.45324   0.89303   0.00000  Uiso   1.00
O85    O     0.04401   0.84120   0.69220   0.00000  Uiso   1.00
O86    O     0.47613   0.39741   0.97437   0.00000  Uiso   1.00
N87    N     0.61134   0.60467   0.84751   0.00000  Uiso   1.00
N88    N     0.17867   0.88111   0.70439   0.00000  Uiso   1.00
N89    N     0.48658   0.27748   0.90546   0.00000  Uiso   1.00
N90    N     0.54119   0.55708   0.91569   0.00000  Uiso   1.00
N91    N     0.10851   0.83352   0.77257   0.00000  Uiso   1.00
N92    N     0.41643   0.22989   0.97364   0.00000  Uiso   1.00
C93    C     0.93174   0.57473   0.18686   0.00000  Uiso   1.00
C94    C     0.96410   0.67471   0.16072   0.00000  Uiso   1.00
C95    C     0.03038   0.73227   0.17673   0.00000  Uiso   1.00
C96    C     0.05029   0.82142   0.14761   0.00000  Uiso   1.00
C97    C     0.10733   0.97206   0.11366   0.00000  Uiso   1.00
C98    C     0.84485   0.59854   0.20017   0.00000  Uiso   1.00
C99    C     0.81087   0.59204   0.24934   0.00000  Uiso   1.00
C100   C     0.73039   0.61706   0.25342   0.00000  Uiso   1.00
C101   C     0.60229   0.64937   0.28071   0.00000  Uiso   1.00
C102   C     0.92973   0.48931   0.14475   0.00000  Uiso   1.00
C103   C     0.96709   0.39095   0.14733   0.00000  Uiso   1.00
C104   C     0.95805   0.32399   0.10476   0.00000  Uiso   1.00
C105   C     0.96172   0.18671   0.04601   0.00000  Uiso   1.00
C106   C     0.84924   0.63070   0.10669   0.00000  Uiso   1.00
C107   C     0.91929   0.70511   0.11718   0.00000  Uiso   1.00
C108   C     0.93910   0.79419   0.08802   0.00000  Uiso   1.00
C109   C     0.00540   0.85187   0.10398   0.00000  Uiso   1.00
C110   C     0.80004   0.62894   0.15662   0.00000  Uiso   1.00
C111   C     0.71959   0.65396   0.16063   0.00000  Uiso   1.00
C112   C     0.68550   0.64751   0.20980   0.00000  Uiso   1.00
C113   C     0.88492   0.51971   0.10120   0.00000  Uiso   1.00
C114   C     0.87581   0.45288   0.05863   0.00000  Uiso   1.00
C115   C     0.91316   0.35444   0.06114   0.00000  Uiso   1.00
H116   H     0.96663   0.55107   0.22077   0.00000  Uiso   1.00
H117   H     0.06504   0.70872   0.21044   0.00000  Uiso   1.00
H118   H     0.84556   0.56850   0.28303   0.00000  Uiso   1.00
H119   H     0.00176   0.36746   0.18104   0.00000  Uiso   1.00
H120   H     0.15437   0.89694   0.17978   0.00000  Uiso   1.00
H121   H     0.69159   0.60125   0.33286   0.00000  Uiso   1.00
H122   H     0.02096   0.17730   0.11779   0.00000  Uiso   1.00
H123   H     0.81435   0.65437   0.07278   0.00000  Uiso   1.00
H124   H     0.90441   0.81769   0.05432   0.00000  Uiso   1.00
H125   H     0.68493   0.67747   0.12693   0.00000  Uiso   1.00
H126   H     0.84113   0.47643   0.02493   0.00000  Uiso   1.00
H127   H     0.02400   0.98539   0.05308   0.00000  Uiso   1.00
H128   H     0.56121   0.68969   0.20616   0.00000  Uiso   1.00
H129   H     0.89058   0.26574   0.99108   0.00000  Uiso   1.00
O130   O     0.15116   0.04676   0.10697   0.00000  Uiso   1.00
O131   O     0.54401   0.65880   0.30780   0.00000  Uiso   1.00
O132   O     0.97613   0.10259   0.02563   0.00000  Uiso   1.00
N133   N     0.11134   0.89533   0.15249   0.00000  Uiso   1.00
N134   N     0.67867   0.61889   0.29561   0.00000  Uiso   1.00
N135   N     0.98658   0.22252   0.09454   0.00000  Uiso   1.00
N136   N     0.04119   0.94292   0.08431   0.00000  Uiso   1.00
N137   N     0.60851   0.66648   0.22743   0.00000  Uiso   1.00
N138   N     0.91643   0.27011   0.02636   0.00000  Uiso   1.00
C139   C     0.56826   0.92527   0.68686   0.00000  Uiso   1.00
C140   C     0.53590   0.82529   0.66072   0.00000  Uiso   1.00
C141   C     0.46962   0.76773   0.67673   0.00000  Uiso   1.00
C142   C     0.44971   0.67858   0.64761   0.00000  Uiso   1.00
C143   C     0.39267   0.52794   0.61366   0.00000  Uiso   1.00
C144   C     0.65515   0.90146   0.70017   0.00000  Uiso   1.00
C145   C     0.68913   0.90796   0.74934   0.00000  Uiso   1.00
C146   C     0.76961   0.88294   0.75342   0.00000  Uiso   1.00
C147   C     0.89771   0.85063   0.78071   0.00000  Uiso   1.00
C148   C     0.57027   0.01069   0.64475   0.00000  Uiso   1.00
C149   C     0.53291   0.10905   0.64733   0.00000  Uiso   1.00
C150   C     0.54195   0.17601   0.60476   0.00000  Uiso   1.00
C151   C     0.53828   0.31329   0.54601   0.00000  Uiso   1.00
C152   C     0.65076   0.86930   0.60669   0.00000  Uiso   1.00
C153   C     0.58071   0.79489   0.61718   0.00000  Uiso   1.00
C154   C     0.56090   0.70581   0.58802   0.00000  Uiso   1.00
C155   C     0.49460   0.64813   0.60398   0.00000  Uiso   1.00
C156   C     0.69996   0.87106   0.65662   0.00000  Uiso   1.00
C157   C     0.78041   0.84604   0.66063   0.00000  Uiso   1.00
C158   C     0.81450   0.85249   0.70980   0.00000  Uiso   1.00
C159   C     0.61508   0.98029   0.60120   0.00000  Uiso   1.00
C160   C     0.62419   0.04712   0.55863   0.00000  Uiso   1.00
C161   C     0.58684   0.14556   0.56114   0.00000  Uiso   1.00
H162   H     0.53337   0.94893   0.72077   0.00000  Uiso   1.00
H163   H     0.43496   0.79128   0.71044   0.00000  Uiso   1.00
H164   H     0.65444   0.93150   0.78303   0.00000  Uiso   1.00
H165   H     0.49824   0.13254   0.68104   0.00000  Uiso   1.00
H166   H     0.34563   0.60306   0.67978   0.00000  Uiso   1.00
H167   H     0.80841   0.89875   0.83286   0.00000  Uiso   1.00
H168   H     0.47904   0.32270   0.61779   0.00000  Uiso   1.00
H169   H     0.68565   0.84563   0.57278   0.00000  Uiso   1.00
H170   H     0.59559   0.68231   0.55432   0.00000  Uiso   1.00
H171   H     0.81507   0.82253   0.62693   0.00000  Uiso   1.00
H172   H     0.65887   0.02357   0.52493   0.00000  Uiso   1.00
H173   H     0.47600   0.51461   0.55308   0.00000  Uiso   1.00
H174   H     0.93879   0.81031   0.70616   0.00000  Uiso   1.00
H175   H     0.60942   0.23426   0.49108   0.00000  Uiso   1.00
O176   O     0.34884   0.45324   0.60697   0.00000  Uiso   1.00
O177   O     0.95599   0.84120   0.80780   0.00000  Uiso   1.00
O178   O     0.52387   0.39741   0.52563   0.00000  Uiso   1.00
N179   N     0.38866   0.60467   0.65249   0.00000  Uiso   1.00
N180   N     0.82133   0.88111   0.79561   0.00000  Uiso   1.00
N181   N     0.51342   0.27748   0.59454   0.00000  Uiso   1.00
N182   N     0.45881   0.55708   0.58431   0.00000  Uiso   1.00
N183   N     0.89149   0.83352   0.72743   0.00000  Uiso   1.00
N184   N     0.58357   0.22989   0.52636   0.00000  Uiso   1.00
C185   C     0.93174   0.42527   0.68686   0.00000  Uiso   1.00
C186   C     0.96410   0.32529   0.66072   0.00000  Uiso   1.00
C187   C     0.03038   0.26773   0.67673   0.00000  Uiso   1.00
C188   C     0.05029   0.17858   0.64761   0.00000  Uiso   1.00
C189   C     0.10733   0.02794   0.61366   0.00000  Uiso   1.00
C190   C     0.84485   0.40146   0.70017   0.00000  Uiso   1.00
C191   C     0.81087   0.40796   0.74934   0.00000  Uiso   1.00
C192   C     0.73039   0.38294   0.75342   0.00000  Uiso   1.00
C193   C     0.60229   0.35063   0.78071   0.00000  Uiso   1.00
C194   C     0.92973   0.51069   0.64475   0.00000  Uiso   1.00
C195   C     0.96709   0.60905   0.64733   0.00000  Uiso   1.00
C196   C     0.95805   0.67601   0.60476   0.00000  Uiso   1.00
C197   C     0.96172   0.81329   0.54601   0.00000  Uiso   1.00
C198   C     0.84924   0.36930   0.60669   0.00000  Uiso   1.00
C199   C     0.91929   0.29489   0.61718   0.00000  Uiso   1.00
C200   C     0.93910   0.20581   0.58802   0.00000  Uiso   1.00
C201   C     0.00540   0.14813   0.60398   0.00000  Uiso   1.00
C202   C     0.80004   0.37106   0.65662   0.00000  Uiso   1.00
C203   C     0.71959   0.34604   0.66063   0.00000  Uiso   1.00
C204   C     0.68550   0.35249   0.70980   0.00000  Uiso   1.00
C205   C     0.88492   0.48029   0.60120   0.00000  Uiso   1.00
C206   C     0.87581   0.54712   0.55863   0.00000  Uiso   1.00
C207   C     0.91316   0.64556   0.56114   0.00000  Uiso   1.00
H208   H     0.96663   0.44893   0.72077   0.00000  Uiso   1.00
H209   H     0.06504   0.29128   0.71044   0.00000  Uiso   1.00
H210   H     0.84556   0.43150   0.78303   0.00000  Uiso   1.00
H211   H     0.00176   0.63254   0.68104   0.00000  Uiso   1.00
H212   H     0.15437   0.10306   0.67978   0.00000  Uiso   1.00
H213   H     0.69159   0.39875   0.83286   0.00000  Uiso   1.00
H214   H     0.02096   0.82270   0.61779   0.00000  Uiso   1.00
H215   H     0.81435   0.34563   0.57278   0.00000  Uiso   1.00
H216   H     0.90441   0.18231   0.55432   0.00000  Uiso   1.00
H217   H     0.68493   0.32253   0.62693   0.00000  Uiso   1.00
H218   H     0.84113   0.52357   0.52493   0.00000  Uiso   1.00
H219   H     0.02400   0.01461   0.55308   0.00000  Uiso   1.00
H220   H     0.56121   0.31031   0.70616   0.00000  Uiso   1.00
H221   H     0.89058   0.73426   0.49108   0.00000  Uiso   1.00
O222   O     0.15116   0.95324   0.60697   0.00000  Uiso   1.00
O223   O     0.54401   0.34120   0.80780   0.00000  Uiso   1.00
O224   O     0.97613   0.89741   0.52563   0.00000  Uiso   1.00
N225   N     0.11134   0.10467   0.65249   0.00000  Uiso   1.00
N226   N     0.67867   0.38111   0.79561   0.00000  Uiso   1.00
N227   N     0.98658   0.77748   0.59454   0.00000  Uiso   1.00
N228   N     0.04119   0.05708   0.58431   0.00000  Uiso   1.00
N229   N     0.60851   0.33352   0.72743   0.00000  Uiso   1.00
N230   N     0.91643   0.72989   0.52636   0.00000  Uiso   1.00
C231   C     0.56826   0.07473   0.18686   0.00000  Uiso   1.00
C232   C     0.53590   0.17471   0.16072   0.00000  Uiso   1.00
C233   C     0.46962   0.23227   0.17673   0.00000  Uiso   1.00
C234   C     0.44971   0.32142   0.14761   0.00000  Uiso   1.00
C235   C     0.39267   0.47206   0.11366   0.00000  Uiso   1.00
C236   C     0.65515   0.09854   0.20017   0.00000  Uiso   1.00
C237   C     0.68913   0.09204   0.24934   0.00000  Uiso   1.00
C238   C     0.76961   0.11706   0.25342   0.00000  Uiso   1.00
C239   C     0.89771   0.14937   0.28071   0.00000  Uiso   1.00
C240   C     0.57027   0.98931   0.14475   0.00000  Uiso   1.00
C241   C     0.53291   0.89095   0.14733   0.00000  Uiso   1.00
C242   C     0.54195   0.82399   0.10476   0.00000  Uiso   1.00
C243   C     0.53828   0.68671   0.04601   0.00000  Uiso   1.00
C244   C     0.65076   0.13070   0.10669   0.00000  Uiso   1.00
C245   C     0.58071   0.20511   0.11718   0.00000  Uiso   1.00
C246   C     0.56090   0.29419   0.08802   0.00000  Uiso   1.00
C247   C     0.49460   0.35187   0.10398   0.00000  Uiso   1.00
C248   C     0.69996   0.12894   0.15662   0.00000  Uiso   1.00
C249   C     0.78041   0.15396   0.16063   0.00000  Uiso   1.00
C250   C     0.81450   0.14751   0.20980   0.00000  Uiso   1.00
C251   C     0.61508   0.01971   0.10120   0.00000  Uiso   1.00
C252   C     0.62419   0.95288   0.05863   0.00000  Uiso   1.00
C253   C     0.58684   0.85444   0.06114   0.00000  Uiso   1.00
H254   H     0.53337   0.05107   0.22077   0.00000  Uiso   1.00
H255   H     0.43496   0.20872   0.21044   0.00000  Uiso   1.00
H256   H     0.65444   0.06850   0.28303   0.00000  Uiso   1.00
H257   H     0.49824   0.86746   0.18104   0.00000  Uiso   1.00
H258   H     0.34563   0.39694   0.17978   0.00000  Uiso   1.00
H259   H     0.80841   0.10125   0.33286   0.00000  Uiso   1.00
H260   H     0.47904   0.67730   0.11779   0.00000  Uiso   1.00
H261   H     0.68565   0.15437   0.07278   0.00000  Uiso   1.00
H262   H     0.59559   0.31769   0.05432   0.00000  Uiso   1.00
H263   H     0.81507   0.17747   0.12693   0.00000  Uiso   1.00
H264   H     0.65887   0.97643   0.02493   0.00000  Uiso   1.00
H265   H     0.47600   0.48539   0.05308   0.00000  Uiso   1.00
H266   H     0.93879   0.18969   0.20616   0.00000  Uiso   1.00
H267   H     0.60942   0.76574   0.99108   0.00000  Uiso   1.00
O268   O     0.34884   0.54676   0.10697   0.00000  Uiso   1.00
O269   O     0.95599   0.15880   0.30780   0.00000  Uiso   1.00
O270   O     0.52387   0.60259   0.02563   0.00000  Uiso   1.00
N271   N     0.38866   0.39533   0.15249   0.00000  Uiso   1.00
N272   N     0.82133   0.11889   0.29561   0.00000  Uiso   1.00
N273   N     0.51342   0.72252   0.09454   0.00000  Uiso   1.00
N274   N     0.45881   0.44292   0.08431   0.00000  Uiso   1.00
N275   N     0.89149   0.16648   0.22743   0.00000  Uiso   1.00
N276   N     0.58357   0.77011   0.02636   0.00000  Uiso   1.00
C277   C     0.06826   0.42527   0.81314   0.00000  Uiso   1.00
C278   C     0.03590   0.32529   0.83928   0.00000  Uiso   1.00
C279   C     0.96962   0.26773   0.82327   0.00000  Uiso   1.00
C280   C     0.94971   0.17858   0.85239   0.00000  Uiso   1.00
C281   C     0.89267   0.02794   0.88634   0.00000  Uiso   1.00
C282   C     0.15515   0.40146   0.79983   0.00000  Uiso   1.00
C283   C     0.18913   0.40796   0.75066   0.00000  Uiso   1.00
C284   C     0.26961   0.38294   0.74658   0.00000  Uiso   1.00
C285   C     0.39771   0.35063   0.71929   0.00000  Uiso   1.00
C286   C     0.07027   0.51069   0.85525   0.00000  Uiso   1.00
C287   C     0.03291   0.60905   0.85267   0.00000  Uiso   1.00
C288   C     0.04195   0.67601   0.89524   0.00000  Uiso   1.00
C289   C     0.03828   0.81329   0.95399   0.00000  Uiso   1.00
C290   C     0.15076   0.36930   0.89331   0.00000  Uiso   1.00
C291   C     0.08071   0.29489   0.88282   0.00000  Uiso   1.00
C292   C     0.06090   0.20581   0.91198   0.00000  Uiso   1.00
C293   C     0.99460   0.14813   0.89602   0.00000  Uiso   1.00
C294   C     0.19996   0.37106   0.84338   0.00000  Uiso   1.00
C295   C     0.28041   0.34604   0.83937   0.00000  Uiso   1.00
C296   C     0.31450   0.35249   0.79020   0.00000  Uiso   1.00
C297   C     0.11508   0.48029   0.89880   0.00000  Uiso   1.00
C298   C     0.12419   0.54712   0.94137   0.00000  Uiso   1.00
C299   C     0.08684   0.64556   0.93886   0.00000  Uiso   1.00
H300   H     0.03337   0.44893   0.77923   0.00000  Uiso   1.00
H301   H     0.93496   0.29128   0.78956   0.00000  Uiso   1.00
H302   H     0.15444   0.43150   0.71697   0.00000  Uiso   1.00
H303   H     0.99824   0.63254   0.81896   0.00000  Uiso   1.00
H304   H     0.84563   0.10306   0.82022   0.00000  Uiso   1.00
H305   H     0.30841   0.39875   0.66714   0.00000  Uiso   1.00
H306   H     0.97904   0.82270   0.88221   0.00000  Uiso   1.00
H307   H     0.18565   0.34563   0.92722   0.00000  Uiso   1.00
H308   H     0.09559   0.18231   0.94568   0.00000  Uiso   1.00
H309   H     0.31507   0.32253   0.87307   0.00000  Uiso   1.00
H310   H     0.15887   0.52357   0.97507   0.00000  Uiso   1.00
H311   H     0.97600   0.01461   0.94692   0.00000  Uiso   1.00
H312   H     0.43879   0.31031   0.79384   0.00000  Uiso   1.00
H313   H     0.10942   0.73426   0.00892   0.00000  Uiso   1.00
O314   O     0.84884   0.95324   0.89303   0.00000  Uiso   1.00
O315   O     0.45599   0.34120   0.69220   0.00000  Uiso   1.00
O316   O     0.02387   0.89741   0.97437   0.00000  Uiso   1.00
N317   N     0.88866   0.10467   0.84751   0.00000  Uiso   1.00
N318   N     0.32133   0.38111   0.70439   0.00000  Uiso   1.00
N319   N     0.01342   0.77748   0.90546   0.00000  Uiso   1.00
N320   N     0.95881   0.05708   0.91569   0.00000  Uiso   1.00
N321   N     0.39149   0.33352   0.77257   0.00000  Uiso   1.00
N322   N     0.08357   0.72989   0.97364   0.00000  Uiso   1.00
C323   C     0.43174   0.07473   0.31314   0.00000  Uiso   1.00
C324   C     0.46410   0.17471   0.33928   0.00000  Uiso   1.00
C325   C     0.53038   0.23227   0.32327   0.00000  Uiso   1.00
C326   C     0.55029   0.32142   0.35239   0.00000  Uiso   1.00
C327   C     0.60733   0.47206   0.38634   0.00000  Uiso   1.00
C328   C     0.34485   0.09854   0.29983   0.00000  Uiso   1.00
C329   C     0.31087   0.09204   0.25066   0.00000  Uiso   1.00
C330   C     0.23039   0.11706   0.24658   0.00000  Uiso   1.00
C331   C     0.10229   0.14937   0.21929   0.00000  Uiso   1.00
C332   C     0.42973   0.98931   0.35525   0.00000  Uiso   1.00
C333   C     0.46709   0.89095   0.35267   0.00000  Uiso   1.00
C334   C     0.45805   0.82399   0.39524   0.00000  Uiso   1.00
C335   C     0.46172   0.68671   0.45399   0.00000  Uiso   1.00
C336   C     0.34924   0.13070   0.39331   0.00000  Uiso   1.00
C337   C     0.41929   0.20511   0.38282   0.00000  Uiso   1.00
C338   C     0.43910   0.29419   0.41198   0.00000  Uiso   1.00
C339   C     0.50540   0.35187   0.39602   0.00000  Uiso   1.00
C340   C     0.30004   0.12894   0.34338   0.00000  Uiso   1.00
C341   C     0.21959   0.15396   0.33937   0.00000  Uiso   1.00
C342   C     0.18550   0.14751   0.29020   0.00000  Uiso   1.00
C343   C     0.38492   0.01971   0.39880   0.00000  Uiso   1.00
C344   C     0.37581   0.95288   0.44137   0.00000  Uiso   1.00
C345   C     0.41316   0.85444   0.43886   0.00000  Uiso   1.00
H346   H     0.46663   0.05107   0.27923   0.00000  Uiso   1.00
H347   H     0.56504   0.20872   0.28956   0.00000  Uiso   1.00
H348   H     0.34556   0.06850   0.21697   0.00000  Uiso   1.00
H349   H     0.50176   0.86746   0.31896   0.00000  Uiso   1.00
H350   H     0.65437   0.39694   0.32022   0.00000  Uiso   1.00
H351   H     0.19159   0.10125   0.16714   0.00000  Uiso   1.00
H352   H     0.52096   0.67730   0.38221   0.00000  Uiso   1.00
H353   H     0.31435   0.15437   0.42722   0.00000  Uiso   1.00
H354   H     0.40441   0.31769   0.44568   0.00000  Uiso   1.00
H355   H     0.18493   0.17747   0.37307   0.00000  Uiso   1.00
H356   H     0.34113   0.97643   0.47507   0.00000  Uiso   1.00
H357   H     0.52400   0.48539   0.44692   0.00000  Uiso   1.00
H358   H     0.06121   0.18969   0.29384   0.00000  Uiso   1.00
H359   H     0.39058   0.76574   0.50892   0.00000  Uiso   1.00
O360   O     0.65116   0.54676   0.39303   0.00000  Uiso   1.00
O361   O     0.04401   0.15880   0.19220   0.00000  Uiso   1.00
O362   O     0.47613   0.60259   0.47437   0.00000  Uiso   1.00
N363   N     0.61134   0.39533   0.34751   0.00000  Uiso   1.00
N364   N     0.17867   0.11889   0.20439   0.00000  Uiso   1.00
N365   N     0.48658   0.72252   0.40546   0.00000  Uiso   1.00
N366   N     0.54119   0.44292   0.41569   0.00000  Uiso   1.00
N367   N     0.10851   0.16648   0.27257   0.00000  Uiso   1.00
N368   N     0.41643   0.77011   0.47364   0.00000  Uiso   1.00
