data_job_05374
_audit_creation_date              2018-12-19
_audit_creation_method            'Materials Studio'
_symmetry_space_group_name_H-M    'P1'
_symmetry_Int_Tables_number       1
_symmetry_cell_setting            triclinic
loop_
_symmetry_equiv_pos_as_xyz
  x,y,z
_cell_length_a                    28.0109
_cell_length_b                    13.5136
_cell_length_c                    16.8224
_cell_angle_alpha                 90.0000
_cell_angle_beta                  58.0083
_cell_angle_gamma                 90.0000
loop_
_atom_site_label
_atom_site_type_symbol
_atom_site_fract_x
_atom_site_fract_y
_atom_site_fract_z
_atom_site_U_iso_or_equiv
_atom_site_adp_type
_atom_site_occupancy
C1     C     0.94586   0.79022   0.41637   0.00000  Uiso   1.00
C2     C     0.91215   0.88152   0.47001   0.00000  Uiso   1.00
C3     C     0.92612   0.97877   0.43998   0.00000  Uiso   1.00
C4     C     0.88981   0.05180   0.49923   0.00000  Uiso   1.00
C5     C     0.84486   0.19714   0.56944   0.00000  Uiso   1.00
C6     C     0.95886   0.73528   0.48192   0.00000  Uiso   1.00
C7     C     0.01210   0.70956   0.46190   0.00000  Uiso   1.00
C8     C     0.01512   0.65948   0.53118   0.00000  Uiso   1.00
C9     C     0.04269   0.57772   0.61985   0.00000  Uiso   1.00
C10    C     0.90537   0.72422   0.40588   0.00000  Uiso   1.00
C11    C     0.91363   0.68917   0.32193   0.00000  Uiso   1.00
C12    C     0.87161   0.62975   0.32719   0.00000  Uiso   1.00
C13    C     0.81612   0.53081   0.29780   0.00000  Uiso   1.00
C14    C     0.85654   0.74698   0.57500   0.00000  Uiso   1.00
C15    C     0.86364   0.85803   0.55617   0.00000  Uiso   1.00
C16    C     0.82730   0.93093   0.61548   0.00000  Uiso   1.00
C17    C     0.84121   0.02827   0.58555   0.00000  Uiso   1.00
C18    C     0.91035   0.71180   0.56808   0.00000  Uiso   1.00
C19    C     0.91329   0.66173   0.63740   0.00000  Uiso   1.00
C20    C     0.96652   0.63595   0.61749   0.00000  Uiso   1.00
C21    C     0.85685   0.70073   0.49204   0.00000  Uiso   1.00
C22    C     0.81481   0.64134   0.49743   0.00000  Uiso   1.00
C23    C     0.82301   0.60622   0.41350   0.00000  Uiso   1.00
H24    H     0.98363   0.80850   0.34929   0.00000  Uiso   1.00
H25    H     0.96367   0.99692   0.37330   0.00000  Uiso   1.00
H26    H     0.04964   0.72774   0.39521   0.00000  Uiso   1.00
H27    H     0.95118   0.70736   0.25527   0.00000  Uiso   1.00
H28    H     0.92015   0.19545   0.43793   0.00000  Uiso   1.00
H29    H     0.10142   0.62786   0.48413   0.00000  Uiso   1.00
H30    H     0.89381   0.58488   0.18902   0.00000  Uiso   1.00
H31    H     0.81877   0.72869   0.64208   0.00000  Uiso   1.00
H32    H     0.78976   0.91273   0.68216   0.00000  Uiso   1.00
H33    H     0.87573   0.64356   0.70407   0.00000  Uiso   1.00
H34    H     0.77727   0.62318   0.56412   0.00000  Uiso   1.00
H35    H     0.77900   0.12713   0.68861   0.00000  Uiso   1.00
H36    H     0.96028   0.55953   0.73480   0.00000  Uiso   1.00
H37    H     0.75266   0.51655   0.43970   0.00000  Uiso   1.00
O38    O     0.83347   0.28380   0.58437   0.00000  Uiso   1.00
O39    O     0.07130   0.53912   0.64496   0.00000  Uiso   1.00
O40    O     0.79891   0.48274   0.25779   0.00000  Uiso   1.00
N41    N     0.89091   0.15412   0.49142   0.00000  Uiso   1.00
N42    N     0.06039   0.62346   0.53461   0.00000  Uiso   1.00
N43    N     0.86629   0.58326   0.25871   0.00000  Uiso   1.00
N44    N     0.81495   0.11735   0.62631   0.00000  Uiso   1.00
N45    N     0.98444   0.58670   0.66950   0.00000  Uiso   1.00
N46    N     0.79034   0.54649   0.39360   0.00000  Uiso   1.00
C47    C     0.44586   0.29022   0.41637   0.00000  Uiso   1.00
C48    C     0.41215   0.38152   0.47001   0.00000  Uiso   1.00
C49    C     0.42612   0.47877   0.43998   0.00000  Uiso   1.00
C50    C     0.38981   0.55180   0.49923   0.00000  Uiso   1.00
C51    C     0.34486   0.69714   0.56944   0.00000  Uiso   1.00
C52    C     0.45886   0.23528   0.48192   0.00000  Uiso   1.00
C53    C     0.51210   0.20956   0.46190   0.00000  Uiso   1.00
C54    C     0.51512   0.15948   0.53118   0.00000  Uiso   1.00
C55    C     0.54269   0.07772   0.61985   0.00000  Uiso   1.00
C56    C     0.40537   0.22422   0.40588   0.00000  Uiso   1.00
C57    C     0.41363   0.18917   0.32193   0.00000  Uiso   1.00
C58    C     0.37161   0.12975   0.32719   0.00000  Uiso   1.00
C59    C     0.31612   0.03081   0.29780   0.00000  Uiso   1.00
C60    C     0.35654   0.24698   0.57500   0.00000  Uiso   1.00
C61    C     0.36364   0.35803   0.55617   0.00000  Uiso   1.00
C62    C     0.32730   0.43093   0.61548   0.00000  Uiso   1.00
C63    C     0.34121   0.52827   0.58555   0.00000  Uiso   1.00
C64    C     0.41035   0.21180   0.56808   0.00000  Uiso   1.00
C65    C     0.41329   0.16173   0.63740   0.00000  Uiso   1.00
C66    C     0.46652   0.13595   0.61749   0.00000  Uiso   1.00
C67    C     0.35685   0.20073   0.49204   0.00000  Uiso   1.00
C68    C     0.31481   0.14134   0.49743   0.00000  Uiso   1.00
C69    C     0.32301   0.10622   0.41350   0.00000  Uiso   1.00
H70    H     0.48363   0.30850   0.34929   0.00000  Uiso   1.00
H71    H     0.46367   0.49692   0.37330   0.00000  Uiso   1.00
H72    H     0.54964   0.22774   0.39521   0.00000  Uiso   1.00
H73    H     0.45118   0.20736   0.25527   0.00000  Uiso   1.00
H74    H     0.42015   0.69545   0.43793   0.00000  Uiso   1.00
H75    H     0.60142   0.12786   0.48413   0.00000  Uiso   1.00
H76    H     0.39381   0.08488   0.18902   0.00000  Uiso   1.00
H77    H     0.31877   0.22869   0.64208   0.00000  Uiso   1.00
H78    H     0.28976   0.41273   0.68216   0.00000  Uiso   1.00
H79    H     0.37573   0.14356   0.70407   0.00000  Uiso   1.00
H80    H     0.27727   0.12318   0.56412   0.00000  Uiso   1.00
H81    H     0.27900   0.62713   0.68861   0.00000  Uiso   1.00
H82    H     0.46028   0.05953   0.73480   0.00000  Uiso   1.00
H83    H     0.25266   0.01655   0.43970   0.00000  Uiso   1.00
O84    O     0.33347   0.78380   0.58437   0.00000  Uiso   1.00
O85    O     0.57130   0.03912   0.64496   0.00000  Uiso   1.00
O86    O     0.29891   0.98274   0.25779   0.00000  Uiso   1.00
N87    N     0.39091   0.65412   0.49142   0.00000  Uiso   1.00
N88    N     0.56039   0.12346   0.53461   0.00000  Uiso   1.00
N89    N     0.36629   0.08326   0.25871   0.00000  Uiso   1.00
N90    N     0.31495   0.61735   0.62631   0.00000  Uiso   1.00
N91    N     0.48444   0.08670   0.66950   0.00000  Uiso   1.00
N92    N     0.29034   0.04649   0.39360   0.00000  Uiso   1.00
C93    C     0.05414   0.79022   0.08363   0.00000  Uiso   1.00
C94    C     0.08785   0.88152   0.02999   0.00000  Uiso   1.00
C95    C     0.07388   0.97877   0.06002   0.00000  Uiso   1.00
C96    C     0.11019   0.05180   0.00077   0.00000  Uiso   1.00
C97    C     0.15514   0.19714   0.93056   0.00000  Uiso   1.00
C98    C     0.04114   0.73528   0.01808   0.00000  Uiso   1.00
C99    C     0.98790   0.70956   0.03810   0.00000  Uiso   1.00
C100   C     0.98488   0.65948   0.96882   0.00000  Uiso   1.00
C101   C     0.95731   0.57772   0.88015   0.00000  Uiso   1.00
C102   C     0.09463   0.72422   0.09412   0.00000  Uiso   1.00
C103   C     0.08637   0.68917   0.17807   0.00000  Uiso   1.00
C104   C     0.12839   0.62975   0.17281   0.00000  Uiso   1.00
C105   C     0.18388   0.53081   0.20220   0.00000  Uiso   1.00
C106   C     0.14346   0.74698   0.92500   0.00000  Uiso   1.00
C107   C     0.13636   0.85803   0.94383   0.00000  Uiso   1.00
C108   C     0.17270   0.93093   0.88452   0.00000  Uiso   1.00
C109   C     0.15879   0.02827   0.91445   0.00000  Uiso   1.00
C110   C     0.08965   0.71180   0.93192   0.00000  Uiso   1.00
C111   C     0.08671   0.66173   0.86260   0.00000  Uiso   1.00
C112   C     0.03348   0.63595   0.88251   0.00000  Uiso   1.00
C113   C     0.14315   0.70073   0.00796   0.00000  Uiso   1.00
C114   C     0.18519   0.64134   0.00257   0.00000  Uiso   1.00
C115   C     0.17699   0.60622   0.08650   0.00000  Uiso   1.00
H116   H     0.01637   0.80850   0.15071   0.00000  Uiso   1.00
H117   H     0.03633   0.99692   0.12670   0.00000  Uiso   1.00
H118   H     0.95036   0.72774   0.10479   0.00000  Uiso   1.00
H119   H     0.04882   0.70736   0.24473   0.00000  Uiso   1.00
H120   H     0.07985   0.19545   0.06207   0.00000  Uiso   1.00
H121   H     0.89858   0.62786   0.01587   0.00000  Uiso   1.00
H122   H     0.10619   0.58488   0.31098   0.00000  Uiso   1.00
H123   H     0.18123   0.72869   0.85792   0.00000  Uiso   1.00
H124   H     0.21024   0.91273   0.81784   0.00000  Uiso   1.00
H125   H     0.12427   0.64356   0.79593   0.00000  Uiso   1.00
H126   H     0.22273   0.62318   0.93588   0.00000  Uiso   1.00
H127   H     0.22100   0.12713   0.81139   0.00000  Uiso   1.00
H128   H     0.03972   0.55953   0.76520   0.00000  Uiso   1.00
H129   H     0.24734   0.51655   0.06030   0.00000  Uiso   1.00
O130   O     0.16653   0.28380   0.91563   0.00000  Uiso   1.00
O131   O     0.92870   0.53912   0.85504   0.00000  Uiso   1.00
O132   O     0.20109   0.48274   0.24221   0.00000  Uiso   1.00
N133   N     0.10909   0.15412   0.00858   0.00000  Uiso   1.00
N134   N     0.93961   0.62346   0.96539   0.00000  Uiso   1.00
N135   N     0.13371   0.58326   0.24129   0.00000  Uiso   1.00
N136   N     0.18505   0.11735   0.87369   0.00000  Uiso   1.00
N137   N     0.01556   0.58670   0.83050   0.00000  Uiso   1.00
N138   N     0.20966   0.54649   0.10640   0.00000  Uiso   1.00
C139   C     0.55414   0.29022   0.08363   0.00000  Uiso   1.00
C140   C     0.58785   0.38152   0.02999   0.00000  Uiso   1.00
C141   C     0.57388   0.47877   0.06002   0.00000  Uiso   1.00
C142   C     0.61019   0.55180   0.00077   0.00000  Uiso   1.00
C143   C     0.65514   0.69714   0.93056   0.00000  Uiso   1.00
C144   C     0.54114   0.23528   0.01808   0.00000  Uiso   1.00
C145   C     0.48790   0.20956   0.03810   0.00000  Uiso   1.00
C146   C     0.48488   0.15948   0.96882   0.00000  Uiso   1.00
C147   C     0.45731   0.07772   0.88015   0.00000  Uiso   1.00
C148   C     0.59463   0.22422   0.09412   0.00000  Uiso   1.00
C149   C     0.58637   0.18917   0.17807   0.00000  Uiso   1.00
C150   C     0.62839   0.12975   0.17281   0.00000  Uiso   1.00
C151   C     0.68388   0.03081   0.20220   0.00000  Uiso   1.00
C152   C     0.64346   0.24698   0.92500   0.00000  Uiso   1.00
C153   C     0.63636   0.35803   0.94383   0.00000  Uiso   1.00
C154   C     0.67270   0.43093   0.88452   0.00000  Uiso   1.00
C155   C     0.65879   0.52827   0.91445   0.00000  Uiso   1.00
C156   C     0.58965   0.21180   0.93192   0.00000  Uiso   1.00
C157   C     0.58671   0.16173   0.86260   0.00000  Uiso   1.00
C158   C     0.53348   0.13595   0.88251   0.00000  Uiso   1.00
C159   C     0.64315   0.20073   0.00796   0.00000  Uiso   1.00
C160   C     0.68519   0.14134   0.00257   0.00000  Uiso   1.00
C161   C     0.67699   0.10622   0.08650   0.00000  Uiso   1.00
H162   H     0.51637   0.30850   0.15071   0.00000  Uiso   1.00
H163   H     0.53633   0.49692   0.12670   0.00000  Uiso   1.00
H164   H     0.45036   0.22774   0.10479   0.00000  Uiso   1.00
H165   H     0.54882   0.20736   0.24473   0.00000  Uiso   1.00
H166   H     0.57985   0.69545   0.06207   0.00000  Uiso   1.00
H167   H     0.39858   0.12786   0.01587   0.00000  Uiso   1.00
H168   H     0.60619   0.08488   0.31098   0.00000  Uiso   1.00
H169   H     0.68123   0.22869   0.85792   0.00000  Uiso   1.00
H170   H     0.71024   0.41273   0.81784   0.00000  Uiso   1.00
H171   H     0.62427   0.14356   0.79593   0.00000  Uiso   1.00
H172   H     0.72273   0.12318   0.93588   0.00000  Uiso   1.00
H173   H     0.72100   0.62713   0.81139   0.00000  Uiso   1.00
H174   H     0.53972   0.05953   0.76520   0.00000  Uiso   1.00
H175   H     0.74734   0.01655   0.06030   0.00000  Uiso   1.00
O176   O     0.66653   0.78380   0.91563   0.00000  Uiso   1.00
O177   O     0.42870   0.03912   0.85504   0.00000  Uiso   1.00
O178   O     0.70109   0.98274   0.24221   0.00000  Uiso   1.00
N179   N     0.60909   0.65412   0.00858   0.00000  Uiso   1.00
N180   N     0.43961   0.12346   0.96539   0.00000  Uiso   1.00
N181   N     0.63371   0.08326   0.24129   0.00000  Uiso   1.00
N182   N     0.68505   0.61735   0.87369   0.00000  Uiso   1.00
N183   N     0.51556   0.08670   0.83050   0.00000  Uiso   1.00
N184   N     0.70966   0.04649   0.10640   0.00000  Uiso   1.00
C185   C     0.05414   0.20978   0.58363   0.00000  Uiso   1.00
C186   C     0.08785   0.11848   0.52999   0.00000  Uiso   1.00
C187   C     0.07388   0.02123   0.56002   0.00000  Uiso   1.00
C188   C     0.11019   0.94820   0.50077   0.00000  Uiso   1.00
C189   C     0.15514   0.80286   0.43056   0.00000  Uiso   1.00
C190   C     0.04114   0.26472   0.51808   0.00000  Uiso   1.00
C191   C     0.98790   0.29044   0.53810   0.00000  Uiso   1.00
C192   C     0.98488   0.34052   0.46882   0.00000  Uiso   1.00
C193   C     0.95731   0.42228   0.38015   0.00000  Uiso   1.00
C194   C     0.09463   0.27578   0.59412   0.00000  Uiso   1.00
C195   C     0.08637   0.31083   0.67807   0.00000  Uiso   1.00
C196   C     0.12839   0.37025   0.67281   0.00000  Uiso   1.00
C197   C     0.18388   0.46919   0.70220   0.00000  Uiso   1.00
C198   C     0.14346   0.25302   0.42500   0.00000  Uiso   1.00
C199   C     0.13636   0.14197   0.44383   0.00000  Uiso   1.00
C200   C     0.17270   0.06907   0.38452   0.00000  Uiso   1.00
C201   C     0.15879   0.97173   0.41445   0.00000  Uiso   1.00
C202   C     0.08965   0.28820   0.43192   0.00000  Uiso   1.00
C203   C     0.08671   0.33827   0.36260   0.00000  Uiso   1.00
C204   C     0.03348   0.36405   0.38251   0.00000  Uiso   1.00
C205   C     0.14315   0.29927   0.50796   0.00000  Uiso   1.00
C206   C     0.18519   0.35866   0.50257   0.00000  Uiso   1.00
C207   C     0.17699   0.39378   0.58650   0.00000  Uiso   1.00
H208   H     0.01637   0.19150   0.65071   0.00000  Uiso   1.00
H209   H     0.03633   0.00308   0.62670   0.00000  Uiso   1.00
H210   H     0.95036   0.27226   0.60479   0.00000  Uiso   1.00
H211   H     0.04882   0.29264   0.74473   0.00000  Uiso   1.00
H212   H     0.07985   0.80455   0.56207   0.00000  Uiso   1.00
H213   H     0.89858   0.37214   0.51587   0.00000  Uiso   1.00
H214   H     0.10619   0.41512   0.81098   0.00000  Uiso   1.00
H215   H     0.18123   0.27131   0.35792   0.00000  Uiso   1.00
H216   H     0.21024   0.08727   0.31784   0.00000  Uiso   1.00
H217   H     0.12427   0.35644   0.29593   0.00000  Uiso   1.00
H218   H     0.22273   0.37682   0.43588   0.00000  Uiso   1.00
H219   H     0.22100   0.87287   0.31139   0.00000  Uiso   1.00
H220   H     0.03972   0.44047   0.26520   0.00000  Uiso   1.00
H221   H     0.24734   0.48345   0.56030   0.00000  Uiso   1.00
O222   O     0.16653   0.71620   0.41563   0.00000  Uiso   1.00
O223   O     0.92870   0.46088   0.35504   0.00000  Uiso   1.00
O224   O     0.20109   0.51726   0.74221   0.00000  Uiso   1.00
N225   N     0.10909   0.84588   0.50858   0.00000  Uiso   1.00
N226   N     0.93961   0.37654   0.46539   0.00000  Uiso   1.00
N227   N     0.13371   0.41674   0.74129   0.00000  Uiso   1.00
N228   N     0.18505   0.88265   0.37369   0.00000  Uiso   1.00
N229   N     0.01556   0.41330   0.33050   0.00000  Uiso   1.00
N230   N     0.20966   0.45351   0.60640   0.00000  Uiso   1.00
C231   C     0.55414   0.70978   0.58363   0.00000  Uiso   1.00
C232   C     0.58785   0.61848   0.52999   0.00000  Uiso   1.00
C233   C     0.57388   0.52123   0.56002   0.00000  Uiso   1.00
C234   C     0.61019   0.44820   0.50077   0.00000  Uiso   1.00
C235   C     0.65514   0.30286   0.43056   0.00000  Uiso   1.00
C236   C     0.54114   0.76472   0.51808   0.00000  Uiso   1.00
C237   C     0.48790   0.79044   0.53810   0.00000  Uiso   1.00
C238   C     0.48488   0.84052   0.46882   0.00000  Uiso   1.00
C239   C     0.45731   0.92228   0.38015   0.00000  Uiso   1.00
C240   C     0.59463   0.77578   0.59412   0.00000  Uiso   1.00
C241   C     0.58637   0.81083   0.67807   0.00000  Uiso   1.00
C242   C     0.62839   0.87025   0.67281   0.00000  Uiso   1.00
C243   C     0.68388   0.96919   0.70220   0.00000  Uiso   1.00
C244   C     0.64346   0.75302   0.42500   0.00000  Uiso   1.00
C245   C     0.63636   0.64197   0.44383   0.00000  Uiso   1.00
C246   C     0.67270   0.56907   0.38452   0.00000  Uiso   1.00
C247   C     0.65879   0.47173   0.41445   0.00000  Uiso   1.00
C248   C     0.58965   0.78820   0.43192   0.00000  Uiso   1.00
C249   C     0.58671   0.83827   0.36260   0.00000  Uiso   1.00
C250   C     0.53348   0.86405   0.38251   0.00000  Uiso   1.00
C251   C     0.64315   0.79927   0.50796   0.00000  Uiso   1.00
C252   C     0.68519   0.85866   0.50257   0.00000  Uiso   1.00
C253   C     0.67699   0.89378   0.58650   0.00000  Uiso   1.00
H254   H     0.51637   0.69150   0.65071   0.00000  Uiso   1.00
H255   H     0.53633   0.50308   0.62670   0.00000  Uiso   1.00
H256   H     0.45036   0.77226   0.60479   0.00000  Uiso   1.00
H257   H     0.54882   0.79264   0.74473   0.00000  Uiso   1.00
H258   H     0.57985   0.30455   0.56207   0.00000  Uiso   1.00
H259   H     0.39858   0.87214   0.51587   0.00000  Uiso   1.00
H260   H     0.60619   0.91512   0.81098   0.00000  Uiso   1.00
H261   H     0.68123   0.77131   0.35792   0.00000  Uiso   1.00
H262   H     0.71024   0.58727   0.31784   0.00000  Uiso   1.00
H263   H     0.62427   0.85644   0.29593   0.00000  Uiso   1.00
H264   H     0.72273   0.87682   0.43588   0.00000  Uiso   1.00
H265   H     0.72100   0.37287   0.31139   0.00000  Uiso   1.00
H266   H     0.53972   0.94047   0.26520   0.00000  Uiso   1.00
H267   H     0.74734   0.98345   0.56030   0.00000  Uiso   1.00
O268   O     0.66653   0.21620   0.41563   0.00000  Uiso   1.00
O269   O     0.42870   0.96088   0.35504   0.00000  Uiso   1.00
O270   O     0.70109   0.01726   0.74221   0.00000  Uiso   1.00
N271   N     0.60909   0.34588   0.50858   0.00000  Uiso   1.00
N272   N     0.43961   0.87654   0.46539   0.00000  Uiso   1.00
N273   N     0.63371   0.91674   0.74129   0.00000  Uiso   1.00
N274   N     0.68505   0.38265   0.37369   0.00000  Uiso   1.00
N275   N     0.51556   0.91330   0.33050   0.00000  Uiso   1.00
N276   N     0.70966   0.95351   0.60640   0.00000  Uiso   1.00
C277   C     0.94586   0.20978   0.91637   0.00000  Uiso   1.00
C278   C     0.91215   0.11848   0.97001   0.00000  Uiso   1.00
C279   C     0.92612   0.02123   0.93998   0.00000  Uiso   1.00
C280   C     0.88981   0.94820   0.99923   0.00000  Uiso   1.00
C281   C     0.84486   0.80286   0.06944   0.00000  Uiso   1.00
C282   C     0.95886   0.26472   0.98192   0.00000  Uiso   1.00
C283   C     0.01210   0.29044   0.96190   0.00000  Uiso   1.00
C284   C     0.01512   0.34052   0.03118   0.00000  Uiso   1.00
C285   C     0.04269   0.42228   0.11985   0.00000  Uiso   1.00
C286   C     0.90537   0.27578   0.90588   0.00000  Uiso   1.00
C287   C     0.91363   0.31083   0.82193   0.00000  Uiso   1.00
C288   C     0.87161   0.37025   0.82719   0.00000  Uiso   1.00
C289   C     0.81612   0.46919   0.79780   0.00000  Uiso   1.00
C290   C     0.85654   0.25302   0.07500   0.00000  Uiso   1.00
C291   C     0.86364   0.14197   0.05617   0.00000  Uiso   1.00
C292   C     0.82730   0.06907   0.11548   0.00000  Uiso   1.00
C293   C     0.84121   0.97173   0.08555   0.00000  Uiso   1.00
C294   C     0.91035   0.28820   0.06808   0.00000  Uiso   1.00
C295   C     0.91329   0.33827   0.13740   0.00000  Uiso   1.00
C296   C     0.96652   0.36405   0.11749   0.00000  Uiso   1.00
C297   C     0.85685   0.29927   0.99204   0.00000  Uiso   1.00
C298   C     0.81481   0.35866   0.99743   0.00000  Uiso   1.00
C299   C     0.82301   0.39378   0.91350   0.00000  Uiso   1.00
H300   H     0.98363   0.19150   0.84929   0.00000  Uiso   1.00
H301   H     0.96367   0.00308   0.87330   0.00000  Uiso   1.00
H302   H     0.04964   0.27226   0.89521   0.00000  Uiso   1.00
H303   H     0.95118   0.29264   0.75527   0.00000  Uiso   1.00
H304   H     0.92015   0.80455   0.93793   0.00000  Uiso   1.00
H305   H     0.10142   0.37214   0.98413   0.00000  Uiso   1.00
H306   H     0.89381   0.41512   0.68902   0.00000  Uiso   1.00
H307   H     0.81877   0.27131   0.14208   0.00000  Uiso   1.00
H308   H     0.78976   0.08727   0.18216   0.00000  Uiso   1.00
H309   H     0.87573   0.35644   0.20407   0.00000  Uiso   1.00
H310   H     0.77727   0.37682   0.06412   0.00000  Uiso   1.00
H311   H     0.77900   0.87287   0.18861   0.00000  Uiso   1.00
H312   H     0.96028   0.44047   0.23480   0.00000  Uiso   1.00
H313   H     0.75266   0.48345   0.93970   0.00000  Uiso   1.00
O314   O     0.83347   0.71620   0.08437   0.00000  Uiso   1.00
O315   O     0.07130   0.46088   0.14496   0.00000  Uiso   1.00
O316   O     0.79891   0.51726   0.75779   0.00000  Uiso   1.00
N317   N     0.89091   0.84588   0.99142   0.00000  Uiso   1.00
N318   N     0.06039   0.37654   0.03461   0.00000  Uiso   1.00
N319   N     0.86629   0.41674   0.75871   0.00000  Uiso   1.00
N320   N     0.81495   0.88265   0.12631   0.00000  Uiso   1.00
N321   N     0.98444   0.41330   0.16950   0.00000  Uiso   1.00
N322   N     0.79034   0.45351   0.89360   0.00000  Uiso   1.00
C323   C     0.44586   0.70978   0.91637   0.00000  Uiso   1.00
C324   C     0.41215   0.61848   0.97001   0.00000  Uiso   1.00
C325   C     0.42612   0.52123   0.93998   0.00000  Uiso   1.00
C326   C     0.38981   0.44820   0.99923   0.00000  Uiso   1.00
C327   C     0.34486   0.30286   0.06944   0.00000  Uiso   1.00
C328   C     0.45886   0.76472   0.98192   0.00000  Uiso   1.00
C329   C     0.51210   0.79044   0.96190   0.00000  Uiso   1.00
C330   C     0.51512   0.84052   0.03118   0.00000  Uiso   1.00
C331   C     0.54269   0.92228   0.11985   0.00000  Uiso   1.00
C332   C     0.40537   0.77578   0.90588   0.00000  Uiso   1.00
C333   C     0.41363   0.81083   0.82193   0.00000  Uiso   1.00
C334   C     0.37161   0.87025   0.82719   0.00000  Uiso   1.00
C335   C     0.31612   0.96919   0.79780   0.00000  Uiso   1.00
C336   C     0.35654   0.75302   0.07500   0.00000  Uiso   1.00
C337   C     0.36364   0.64197   0.05617   0.00000  Uiso   1.00
C338   C     0.32730   0.56907   0.11548   0.00000  Uiso   1.00
C339   C     0.34121   0.47173   0.08555   0.00000  Uiso   1.00
C340   C     0.41035   0.78820   0.06808   0.00000  Uiso   1.00
C341   C     0.41329   0.83827   0.13740   0.00000  Uiso   1.00
C342   C     0.46652   0.86405   0.11749   0.00000  Uiso   1.00
C343   C     0.35685   0.79927   0.99204   0.00000  Uiso   1.00
C344   C     0.31481   0.85866   0.99743   0.00000  Uiso   1.00
C345   C     0.32301   0.89378   0.91350   0.00000  Uiso   1.00
H346   H     0.48363   0.69150   0.84929   0.00000  Uiso   1.00
H347   H     0.46367   0.50308   0.87330   0.00000  Uiso   1.00
H348   H     0.54964   0.77226   0.89521   0.00000  Uiso   1.00
H349   H     0.45118   0.79264   0.75527   0.00000  Uiso   1.00
H350   H     0.42015   0.30455   0.93793   0.00000  Uiso   1.00
H351   H     0.60142   0.87214   0.98413   0.00000  Uiso   1.00
H352   H     0.39381   0.91512   0.68902   0.00000  Uiso   1.00
H353   H     0.31877   0.77131   0.14208   0.00000  Uiso   1.00
H354   H     0.28976   0.58727   0.18216   0.00000  Uiso   1.00
H355   H     0.37573   0.85644   0.20407   0.00000  Uiso   1.00
H356   H     0.27727   0.87682   0.06412   0.00000  Uiso   1.00
H357   H     0.27900   0.37287   0.18861   0.00000  Uiso   1.00
H358   H     0.46028   0.94047   0.23480   0.00000  Uiso   1.00
H359   H     0.25266   0.98345   0.93970   0.00000  Uiso   1.00
O360   O     0.33347   0.21620   0.08437   0.00000  Uiso   1.00
O361   O     0.57130   0.96088   0.14496   0.00000  Uiso   1.00
O362   O     0.29891   0.01726   0.75779   0.00000  Uiso   1.00
N363   N     0.39091   0.34588   0.99142   0.00000  Uiso   1.00
N364   N     0.56039   0.87654   0.03461   0.00000  Uiso   1.00
N365   N     0.36629   0.91674   0.75871   0.00000  Uiso   1.00
N366   N     0.31495   0.38265   0.12631   0.00000  Uiso   1.00
N367   N     0.48444   0.91330   0.16950   0.00000  Uiso   1.00
N368   N     0.29034   0.95351   0.89360   0.00000  Uiso   1.00
