data_job_04091
_audit_creation_date              2018-12-19
_audit_creation_method            'Materials Studio'
_symmetry_space_group_name_H-M    'P1'
_symmetry_Int_Tables_number       1
_symmetry_cell_setting            triclinic
loop_
_symmetry_equiv_pos_as_xyz
  x,y,z
_cell_length_a                    22.0799
_cell_length_b                    12.7622
_cell_length_c                    33.8072
_cell_angle_alpha                 90.0000
_cell_angle_beta                  141.2639
_cell_angle_gamma                 90.0000
loop_
_atom_site_label
_atom_site_type_symbol
_atom_site_fract_x
_atom_site_fract_y
_atom_site_fract_z
_atom_site_U_iso_or_equiv
_atom_site_adp_type
_atom_site_occupancy
C1     C     0.19966   0.00042   0.02769   0.00000  Uiso   1.00
C2     C     0.21888   0.10761   0.05580   0.00000  Uiso   1.00
C3     C     0.16596   0.19808   0.02171   0.00000  Uiso   1.00
C4     C     0.19510   0.28826   0.05620   0.00000  Uiso   1.00
C5     C     0.21293   0.45477   0.08978   0.00000  Uiso   1.00
C6     C     0.29366   0.96820   0.05530   0.00000  Uiso   1.00
C7     C     0.30360   0.94144   0.02078   0.00000  Uiso   1.00
C8     C     0.39569   0.91425   0.05485   0.00000  Uiso   1.00
C9     C     0.52959   0.86424   0.08766   0.00000  Uiso   1.00
C10    C     0.18641   0.92496   0.05549   0.00000  Uiso   1.00
C11    C     0.10619   0.86182   0.02113   0.00000  Uiso   1.00
C12    C     0.10800   0.79821   0.05536   0.00000  Uiso   1.00
C13    C     0.07538   0.68107   0.08845   0.00000  Uiso   1.00
C14    C     0.34552   0.99969   0.14957   0.00000  Uiso   1.00
C15    C     0.29811   0.10721   0.12200   0.00000  Uiso   1.00
C16    C     0.32734   0.19727   0.15655   0.00000  Uiso   1.00
C17    C     0.27447   0.28786   0.12252   0.00000  Uiso   1.00
C18    C     0.37288   0.96780   0.12150   0.00000  Uiso   1.00
C19    C     0.46498   0.94063   0.15563   0.00000  Uiso   1.00
C20    C     0.47506   0.91385   0.12117   0.00000  Uiso   1.00
C21    C     0.26564   0.92456   0.12169   0.00000  Uiso   1.00
C22    C     0.26757   0.86102   0.15598   0.00000  Uiso   1.00
C23    C     0.18737   0.79781   0.12168   0.00000  Uiso   1.00
H24    H     0.13799   0.00073   0.97615   0.00000  Uiso   1.00
H25    H     0.10466   0.19836   0.97048   0.00000  Uiso   1.00
H26    H     0.24228   0.94175   0.96955   0.00000  Uiso   1.00
H27    H     0.04490   0.86215   0.96990   0.00000  Uiso   1.00
H28    H     0.10267   0.41730   0.99338   0.00000  Uiso   1.00
H29    H     0.39283   0.87619   0.99143   0.00000  Uiso   1.00
H30    H     0.97662   0.70834   0.99216   0.00000  Uiso   1.00
H31    H     0.40721   0.99938   0.20111   0.00000  Uiso   1.00
H32    H     0.38865   0.19694   0.20778   0.00000  Uiso   1.00
H33    H     0.52627   0.94032   0.20686   0.00000  Uiso   1.00
H34    H     0.32889   0.86073   0.20720   0.00000  Uiso   1.00
H35    H     0.33317   0.41615   0.18599   0.00000  Uiso   1.00
H36    H     0.62334   0.87503   0.18404   0.00000  Uiso   1.00
H37    H     0.20713   0.70719   0.18477   0.00000  Uiso   1.00
O38    O     0.20088   0.54672   0.09002   0.00000  Uiso   1.00
O39    O     0.58155   0.83678   0.08746   0.00000  Uiso   1.00
O40    O     0.03550   0.61658   0.08842   0.00000  Uiso   1.00
N41    N     0.15945   0.38992   0.03780   0.00000  Uiso   1.00
N42    N     0.43074   0.88402   0.03598   0.00000  Uiso   1.00
N43    N     0.04163   0.72708   0.03666   0.00000  Uiso   1.00
N44    N     0.28348   0.38930   0.14144   0.00000  Uiso   1.00
N45    N     0.55477   0.88340   0.13962   0.00000  Uiso   1.00
N46    N     0.16566   0.72646   0.14030   0.00000  Uiso   1.00
C47    C     0.69966   0.50042   0.02769   0.00000  Uiso   1.00
C48    C     0.71888   0.60761   0.05580   0.00000  Uiso   1.00
C49    C     0.66596   0.69808   0.02171   0.00000  Uiso   1.00
C50    C     0.69510   0.78826   0.05620   0.00000  Uiso   1.00
C51    C     0.71293   0.95477   0.08978   0.00000  Uiso   1.00
C52    C     0.79366   0.46820   0.05530   0.00000  Uiso   1.00
C53    C     0.80360   0.44144   0.02078   0.00000  Uiso   1.00
C54    C     0.89569   0.41425   0.05485   0.00000  Uiso   1.00
C55    C     0.02959   0.36424   0.08766   0.00000  Uiso   1.00
C56    C     0.68641   0.42496   0.05549   0.00000  Uiso   1.00
C57    C     0.60619   0.36182   0.02113   0.00000  Uiso   1.00
C58    C     0.60800   0.29821   0.05536   0.00000  Uiso   1.00
C59    C     0.57538   0.18107   0.08845   0.00000  Uiso   1.00
C60    C     0.84552   0.49969   0.14957   0.00000  Uiso   1.00
C61    C     0.79811   0.60721   0.12200   0.00000  Uiso   1.00
C62    C     0.82734   0.69727   0.15655   0.00000  Uiso   1.00
C63    C     0.77447   0.78786   0.12252   0.00000  Uiso   1.00
C64    C     0.87288   0.46780   0.12150   0.00000  Uiso   1.00
C65    C     0.96498   0.44063   0.15563   0.00000  Uiso   1.00
C66    C     0.97506   0.41385   0.12117   0.00000  Uiso   1.00
C67    C     0.76564   0.42456   0.12169   0.00000  Uiso   1.00
C68    C     0.76757   0.36102   0.15598   0.00000  Uiso   1.00
C69    C     0.68737   0.29781   0.12168   0.00000  Uiso   1.00
H70    H     0.63799   0.50073   0.97615   0.00000  Uiso   1.00
H71    H     0.60466   0.69836   0.97048   0.00000  Uiso   1.00
H72    H     0.74228   0.44175   0.96955   0.00000  Uiso   1.00
H73    H     0.54490   0.36215   0.96990   0.00000  Uiso   1.00
H74    H     0.60267   0.91730   0.99338   0.00000  Uiso   1.00
H75    H     0.89283   0.37619   0.99143   0.00000  Uiso   1.00
H76    H     0.47662   0.20834   0.99216   0.00000  Uiso   1.00
H77    H     0.90721   0.49938   0.20111   0.00000  Uiso   1.00
H78    H     0.88865   0.69694   0.20778   0.00000  Uiso   1.00
H79    H     0.02627   0.44032   0.20686   0.00000  Uiso   1.00
H80    H     0.82889   0.36073   0.20720   0.00000  Uiso   1.00
H81    H     0.83317   0.91615   0.18599   0.00000  Uiso   1.00
H82    H     0.12334   0.37503   0.18404   0.00000  Uiso   1.00
H83    H     0.70713   0.20719   0.18477   0.00000  Uiso   1.00
O84    O     0.70088   0.04672   0.09002   0.00000  Uiso   1.00
O85    O     0.08155   0.33678   0.08746   0.00000  Uiso   1.00
O86    O     0.53550   0.11658   0.08842   0.00000  Uiso   1.00
N87    N     0.65945   0.88992   0.03780   0.00000  Uiso   1.00
N88    N     0.93074   0.38402   0.03598   0.00000  Uiso   1.00
N89    N     0.54163   0.22708   0.03666   0.00000  Uiso   1.00
N90    N     0.78348   0.88930   0.14144   0.00000  Uiso   1.00
N91    N     0.05477   0.38340   0.13962   0.00000  Uiso   1.00
N92    N     0.66566   0.22646   0.14030   0.00000  Uiso   1.00
C93    C     0.80034   0.00042   0.47231   0.00000  Uiso   1.00
C94    C     0.78112   0.10761   0.44420   0.00000  Uiso   1.00
C95    C     0.83404   0.19808   0.47829   0.00000  Uiso   1.00
C96    C     0.80490   0.28826   0.44380   0.00000  Uiso   1.00
C97    C     0.78707   0.45477   0.41022   0.00000  Uiso   1.00
C98    C     0.70634   0.96820   0.44470   0.00000  Uiso   1.00
C99    C     0.69640   0.94144   0.47922   0.00000  Uiso   1.00
C100   C     0.60431   0.91425   0.44515   0.00000  Uiso   1.00
C101   C     0.47041   0.86424   0.41234   0.00000  Uiso   1.00
C102   C     0.81359   0.92496   0.44451   0.00000  Uiso   1.00
C103   C     0.89381   0.86182   0.47887   0.00000  Uiso   1.00
C104   C     0.89200   0.79821   0.44464   0.00000  Uiso   1.00
C105   C     0.92462   0.68107   0.41155   0.00000  Uiso   1.00
C106   C     0.65448   0.99969   0.35043   0.00000  Uiso   1.00
C107   C     0.70189   0.10721   0.37800   0.00000  Uiso   1.00
C108   C     0.67266   0.19727   0.34345   0.00000  Uiso   1.00
C109   C     0.72553   0.28786   0.37748   0.00000  Uiso   1.00
C110   C     0.62712   0.96780   0.37850   0.00000  Uiso   1.00
C111   C     0.53502   0.94063   0.34437   0.00000  Uiso   1.00
C112   C     0.52494   0.91385   0.37883   0.00000  Uiso   1.00
C113   C     0.73436   0.92456   0.37831   0.00000  Uiso   1.00
C114   C     0.73243   0.86102   0.34402   0.00000  Uiso   1.00
C115   C     0.81263   0.79781   0.37832   0.00000  Uiso   1.00
H116   H     0.86201   0.00073   0.52385   0.00000  Uiso   1.00
H117   H     0.89534   0.19836   0.52952   0.00000  Uiso   1.00
H118   H     0.75772   0.94175   0.53045   0.00000  Uiso   1.00
H119   H     0.95510   0.86215   0.53010   0.00000  Uiso   1.00
H120   H     0.89733   0.41730   0.50662   0.00000  Uiso   1.00
H121   H     0.60717   0.87619   0.50857   0.00000  Uiso   1.00
H122   H     0.02338   0.70834   0.50784   0.00000  Uiso   1.00
H123   H     0.59279   0.99938   0.29889   0.00000  Uiso   1.00
H124   H     0.61135   0.19694   0.29222   0.00000  Uiso   1.00
H125   H     0.47373   0.94032   0.29314   0.00000  Uiso   1.00
H126   H     0.67111   0.86073   0.29280   0.00000  Uiso   1.00
H127   H     0.66683   0.41615   0.31401   0.00000  Uiso   1.00
H128   H     0.37666   0.87503   0.31596   0.00000  Uiso   1.00
H129   H     0.79287   0.70719   0.31523   0.00000  Uiso   1.00
O130   O     0.79912   0.54672   0.40998   0.00000  Uiso   1.00
O131   O     0.41845   0.83678   0.41254   0.00000  Uiso   1.00
O132   O     0.96450   0.61658   0.41158   0.00000  Uiso   1.00
N133   N     0.84055   0.38992   0.46220   0.00000  Uiso   1.00
N134   N     0.56926   0.88402   0.46402   0.00000  Uiso   1.00
N135   N     0.95837   0.72708   0.46334   0.00000  Uiso   1.00
N136   N     0.71652   0.38930   0.35856   0.00000  Uiso   1.00
N137   N     0.44523   0.88340   0.36038   0.00000  Uiso   1.00
N138   N     0.83434   0.72646   0.35970   0.00000  Uiso   1.00
C139   C     0.30034   0.50042   0.47231   0.00000  Uiso   1.00
C140   C     0.28112   0.60761   0.44420   0.00000  Uiso   1.00
C141   C     0.33404   0.69808   0.47829   0.00000  Uiso   1.00
C142   C     0.30490   0.78826   0.44380   0.00000  Uiso   1.00
C143   C     0.28707   0.95477   0.41022   0.00000  Uiso   1.00
C144   C     0.20634   0.46820   0.44470   0.00000  Uiso   1.00
C145   C     0.19640   0.44144   0.47922   0.00000  Uiso   1.00
C146   C     0.10431   0.41425   0.44515   0.00000  Uiso   1.00
C147   C     0.97041   0.36424   0.41234   0.00000  Uiso   1.00
C148   C     0.31359   0.42496   0.44451   0.00000  Uiso   1.00
C149   C     0.39381   0.36182   0.47887   0.00000  Uiso   1.00
C150   C     0.39200   0.29821   0.44464   0.00000  Uiso   1.00
C151   C     0.42462   0.18107   0.41155   0.00000  Uiso   1.00
C152   C     0.15448   0.49969   0.35043   0.00000  Uiso   1.00
C153   C     0.20189   0.60721   0.37800   0.00000  Uiso   1.00
C154   C     0.17266   0.69727   0.34345   0.00000  Uiso   1.00
C155   C     0.22553   0.78786   0.37748   0.00000  Uiso   1.00
C156   C     0.12712   0.46780   0.37850   0.00000  Uiso   1.00
C157   C     0.03502   0.44063   0.34437   0.00000  Uiso   1.00
C158   C     0.02494   0.41385   0.37883   0.00000  Uiso   1.00
C159   C     0.23436   0.42456   0.37831   0.00000  Uiso   1.00
C160   C     0.23243   0.36102   0.34402   0.00000  Uiso   1.00
C161   C     0.31263   0.29781   0.37832   0.00000  Uiso   1.00
H162   H     0.36201   0.50073   0.52385   0.00000  Uiso   1.00
H163   H     0.39534   0.69836   0.52952   0.00000  Uiso   1.00
H164   H     0.25772   0.44175   0.53045   0.00000  Uiso   1.00
H165   H     0.45510   0.36215   0.53010   0.00000  Uiso   1.00
H166   H     0.39733   0.91730   0.50662   0.00000  Uiso   1.00
H167   H     0.10717   0.37619   0.50857   0.00000  Uiso   1.00
H168   H     0.52338   0.20834   0.50784   0.00000  Uiso   1.00
H169   H     0.09279   0.49938   0.29889   0.00000  Uiso   1.00
H170   H     0.11135   0.69694   0.29222   0.00000  Uiso   1.00
H171   H     0.97373   0.44032   0.29314   0.00000  Uiso   1.00
H172   H     0.17111   0.36073   0.29280   0.00000  Uiso   1.00
H173   H     0.16683   0.91615   0.31401   0.00000  Uiso   1.00
H174   H     0.87666   0.37503   0.31596   0.00000  Uiso   1.00
H175   H     0.29287   0.20719   0.31523   0.00000  Uiso   1.00
O176   O     0.29912   0.04672   0.40998   0.00000  Uiso   1.00
O177   O     0.91845   0.33678   0.41254   0.00000  Uiso   1.00
O178   O     0.46450   0.11658   0.41158   0.00000  Uiso   1.00
N179   N     0.34055   0.88992   0.46220   0.00000  Uiso   1.00
N180   N     0.06926   0.38402   0.46402   0.00000  Uiso   1.00
N181   N     0.45837   0.22708   0.46334   0.00000  Uiso   1.00
N182   N     0.21652   0.88930   0.35856   0.00000  Uiso   1.00
N183   N     0.94523   0.38340   0.36038   0.00000  Uiso   1.00
N184   N     0.33434   0.22646   0.35970   0.00000  Uiso   1.00
C185   C     0.80034   0.99958   0.97231   0.00000  Uiso   1.00
C186   C     0.78112   0.89239   0.94420   0.00000  Uiso   1.00
C187   C     0.83404   0.80192   0.97829   0.00000  Uiso   1.00
C188   C     0.80490   0.71174   0.94380   0.00000  Uiso   1.00
C189   C     0.78707   0.54523   0.91022   0.00000  Uiso   1.00
C190   C     0.70634   0.03180   0.94470   0.00000  Uiso   1.00
C191   C     0.69640   0.05856   0.97922   0.00000  Uiso   1.00
C192   C     0.60431   0.08575   0.94515   0.00000  Uiso   1.00
C193   C     0.47041   0.13576   0.91234   0.00000  Uiso   1.00
C194   C     0.81359   0.07504   0.94451   0.00000  Uiso   1.00
C195   C     0.89381   0.13818   0.97887   0.00000  Uiso   1.00
C196   C     0.89200   0.20179   0.94464   0.00000  Uiso   1.00
C197   C     0.92462   0.31893   0.91155   0.00000  Uiso   1.00
C198   C     0.65448   0.00031   0.85043   0.00000  Uiso   1.00
C199   C     0.70189   0.89279   0.87800   0.00000  Uiso   1.00
C200   C     0.67266   0.80273   0.84345   0.00000  Uiso   1.00
C201   C     0.72553   0.71214   0.87748   0.00000  Uiso   1.00
C202   C     0.62712   0.03220   0.87850   0.00000  Uiso   1.00
C203   C     0.53502   0.05937   0.84437   0.00000  Uiso   1.00
C204   C     0.52494   0.08615   0.87883   0.00000  Uiso   1.00
C205   C     0.73436   0.07544   0.87831   0.00000  Uiso   1.00
C206   C     0.73243   0.13898   0.84402   0.00000  Uiso   1.00
C207   C     0.81263   0.20219   0.87832   0.00000  Uiso   1.00
H208   H     0.86201   0.99927   0.02385   0.00000  Uiso   1.00
H209   H     0.89534   0.80164   0.02952   0.00000  Uiso   1.00
H210   H     0.75772   0.05825   0.03045   0.00000  Uiso   1.00
H211   H     0.95510   0.13785   0.03010   0.00000  Uiso   1.00
H212   H     0.89733   0.58270   0.00662   0.00000  Uiso   1.00
H213   H     0.60717   0.12381   0.00857   0.00000  Uiso   1.00
H214   H     0.02338   0.29166   0.00784   0.00000  Uiso   1.00
H215   H     0.59279   0.00062   0.79889   0.00000  Uiso   1.00
H216   H     0.61135   0.80306   0.79222   0.00000  Uiso   1.00
H217   H     0.47373   0.05968   0.79314   0.00000  Uiso   1.00
H218   H     0.67111   0.13927   0.79280   0.00000  Uiso   1.00
H219   H     0.66683   0.58385   0.81401   0.00000  Uiso   1.00
H220   H     0.37666   0.12497   0.81596   0.00000  Uiso   1.00
H221   H     0.79287   0.29281   0.81523   0.00000  Uiso   1.00
O222   O     0.79912   0.45328   0.90998   0.00000  Uiso   1.00
O223   O     0.41845   0.16322   0.91254   0.00000  Uiso   1.00
O224   O     0.96450   0.38342   0.91158   0.00000  Uiso   1.00
N225   N     0.84055   0.61008   0.96220   0.00000  Uiso   1.00
N226   N     0.56926   0.11598   0.96402   0.00000  Uiso   1.00
N227   N     0.95837   0.27292   0.96334   0.00000  Uiso   1.00
N228   N     0.71652   0.61070   0.85856   0.00000  Uiso   1.00
N229   N     0.44523   0.11660   0.86038   0.00000  Uiso   1.00
N230   N     0.83434   0.27354   0.85970   0.00000  Uiso   1.00
C231   C     0.30034   0.49958   0.97231   0.00000  Uiso   1.00
C232   C     0.28112   0.39239   0.94420   0.00000  Uiso   1.00
C233   C     0.33404   0.30192   0.97829   0.00000  Uiso   1.00
C234   C     0.30490   0.21174   0.94380   0.00000  Uiso   1.00
C235   C     0.28707   0.04523   0.91022   0.00000  Uiso   1.00
C236   C     0.20634   0.53180   0.94470   0.00000  Uiso   1.00
C237   C     0.19640   0.55856   0.97922   0.00000  Uiso   1.00
C238   C     0.10431   0.58575   0.94515   0.00000  Uiso   1.00
C239   C     0.97041   0.63576   0.91234   0.00000  Uiso   1.00
C240   C     0.31359   0.57504   0.94451   0.00000  Uiso   1.00
C241   C     0.39381   0.63818   0.97887   0.00000  Uiso   1.00
C242   C     0.39200   0.70179   0.94464   0.00000  Uiso   1.00
C243   C     0.42462   0.81893   0.91155   0.00000  Uiso   1.00
C244   C     0.15448   0.50031   0.85043   0.00000  Uiso   1.00
C245   C     0.20189   0.39279   0.87800   0.00000  Uiso   1.00
C246   C     0.17266   0.30273   0.84345   0.00000  Uiso   1.00
C247   C     0.22553   0.21214   0.87748   0.00000  Uiso   1.00
C248   C     0.12712   0.53220   0.87850   0.00000  Uiso   1.00
C249   C     0.03502   0.55937   0.84437   0.00000  Uiso   1.00
C250   C     0.02494   0.58615   0.87883   0.00000  Uiso   1.00
C251   C     0.23436   0.57544   0.87831   0.00000  Uiso   1.00
C252   C     0.23243   0.63898   0.84402   0.00000  Uiso   1.00
C253   C     0.31263   0.70219   0.87832   0.00000  Uiso   1.00
H254   H     0.36201   0.49927   0.02385   0.00000  Uiso   1.00
H255   H     0.39534   0.30164   0.02952   0.00000  Uiso   1.00
H256   H     0.25772   0.55825   0.03045   0.00000  Uiso   1.00
H257   H     0.45510   0.63785   0.03010   0.00000  Uiso   1.00
H258   H     0.39733   0.08270   0.00662   0.00000  Uiso   1.00
H259   H     0.10717   0.62381   0.00857   0.00000  Uiso   1.00
H260   H     0.52338   0.79166   0.00784   0.00000  Uiso   1.00
H261   H     0.09279   0.50062   0.79889   0.00000  Uiso   1.00
H262   H     0.11135   0.30306   0.79222   0.00000  Uiso   1.00
H263   H     0.97373   0.55968   0.79314   0.00000  Uiso   1.00
H264   H     0.17111   0.63927   0.79280   0.00000  Uiso   1.00
H265   H     0.16683   0.08385   0.81401   0.00000  Uiso   1.00
H266   H     0.87666   0.62497   0.81596   0.00000  Uiso   1.00
H267   H     0.29287   0.79281   0.81523   0.00000  Uiso   1.00
O268   O     0.29912   0.95328   0.90998   0.00000  Uiso   1.00
O269   O     0.91845   0.66322   0.91254   0.00000  Uiso   1.00
O270   O     0.46450   0.88342   0.91158   0.00000  Uiso   1.00
N271   N     0.34055   0.11008   0.96220   0.00000  Uiso   1.00
N272   N     0.06926   0.61598   0.96402   0.00000  Uiso   1.00
N273   N     0.45837   0.77292   0.96334   0.00000  Uiso   1.00
N274   N     0.21652   0.11070   0.85856   0.00000  Uiso   1.00
N275   N     0.94523   0.61660   0.86038   0.00000  Uiso   1.00
N276   N     0.33434   0.77354   0.85970   0.00000  Uiso   1.00
C277   C     0.19966   0.99958   0.52769   0.00000  Uiso   1.00
C278   C     0.21888   0.89239   0.55580   0.00000  Uiso   1.00
C279   C     0.16596   0.80192   0.52171   0.00000  Uiso   1.00
C280   C     0.19510   0.71174   0.55620   0.00000  Uiso   1.00
C281   C     0.21293   0.54523   0.58978   0.00000  Uiso   1.00
C282   C     0.29366   0.03180   0.55530   0.00000  Uiso   1.00
C283   C     0.30360   0.05856   0.52078   0.00000  Uiso   1.00
C284   C     0.39569   0.08575   0.55485   0.00000  Uiso   1.00
C285   C     0.52959   0.13576   0.58766   0.00000  Uiso   1.00
C286   C     0.18641   0.07504   0.55549   0.00000  Uiso   1.00
C287   C     0.10619   0.13818   0.52113   0.00000  Uiso   1.00
C288   C     0.10800   0.20179   0.55536   0.00000  Uiso   1.00
C289   C     0.07538   0.31893   0.58845   0.00000  Uiso   1.00
C290   C     0.34552   0.00031   0.64957   0.00000  Uiso   1.00
C291   C     0.29811   0.89279   0.62200   0.00000  Uiso   1.00
C292   C     0.32734   0.80273   0.65655   0.00000  Uiso   1.00
C293   C     0.27447   0.71214   0.62252   0.00000  Uiso   1.00
C294   C     0.37288   0.03220   0.62150   0.00000  Uiso   1.00
C295   C     0.46498   0.05937   0.65563   0.00000  Uiso   1.00
C296   C     0.47506   0.08615   0.62117   0.00000  Uiso   1.00
C297   C     0.26564   0.07544   0.62169   0.00000  Uiso   1.00
C298   C     0.26757   0.13898   0.65598   0.00000  Uiso   1.00
C299   C     0.18737   0.20219   0.62168   0.00000  Uiso   1.00
H300   H     0.13799   0.99927   0.47615   0.00000  Uiso   1.00
H301   H     0.10466   0.80164   0.47048   0.00000  Uiso   1.00
H302   H     0.24228   0.05825   0.46955   0.00000  Uiso   1.00
H303   H     0.04490   0.13785   0.46990   0.00000  Uiso   1.00
H304   H     0.10267   0.58270   0.49338   0.00000  Uiso   1.00
H305   H     0.39283   0.12381   0.49143   0.00000  Uiso   1.00
H306   H     0.97662   0.29166   0.49216   0.00000  Uiso   1.00
H307   H     0.40721   0.00062   0.70111   0.00000  Uiso   1.00
H308   H     0.38865   0.80306   0.70778   0.00000  Uiso   1.00
H309   H     0.52627   0.05968   0.70686   0.00000  Uiso   1.00
H310   H     0.32889   0.13927   0.70720   0.00000  Uiso   1.00
H311   H     0.33317   0.58385   0.68599   0.00000  Uiso   1.00
H312   H     0.62334   0.12497   0.68404   0.00000  Uiso   1.00
H313   H     0.20713   0.29281   0.68477   0.00000  Uiso   1.00
O314   O     0.20088   0.45328   0.59002   0.00000  Uiso   1.00
O315   O     0.58155   0.16322   0.58746   0.00000  Uiso   1.00
O316   O     0.03550   0.38342   0.58842   0.00000  Uiso   1.00
N317   N     0.15945   0.61008   0.53780   0.00000  Uiso   1.00
N318   N     0.43074   0.11598   0.53598   0.00000  Uiso   1.00
N319   N     0.04163   0.27292   0.53666   0.00000  Uiso   1.00
N320   N     0.28348   0.61070   0.64144   0.00000  Uiso   1.00
N321   N     0.55477   0.11660   0.63962   0.00000  Uiso   1.00
N322   N     0.16566   0.27354   0.64030   0.00000  Uiso   1.00
C323   C     0.69966   0.49958   0.52769   0.00000  Uiso   1.00
C324   C     0.71888   0.39239   0.55580   0.00000  Uiso   1.00
C325   C     0.66596   0.30192   0.52171   0.00000  Uiso   1.00
C326   C     0.69510   0.21174   0.55620   0.00000  Uiso   1.00
C327   C     0.71293   0.04523   0.58978   0.00000  Uiso   1.00
C328   C     0.79366   0.53180   0.55530   0.00000  Uiso   1.00
C329   C     0.80360   0.55856   0.52078   0.00000  Uiso   1.00
C330   C     0.89569   0.58575   0.55485   0.00000  Uiso   1.00
C331   C     0.02959   0.63576   0.58766   0.00000  Uiso   1.00
C332   C     0.68641   0.57504   0.55549   0.00000  Uiso   1.00
C333   C     0.60619   0.63818   0.52113   0.00000  Uiso   1.00
C334   C     0.60800   0.70179   0.55536   0.00000  Uiso   1.00
C335   C     0.57538   0.81893   0.58845   0.00000  Uiso   1.00
C336   C     0.84552   0.50031   0.64957   0.00000  Uiso   1.00
C337   C     0.79811   0.39279   0.62200   0.00000  Uiso   1.00
C338   C     0.82734   0.30273   0.65655   0.00000  Uiso   1.00
C339   C     0.77447   0.21214   0.62252   0.00000  Uiso   1.00
C340   C     0.87288   0.53220   0.62150   0.00000  Uiso   1.00
C341   C     0.96498   0.55937   0.65563   0.00000  Uiso   1.00
C342   C     0.97506   0.58615   0.62117   0.00000  Uiso   1.00
C343   C     0.76564   0.57544   0.62169   0.00000  Uiso   1.00
C344   C     0.76757   0.63898   0.65598   0.00000  Uiso   1.00
C345   C     0.68737   0.70219   0.62168   0.00000  Uiso   1.00
H346   H     0.63799   0.49927   0.47615   0.00000  Uiso   1.00
H347   H     0.60466   0.30164   0.47048   0.00000  Uiso   1.00
H348   H     0.74228   0.55825   0.46955   0.00000  Uiso   1.00
H349   H     0.54490   0.63785   0.46990   0.00000  Uiso   1.00
H350   H     0.60267   0.08270   0.49338   0.00000  Uiso   1.00
H351   H     0.89283   0.62381   0.49143   0.00000  Uiso   1.00
H352   H     0.47662   0.79166   0.49216   0.00000  Uiso   1.00
H353   H     0.90721   0.50062   0.70111   0.00000  Uiso   1.00
H354   H     0.88865   0.30306   0.70778   0.00000  Uiso   1.00
H355   H     0.02627   0.55968   0.70686   0.00000  Uiso   1.00
H356   H     0.82889   0.63927   0.70720   0.00000  Uiso   1.00
H357   H     0.83317   0.08385   0.68599   0.00000  Uiso   1.00
H358   H     0.12334   0.62497   0.68404   0.00000  Uiso   1.00
H359   H     0.70713   0.79281   0.68477   0.00000  Uiso   1.00
O360   O     0.70088   0.95328   0.59002   0.00000  Uiso   1.00
O361   O     0.08155   0.66322   0.58746   0.00000  Uiso   1.00
O362   O     0.53550   0.88342   0.58842   0.00000  Uiso   1.00
N363   N     0.65945   0.11008   0.53780   0.00000  Uiso   1.00
N364   N     0.93074   0.61598   0.53598   0.00000  Uiso   1.00
N365   N     0.54163   0.77292   0.53666   0.00000  Uiso   1.00
N366   N     0.78348   0.11070   0.64144   0.00000  Uiso   1.00
N367   N     0.05477   0.61660   0.63962   0.00000  Uiso   1.00
N368   N     0.66566   0.77354   0.64030   0.00000  Uiso   1.00
