data_job_00982
_audit_creation_date              2018-12-19
_audit_creation_method            'Materials Studio'
_symmetry_space_group_name_H-M    'P1'
_symmetry_Int_Tables_number       1
_symmetry_cell_setting            triclinic
loop_
_symmetry_equiv_pos_as_xyz
  x,y,z
_cell_length_a                    11.9923
_cell_length_b                    14.2217
_cell_length_c                    27.6290
_cell_angle_alpha                 90.0000
_cell_angle_beta                  90.0000
_cell_angle_gamma                 90.0000
loop_
_atom_site_label
_atom_site_type_symbol
_atom_site_fract_x
_atom_site_fract_y
_atom_site_fract_z
_atom_site_U_iso_or_equiv
_atom_site_adp_type
_atom_site_occupancy
C1     C     0.79079   0.31546   0.86651   0.00000  Uiso   1.00
C2     C     0.88059   0.38820   0.87771   0.00000  Uiso   1.00
C3     C     0.98637   0.36900   0.89551   0.00000  Uiso   1.00
C4     C     0.05629   0.44530   0.90337   0.00000  Uiso   1.00
C5     C     0.20099   0.54423   0.92224   0.00000  Uiso   1.00
C6     C     0.68891   0.34406   0.89608   0.00000  Uiso   1.00
C7     C     0.63353   0.28775   0.92932   0.00000  Uiso   1.00
C8     C     0.54208   0.32690   0.95264   0.00000  Uiso   1.00
C9     C     0.38915   0.35728   0.00001   0.00000  Uiso   1.00
C10    C     0.75904   0.33037   0.81362   0.00000  Uiso   1.00
C11    C     0.76259   0.26255   0.77754   0.00000  Uiso   1.00
C12    C     0.73016   0.29017   0.73144   0.00000  Uiso   1.00
C13    C     0.68612   0.29930   0.65078   0.00000  Uiso   1.00
C14    C     0.72684   0.48510   0.84881   0.00000  Uiso   1.00
C15    C     0.84585   0.48034   0.86809   0.00000  Uiso   1.00
C16    C     0.91562   0.55669   0.87592   0.00000  Uiso   1.00
C17    C     0.02149   0.53761   0.89374   0.00000  Uiso   1.00
C18    C     0.65417   0.43620   0.88646   0.00000  Uiso   1.00
C19    C     0.56278   0.47543   0.90974   0.00000  Uiso   1.00
C20    C     0.50728   0.41920   0.94301   0.00000  Uiso   1.00
C21    C     0.72431   0.42251   0.80401   0.00000  Uiso   1.00
C22    C     0.69185   0.45024   0.75795   0.00000  Uiso   1.00
C23    C     0.69536   0.38247   0.72181   0.00000  Uiso   1.00
H24    H     0.81782   0.24373   0.87400   0.00000  Uiso   1.00
H25    H     0.01322   0.29769   0.90296   0.00000  Uiso   1.00
H26    H     0.66042   0.21645   0.93676   0.00000  Uiso   1.00
H27    H     0.78948   0.19126   0.78500   0.00000  Uiso   1.00
H28    H     0.21452   0.39815   0.93083   0.00000  Uiso   1.00
H29    H     0.47061   0.22684   0.00209   0.00000  Uiso   1.00
H30    H     0.74274   0.17371   0.68208   0.00000  Uiso   1.00
H31    H     0.69979   0.55683   0.84132   0.00000  Uiso   1.00
H32    H     0.88872   0.62798   0.86848   0.00000  Uiso   1.00
H33    H     0.53592   0.54674   0.90228   0.00000  Uiso   1.00
H34    H     0.66498   0.52155   0.75052   0.00000  Uiso   1.00
H35    H     0.11347   0.66623   0.90285   0.00000  Uiso   1.00
H36    H     0.36955   0.49491   0.97411   0.00000  Uiso   1.00
H37    H     0.64169   0.44179   0.65410   0.00000  Uiso   1.00
O38    O     0.29039   0.57334   0.93531   0.00000  Uiso   1.00
O39    O     0.31439   0.34858   0.02879   0.00000  Uiso   1.00
O40    O     0.67144   0.27889   0.60895   0.00000  Uiso   1.00
N41    N     0.16481   0.45148   0.92051   0.00000  Uiso   1.00
N42    N     0.46931   0.29131   0.98714   0.00000  Uiso   1.00
N43    N     0.72371   0.24164   0.68796   0.00000  Uiso   1.00
N44    N     0.11044   0.59573   0.90545   0.00000  Uiso   1.00
N45    N     0.41494   0.43557   0.97208   0.00000  Uiso   1.00
N46    N     0.66933   0.38589   0.67290   0.00000  Uiso   1.00
C47    C     0.70921   0.18454   0.36651   0.00000  Uiso   1.00
C48    C     0.61941   0.11180   0.37771   0.00000  Uiso   1.00
C49    C     0.51363   0.13100   0.39551   0.00000  Uiso   1.00
C50    C     0.44371   0.05470   0.40337   0.00000  Uiso   1.00
C51    C     0.29901   0.95577   0.42224   0.00000  Uiso   1.00
C52    C     0.81109   0.15594   0.39608   0.00000  Uiso   1.00
C53    C     0.86647   0.21225   0.42932   0.00000  Uiso   1.00
C54    C     0.95792   0.17310   0.45264   0.00000  Uiso   1.00
C55    C     0.11085   0.14272   0.50001   0.00000  Uiso   1.00
C56    C     0.74096   0.16963   0.31362   0.00000  Uiso   1.00
C57    C     0.73741   0.23745   0.27754   0.00000  Uiso   1.00
C58    C     0.76984   0.20983   0.23144   0.00000  Uiso   1.00
C59    C     0.81388   0.20070   0.15078   0.00000  Uiso   1.00
C60    C     0.77316   0.01490   0.34881   0.00000  Uiso   1.00
C61    C     0.65415   0.01966   0.36809   0.00000  Uiso   1.00
C62    C     0.58438   0.94331   0.37592   0.00000  Uiso   1.00
C63    C     0.47851   0.96239   0.39374   0.00000  Uiso   1.00
C64    C     0.84583   0.06380   0.38646   0.00000  Uiso   1.00
C65    C     0.93722   0.02457   0.40974   0.00000  Uiso   1.00
C66    C     0.99272   0.08080   0.44301   0.00000  Uiso   1.00
C67    C     0.77569   0.07749   0.30401   0.00000  Uiso   1.00
C68    C     0.80815   0.04976   0.25795   0.00000  Uiso   1.00
C69    C     0.80464   0.11753   0.22181   0.00000  Uiso   1.00
H70    H     0.68218   0.25627   0.37400   0.00000  Uiso   1.00
H71    H     0.48678   0.20231   0.40296   0.00000  Uiso   1.00
H72    H     0.83958   0.28355   0.43676   0.00000  Uiso   1.00
H73    H     0.71052   0.30874   0.28500   0.00000  Uiso   1.00
H74    H     0.28548   0.10185   0.43083   0.00000  Uiso   1.00
H75    H     0.02939   0.27316   0.50209   0.00000  Uiso   1.00
H76    H     0.75726   0.32629   0.18208   0.00000  Uiso   1.00
H77    H     0.80021   0.94317   0.34132   0.00000  Uiso   1.00
H78    H     0.61128   0.87202   0.36848   0.00000  Uiso   1.00
H79    H     0.96408   0.95326   0.40228   0.00000  Uiso   1.00
H80    H     0.83502   0.97845   0.25052   0.00000  Uiso   1.00
H81    H     0.38653   0.83377   0.40285   0.00000  Uiso   1.00
H82    H     0.13045   0.00509   0.47411   0.00000  Uiso   1.00
H83    H     0.85831   0.05821   0.15410   0.00000  Uiso   1.00
O84    O     0.20961   0.92666   0.43531   0.00000  Uiso   1.00
O85    O     0.18561   0.15142   0.52879   0.00000  Uiso   1.00
O86    O     0.82856   0.22111   0.10895   0.00000  Uiso   1.00
N87    N     0.33519   0.04852   0.42051   0.00000  Uiso   1.00
N88    N     0.03069   0.20869   0.48714   0.00000  Uiso   1.00
N89    N     0.77629   0.25836   0.18796   0.00000  Uiso   1.00
N90    N     0.38956   0.90427   0.40545   0.00000  Uiso   1.00
N91    N     0.08506   0.06443   0.47208   0.00000  Uiso   1.00
N92    N     0.83067   0.11411   0.17290   0.00000  Uiso   1.00
C93    C     0.20921   0.31546   0.63349   0.00000  Uiso   1.00
C94    C     0.11941   0.38820   0.62229   0.00000  Uiso   1.00
C95    C     0.01363   0.36900   0.60449   0.00000  Uiso   1.00
C96    C     0.94371   0.44530   0.59663   0.00000  Uiso   1.00
C97    C     0.79901   0.54423   0.57776   0.00000  Uiso   1.00
C98    C     0.31109   0.34406   0.60392   0.00000  Uiso   1.00
C99    C     0.36647   0.28775   0.57068   0.00000  Uiso   1.00
C100   C     0.45792   0.32690   0.54736   0.00000  Uiso   1.00
C101   C     0.61085   0.35728   0.49999   0.00000  Uiso   1.00
C102   C     0.24096   0.33037   0.68638   0.00000  Uiso   1.00
C103   C     0.23741   0.26255   0.72246   0.00000  Uiso   1.00
C104   C     0.26984   0.29017   0.76856   0.00000  Uiso   1.00
C105   C     0.31388   0.29930   0.84922   0.00000  Uiso   1.00
C106   C     0.27316   0.48510   0.65119   0.00000  Uiso   1.00
C107   C     0.15415   0.48034   0.63191   0.00000  Uiso   1.00
C108   C     0.08438   0.55669   0.62408   0.00000  Uiso   1.00
C109   C     0.97851   0.53761   0.60626   0.00000  Uiso   1.00
C110   C     0.34583   0.43620   0.61354   0.00000  Uiso   1.00
C111   C     0.43722   0.47543   0.59026   0.00000  Uiso   1.00
C112   C     0.49272   0.41920   0.55699   0.00000  Uiso   1.00
C113   C     0.27569   0.42251   0.69599   0.00000  Uiso   1.00
C114   C     0.30815   0.45024   0.74205   0.00000  Uiso   1.00
C115   C     0.30464   0.38247   0.77819   0.00000  Uiso   1.00
H116   H     0.18218   0.24373   0.62600   0.00000  Uiso   1.00
H117   H     0.98678   0.29769   0.59704   0.00000  Uiso   1.00
H118   H     0.33958   0.21645   0.56324   0.00000  Uiso   1.00
H119   H     0.21052   0.19126   0.71500   0.00000  Uiso   1.00
H120   H     0.78548   0.39815   0.56917   0.00000  Uiso   1.00
H121   H     0.52939   0.22684   0.49791   0.00000  Uiso   1.00
H122   H     0.25726   0.17371   0.81792   0.00000  Uiso   1.00
H123   H     0.30021   0.55683   0.65868   0.00000  Uiso   1.00
H124   H     0.11128   0.62798   0.63152   0.00000  Uiso   1.00
H125   H     0.46408   0.54674   0.59772   0.00000  Uiso   1.00
H126   H     0.33502   0.52155   0.74948   0.00000  Uiso   1.00
H127   H     0.88653   0.66623   0.59715   0.00000  Uiso   1.00
H128   H     0.63045   0.49491   0.52589   0.00000  Uiso   1.00
H129   H     0.35831   0.44179   0.84590   0.00000  Uiso   1.00
O130   O     0.70961   0.57334   0.56469   0.00000  Uiso   1.00
O131   O     0.68561   0.34858   0.47121   0.00000  Uiso   1.00
O132   O     0.32856   0.27889   0.89105   0.00000  Uiso   1.00
N133   N     0.83519   0.45148   0.57949   0.00000  Uiso   1.00
N134   N     0.53069   0.29131   0.51286   0.00000  Uiso   1.00
N135   N     0.27629   0.24164   0.81204   0.00000  Uiso   1.00
N136   N     0.88956   0.59573   0.59455   0.00000  Uiso   1.00
N137   N     0.58506   0.43557   0.52792   0.00000  Uiso   1.00
N138   N     0.33067   0.38589   0.82710   0.00000  Uiso   1.00
C139   C     0.29079   0.18454   0.13349   0.00000  Uiso   1.00
C140   C     0.38059   0.11180   0.12229   0.00000  Uiso   1.00
C141   C     0.48637   0.13100   0.10449   0.00000  Uiso   1.00
C142   C     0.55629   0.05470   0.09663   0.00000  Uiso   1.00
C143   C     0.70099   0.95577   0.07776   0.00000  Uiso   1.00
C144   C     0.18891   0.15594   0.10392   0.00000  Uiso   1.00
C145   C     0.13353   0.21225   0.07068   0.00000  Uiso   1.00
C146   C     0.04208   0.17310   0.04736   0.00000  Uiso   1.00
C147   C     0.88915   0.14272  -0.00001   0.00000  Uiso   1.00
C148   C     0.25904   0.16963   0.18638   0.00000  Uiso   1.00
C149   C     0.26259   0.23745   0.22246   0.00000  Uiso   1.00
C150   C     0.23016   0.20983   0.26856   0.00000  Uiso   1.00
C151   C     0.18612   0.20070   0.34922   0.00000  Uiso   1.00
C152   C     0.22684   0.01490   0.15119   0.00000  Uiso   1.00
C153   C     0.34585   0.01966   0.13191   0.00000  Uiso   1.00
C154   C     0.41562   0.94331   0.12408   0.00000  Uiso   1.00
C155   C     0.52149   0.96239   0.10626   0.00000  Uiso   1.00
C156   C     0.15417   0.06380   0.11354   0.00000  Uiso   1.00
C157   C     0.06278   0.02457   0.09026   0.00000  Uiso   1.00
C158   C     0.00728   0.08080   0.05699   0.00000  Uiso   1.00
C159   C     0.22431   0.07749   0.19599   0.00000  Uiso   1.00
C160   C     0.19185   0.04976   0.24205   0.00000  Uiso   1.00
C161   C     0.19536   0.11753   0.27819   0.00000  Uiso   1.00
H162   H     0.31782   0.25627   0.12600   0.00000  Uiso   1.00
H163   H     0.51322   0.20231   0.09704   0.00000  Uiso   1.00
H164   H     0.16042   0.28355   0.06324   0.00000  Uiso   1.00
H165   H     0.28948   0.30874   0.21500   0.00000  Uiso   1.00
H166   H     0.71452   0.10185   0.06917   0.00000  Uiso   1.00
H167   H     0.97061   0.27316   0.99791   0.00000  Uiso   1.00
H168   H     0.24274   0.32629   0.31792   0.00000  Uiso   1.00
H169   H     0.19979   0.94317   0.15868   0.00000  Uiso   1.00
H170   H     0.38872   0.87202   0.13152   0.00000  Uiso   1.00
H171   H     0.03592   0.95326   0.09772   0.00000  Uiso   1.00
H172   H     0.16498   0.97845   0.24948   0.00000  Uiso   1.00
H173   H     0.61347   0.83377   0.09715   0.00000  Uiso   1.00
H174   H     0.86955   0.00509   0.02589   0.00000  Uiso   1.00
H175   H     0.14169   0.05821   0.34590   0.00000  Uiso   1.00
O176   O     0.79039   0.92666   0.06469   0.00000  Uiso   1.00
O177   O     0.81439   0.15142   0.97121   0.00000  Uiso   1.00
O178   O     0.17144   0.22111   0.39105   0.00000  Uiso   1.00
N179   N     0.66481   0.04852   0.07949   0.00000  Uiso   1.00
N180   N     0.96931   0.20869   0.01286   0.00000  Uiso   1.00
N181   N     0.22371   0.25836   0.31204   0.00000  Uiso   1.00
N182   N     0.61044   0.90427   0.09455   0.00000  Uiso   1.00
N183   N     0.91494   0.06443   0.02792   0.00000  Uiso   1.00
N184   N     0.16933   0.11411   0.32710   0.00000  Uiso   1.00
C185   C     0.20921   0.68454   0.13349   0.00000  Uiso   1.00
C186   C     0.11941   0.61180   0.12229   0.00000  Uiso   1.00
C187   C     0.01363   0.63100   0.10449   0.00000  Uiso   1.00
C188   C     0.94371   0.55470   0.09663   0.00000  Uiso   1.00
C189   C     0.79901   0.45577   0.07776   0.00000  Uiso   1.00
C190   C     0.31109   0.65594   0.10392   0.00000  Uiso   1.00
C191   C     0.36647   0.71225   0.07068   0.00000  Uiso   1.00
C192   C     0.45792   0.67310   0.04736   0.00000  Uiso   1.00
C193   C     0.61085   0.64272  -0.00001   0.00000  Uiso   1.00
C194   C     0.24096   0.66963   0.18638   0.00000  Uiso   1.00
C195   C     0.23741   0.73745   0.22246   0.00000  Uiso   1.00
C196   C     0.26984   0.70983   0.26856   0.00000  Uiso   1.00
C197   C     0.31388   0.70070   0.34922   0.00000  Uiso   1.00
C198   C     0.27316   0.51490   0.15119   0.00000  Uiso   1.00
C199   C     0.15415   0.51966   0.13191   0.00000  Uiso   1.00
C200   C     0.08438   0.44331   0.12408   0.00000  Uiso   1.00
C201   C     0.97851   0.46239   0.10626   0.00000  Uiso   1.00
C202   C     0.34583   0.56380   0.11354   0.00000  Uiso   1.00
C203   C     0.43722   0.52457   0.09026   0.00000  Uiso   1.00
C204   C     0.49272   0.58080   0.05699   0.00000  Uiso   1.00
C205   C     0.27569   0.57749   0.19599   0.00000  Uiso   1.00
C206   C     0.30815   0.54976   0.24205   0.00000  Uiso   1.00
C207   C     0.30464   0.61753   0.27819   0.00000  Uiso   1.00
H208   H     0.18218   0.75627   0.12600   0.00000  Uiso   1.00
H209   H     0.98678   0.70231   0.09704   0.00000  Uiso   1.00
H210   H     0.33958   0.78355   0.06324   0.00000  Uiso   1.00
H211   H     0.21052   0.80874   0.21500   0.00000  Uiso   1.00
H212   H     0.78548   0.60185   0.06917   0.00000  Uiso   1.00
H213   H     0.52939   0.77316   0.99791   0.00000  Uiso   1.00
H214   H     0.25726   0.82629   0.31792   0.00000  Uiso   1.00
H215   H     0.30021   0.44317   0.15868   0.00000  Uiso   1.00
H216   H     0.11128   0.37202   0.13152   0.00000  Uiso   1.00
H217   H     0.46408   0.45326   0.09772   0.00000  Uiso   1.00
H218   H     0.33502   0.47845   0.24948   0.00000  Uiso   1.00
H219   H     0.88653   0.33377   0.09715   0.00000  Uiso   1.00
H220   H     0.63045   0.50509   0.02589   0.00000  Uiso   1.00
H221   H     0.35831   0.55821   0.34590   0.00000  Uiso   1.00
O222   O     0.70961   0.42666   0.06469   0.00000  Uiso   1.00
O223   O     0.68561   0.65142   0.97121   0.00000  Uiso   1.00
O224   O     0.32856   0.72111   0.39105   0.00000  Uiso   1.00
N225   N     0.83519   0.54852   0.07949   0.00000  Uiso   1.00
N226   N     0.53069   0.70869   0.01286   0.00000  Uiso   1.00
N227   N     0.27629   0.75836   0.31204   0.00000  Uiso   1.00
N228   N     0.88956   0.40427   0.09455   0.00000  Uiso   1.00
N229   N     0.58506   0.56443   0.02792   0.00000  Uiso   1.00
N230   N     0.33067   0.61411   0.32710   0.00000  Uiso   1.00
C231   C     0.29079   0.81546   0.63349   0.00000  Uiso   1.00
C232   C     0.38059   0.88820   0.62229   0.00000  Uiso   1.00
C233   C     0.48637   0.86900   0.60449   0.00000  Uiso   1.00
C234   C     0.55629   0.94530   0.59663   0.00000  Uiso   1.00
C235   C     0.70099   0.04423   0.57776   0.00000  Uiso   1.00
C236   C     0.18891   0.84406   0.60392   0.00000  Uiso   1.00
C237   C     0.13353   0.78775   0.57068   0.00000  Uiso   1.00
C238   C     0.04208   0.82690   0.54736   0.00000  Uiso   1.00
C239   C     0.88915   0.85728   0.49999   0.00000  Uiso   1.00
C240   C     0.25904   0.83037   0.68638   0.00000  Uiso   1.00
C241   C     0.26259   0.76255   0.72246   0.00000  Uiso   1.00
C242   C     0.23016   0.79017   0.76856   0.00000  Uiso   1.00
C243   C     0.18612   0.79930   0.84922   0.00000  Uiso   1.00
C244   C     0.22684   0.98510   0.65119   0.00000  Uiso   1.00
C245   C     0.34585   0.98034   0.63191   0.00000  Uiso   1.00
C246   C     0.41562   0.05669   0.62408   0.00000  Uiso   1.00
C247   C     0.52149   0.03761   0.60626   0.00000  Uiso   1.00
C248   C     0.15417   0.93620   0.61354   0.00000  Uiso   1.00
C249   C     0.06278   0.97543   0.59026   0.00000  Uiso   1.00
C250   C     0.00728   0.91920   0.55699   0.00000  Uiso   1.00
C251   C     0.22431   0.92251   0.69599   0.00000  Uiso   1.00
C252   C     0.19185   0.95024   0.74205   0.00000  Uiso   1.00
C253   C     0.19536   0.88247   0.77819   0.00000  Uiso   1.00
H254   H     0.31782   0.74373   0.62600   0.00000  Uiso   1.00
H255   H     0.51322   0.79769   0.59704   0.00000  Uiso   1.00
H256   H     0.16042   0.71645   0.56324   0.00000  Uiso   1.00
H257   H     0.28948   0.69126   0.71500   0.00000  Uiso   1.00
H258   H     0.71452   0.89815   0.56917   0.00000  Uiso   1.00
H259   H     0.97061   0.72684   0.49791   0.00000  Uiso   1.00
H260   H     0.24274   0.67371   0.81792   0.00000  Uiso   1.00
H261   H     0.19979   0.05683   0.65868   0.00000  Uiso   1.00
H262   H     0.38872   0.12798   0.63152   0.00000  Uiso   1.00
H263   H     0.03592   0.04674   0.59772   0.00000  Uiso   1.00
H264   H     0.16498   0.02155   0.74948   0.00000  Uiso   1.00
H265   H     0.61347   0.16623   0.59715   0.00000  Uiso   1.00
H266   H     0.86955   0.99491   0.52589   0.00000  Uiso   1.00
H267   H     0.14169   0.94179   0.84590   0.00000  Uiso   1.00
O268   O     0.79039   0.07334   0.56469   0.00000  Uiso   1.00
O269   O     0.81439   0.84858   0.47121   0.00000  Uiso   1.00
O270   O     0.17144   0.77889   0.89105   0.00000  Uiso   1.00
N271   N     0.66481   0.95148   0.57949   0.00000  Uiso   1.00
N272   N     0.96931   0.79131   0.51286   0.00000  Uiso   1.00
N273   N     0.22371   0.74164   0.81204   0.00000  Uiso   1.00
N274   N     0.61044   0.09573   0.59455   0.00000  Uiso   1.00
N275   N     0.91494   0.93557   0.52792   0.00000  Uiso   1.00
N276   N     0.16933   0.88589   0.82710   0.00000  Uiso   1.00
C277   C     0.79079   0.68454   0.36651   0.00000  Uiso   1.00
C278   C     0.88059   0.61180   0.37771   0.00000  Uiso   1.00
C279   C     0.98637   0.63100   0.39551   0.00000  Uiso   1.00
C280   C     0.05629   0.55470   0.40337   0.00000  Uiso   1.00
C281   C     0.20099   0.45577   0.42224   0.00000  Uiso   1.00
C282   C     0.68891   0.65594   0.39608   0.00000  Uiso   1.00
C283   C     0.63353   0.71225   0.42932   0.00000  Uiso   1.00
C284   C     0.54208   0.67310   0.45264   0.00000  Uiso   1.00
C285   C     0.38915   0.64272   0.50001   0.00000  Uiso   1.00
C286   C     0.75904   0.66963   0.31362   0.00000  Uiso   1.00
C287   C     0.76259   0.73745   0.27754   0.00000  Uiso   1.00
C288   C     0.73016   0.70983   0.23144   0.00000  Uiso   1.00
C289   C     0.68612   0.70070   0.15078   0.00000  Uiso   1.00
C290   C     0.72684   0.51490   0.34881   0.00000  Uiso   1.00
C291   C     0.84585   0.51966   0.36809   0.00000  Uiso   1.00
C292   C     0.91562   0.44331   0.37592   0.00000  Uiso   1.00
C293   C     0.02149   0.46239   0.39374   0.00000  Uiso   1.00
C294   C     0.65417   0.56380   0.38646   0.00000  Uiso   1.00
C295   C     0.56278   0.52457   0.40974   0.00000  Uiso   1.00
C296   C     0.50728   0.58080   0.44301   0.00000  Uiso   1.00
C297   C     0.72431   0.57749   0.30401   0.00000  Uiso   1.00
C298   C     0.69185   0.54976   0.25795   0.00000  Uiso   1.00
C299   C     0.69536   0.61753   0.22181   0.00000  Uiso   1.00
H300   H     0.81782   0.75627   0.37400   0.00000  Uiso   1.00
H301   H     0.01322   0.70231   0.40296   0.00000  Uiso   1.00
H302   H     0.66042   0.78355   0.43676   0.00000  Uiso   1.00
H303   H     0.78948   0.80874   0.28500   0.00000  Uiso   1.00
H304   H     0.21452   0.60185   0.43083   0.00000  Uiso   1.00
H305   H     0.47061   0.77316   0.50209   0.00000  Uiso   1.00
H306   H     0.74274   0.82629   0.18208   0.00000  Uiso   1.00
H307   H     0.69979   0.44317   0.34132   0.00000  Uiso   1.00
H308   H     0.88872   0.37202   0.36848   0.00000  Uiso   1.00
H309   H     0.53592   0.45326   0.40228   0.00000  Uiso   1.00
H310   H     0.66498   0.47845   0.25052   0.00000  Uiso   1.00
H311   H     0.11347   0.33377   0.40285   0.00000  Uiso   1.00
H312   H     0.36955   0.50509   0.47411   0.00000  Uiso   1.00
H313   H     0.64169   0.55821   0.15410   0.00000  Uiso   1.00
O314   O     0.29039   0.42666   0.43531   0.00000  Uiso   1.00
O315   O     0.31439   0.65142   0.52879   0.00000  Uiso   1.00
O316   O     0.67144   0.72111   0.10895   0.00000  Uiso   1.00
N317   N     0.16481   0.54852   0.42051   0.00000  Uiso   1.00
N318   N     0.46931   0.70869   0.48714   0.00000  Uiso   1.00
N319   N     0.72371   0.75836   0.18796   0.00000  Uiso   1.00
N320   N     0.11044   0.40427   0.40545   0.00000  Uiso   1.00
N321   N     0.41494   0.56443   0.47208   0.00000  Uiso   1.00
N322   N     0.66933   0.61411   0.17290   0.00000  Uiso   1.00
C323   C     0.70921   0.81546   0.86651   0.00000  Uiso   1.00
C324   C     0.61941   0.88820   0.87771   0.00000  Uiso   1.00
C325   C     0.51363   0.86900   0.89551   0.00000  Uiso   1.00
C326   C     0.44371   0.94530   0.90337   0.00000  Uiso   1.00
C327   C     0.29901   0.04423   0.92224   0.00000  Uiso   1.00
C328   C     0.81109   0.84406   0.89608   0.00000  Uiso   1.00
C329   C     0.86647   0.78775   0.92932   0.00000  Uiso   1.00
C330   C     0.95792   0.82690   0.95264   0.00000  Uiso   1.00
C331   C     0.11085   0.85728   0.00001   0.00000  Uiso   1.00
C332   C     0.74096   0.83037   0.81362   0.00000  Uiso   1.00
C333   C     0.73741   0.76255   0.77754   0.00000  Uiso   1.00
C334   C     0.76984   0.79017   0.73144   0.00000  Uiso   1.00
C335   C     0.81388   0.79930   0.65078   0.00000  Uiso   1.00
C336   C     0.77316   0.98510   0.84881   0.00000  Uiso   1.00
C337   C     0.65415   0.98034   0.86809   0.00000  Uiso   1.00
C338   C     0.58438   0.05669   0.87592   0.00000  Uiso   1.00
C339   C     0.47851   0.03761   0.89374   0.00000  Uiso   1.00
C340   C     0.84583   0.93620   0.88646   0.00000  Uiso   1.00
C341   C     0.93722   0.97543   0.90974   0.00000  Uiso   1.00
C342   C     0.99272   0.91920   0.94301   0.00000  Uiso   1.00
C343   C     0.77569   0.92251   0.80401   0.00000  Uiso   1.00
C344   C     0.80815   0.95024   0.75795   0.00000  Uiso   1.00
C345   C     0.80464   0.88247   0.72181   0.00000  Uiso   1.00
H346   H     0.68218   0.74373   0.87400   0.00000  Uiso   1.00
H347   H     0.48678   0.79769   0.90296   0.00000  Uiso   1.00
H348   H     0.83958   0.71645   0.93676   0.00000  Uiso   1.00
H349   H     0.71052   0.69126   0.78500   0.00000  Uiso   1.00
H350   H     0.28548   0.89815   0.93083   0.00000  Uiso   1.00
H351   H     0.02939   0.72684   0.00209   0.00000  Uiso   1.00
H352   H     0.75726   0.67371   0.68208   0.00000  Uiso   1.00
H353   H     0.80021   0.05683   0.84132   0.00000  Uiso   1.00
H354   H     0.61128   0.12798   0.86848   0.00000  Uiso   1.00
H355   H     0.96408   0.04674   0.90228   0.00000  Uiso   1.00
H356   H     0.83502   0.02155   0.75052   0.00000  Uiso   1.00
H357   H     0.38653   0.16623   0.90285   0.00000  Uiso   1.00
H358   H     0.13045   0.99491   0.97411   0.00000  Uiso   1.00
H359   H     0.85831   0.94179   0.65410   0.00000  Uiso   1.00
O360   O     0.20961   0.07334   0.93531   0.00000  Uiso   1.00
O361   O     0.18561   0.84858   0.02879   0.00000  Uiso   1.00
O362   O     0.82856   0.77889   0.60895   0.00000  Uiso   1.00
N363   N     0.33519   0.95148   0.92051   0.00000  Uiso   1.00
N364   N     0.03069   0.79131   0.98714   0.00000  Uiso   1.00
N365   N     0.77629   0.74164   0.68796   0.00000  Uiso   1.00
N366   N     0.38956   0.09573   0.90545   0.00000  Uiso   1.00
N367   N     0.08506   0.93557   0.97208   0.00000  Uiso   1.00
N368   N     0.83067   0.88589   0.67290   0.00000  Uiso   1.00
