data_job_02774
_audit_creation_date              2018-12-19
_audit_creation_method            'Materials Studio'
_symmetry_space_group_name_H-M    'P1'
_symmetry_Int_Tables_number       1
_symmetry_cell_setting            triclinic
loop_
_symmetry_equiv_pos_as_xyz
  x,y,z
_cell_length_a                    30.4432
_cell_length_b                    9.7044
_cell_length_c                    8.5264
_cell_angle_alpha                 90.0000
_cell_angle_beta                  90.0000
_cell_angle_gamma                 90.0000
loop_
_atom_site_label
_atom_site_type_symbol
_atom_site_fract_x
_atom_site_fract_y
_atom_site_fract_z
_atom_site_U_iso_or_equiv
_atom_site_adp_type
_atom_site_occupancy
C1     C     0.12948   0.04333   0.09135   0.00000  Uiso   1.00
C2     C     0.11849   0.15010   0.21656   0.00000  Uiso   1.00
C3     C     0.11888   0.29196   0.19608   0.00000  Uiso   1.00
C4     C     0.10783   0.37208   0.32508   0.00000  Uiso   1.00
C5     C     0.09246   0.54696   0.49760   0.00000  Uiso   1.00
C6     C     0.16647   0.95562   0.15907   0.00000  Uiso   1.00
C7     C     0.20719   0.93396   0.09022   0.00000  Uiso   1.00
C8     C     0.23652   0.85035   0.17081   0.00000  Uiso   1.00
C9     C     0.29563   0.72321   0.25400   0.00000  Uiso   1.00
C10    C     0.08956   0.94891   0.08038   0.00000  Uiso   1.00
C11    C     0.06564   0.92156   0.94537   0.00000  Uiso   1.00
C12    C     0.03023   0.83227   0.95971   0.00000  Uiso   1.00
C13    C     0.96993   0.69470   0.92072   0.00000  Uiso   1.00
C14    C     0.10915   0.93335   0.35687   0.00000  Uiso   1.00
C15    C     0.10745   0.09036   0.36079   0.00000  Uiso   1.00
C16    C     0.09639   0.17029   0.48985   0.00000  Uiso   1.00
C17    C     0.09676   0.31225   0.46956   0.00000  Uiso   1.00
C18    C     0.15542   0.89589   0.30328   0.00000  Uiso   1.00
C19    C     0.18470   0.81228   0.38399   0.00000  Uiso   1.00
C20    C     0.22546   0.79050   0.31530   0.00000  Uiso   1.00
C21    C     0.07852   0.88917   0.22460   0.00000  Uiso   1.00
C22    C     0.04314   0.79989   0.23915   0.00000  Uiso   1.00
C23    C     0.01917   0.77242   0.10419   0.00000  Uiso   1.00
H24    H     0.13808   0.08983   0.97907   0.00000  Uiso   1.00
H25    H     0.12744   0.33815   0.08446   0.00000  Uiso   1.00
H26    H     0.21573   0.98019   0.97861   0.00000  Uiso   1.00
H27    H     0.07420   0.96780   0.83379   0.00000  Uiso   1.00
H28    H     0.11078   0.58712   0.26492   0.00000  Uiso   1.00
H29    H     0.29694   0.83230   0.04170   0.00000  Uiso   1.00
H30    H     0.99849   0.80618   0.73631   0.00000  Uiso   1.00
H31    H     0.10055   0.88684   0.46916   0.00000  Uiso   1.00
H32    H     0.08784   0.12403   0.60144   0.00000  Uiso   1.00
H33    H     0.17614   0.76607   0.49559   0.00000  Uiso   1.00
H34    H     0.03460   0.75369   0.35077   0.00000  Uiso   1.00
H35    H     0.07864   0.41333   0.68453   0.00000  Uiso   1.00
H36    H     0.26481   0.65850   0.46130   0.00000  Uiso   1.00
H37    H     0.96636   0.63239   0.15592   0.00000  Uiso   1.00
O38    O     0.08704   0.65992   0.55292   0.00000  Uiso   1.00
O39    O     0.33128   0.66960   0.26004   0.00000  Uiso   1.00
O40    O     0.93972   0.63534   0.85938   0.00000  Uiso   1.00
N41    N     0.10495   0.51367   0.34551   0.00000  Uiso   1.00
N42    N     0.27901   0.80797   0.13683   0.00000  Uiso   1.00
N43    N     0.99999   0.78352   0.85130   0.00000  Uiso   1.00
N44    N     0.08766   0.42015   0.57130   0.00000  Uiso   1.00
N45    N     0.26172   0.71446   0.36261   0.00000  Uiso   1.00
N46    N     0.98270   0.69001   0.07709   0.00000  Uiso   1.00
C47    C     0.87052   0.95667   0.09135   0.00000  Uiso   1.00
C48    C     0.88151   0.84990   0.21656   0.00000  Uiso   1.00
C49    C     0.88112   0.70804   0.19608   0.00000  Uiso   1.00
C50    C     0.89217   0.62792   0.32508   0.00000  Uiso   1.00
C51    C     0.90754   0.45304   0.49760   0.00000  Uiso   1.00
C52    C     0.83353   0.04438   0.15907   0.00000  Uiso   1.00
C53    C     0.79281   0.06604   0.09022   0.00000  Uiso   1.00
C54    C     0.76348   0.14965   0.17081   0.00000  Uiso   1.00
C55    C     0.70437   0.27679   0.25400   0.00000  Uiso   1.00
C56    C     0.91044   0.05109   0.08038   0.00000  Uiso   1.00
C57    C     0.93436   0.07844   0.94537   0.00000  Uiso   1.00
C58    C     0.96977   0.16773   0.95971   0.00000  Uiso   1.00
C59    C     0.03007   0.30530   0.92072   0.00000  Uiso   1.00
C60    C     0.89085   0.06665   0.35687   0.00000  Uiso   1.00
C61    C     0.89255   0.90964   0.36079   0.00000  Uiso   1.00
C62    C     0.90361   0.82971   0.48985   0.00000  Uiso   1.00
C63    C     0.90324   0.68775   0.46956   0.00000  Uiso   1.00
C64    C     0.84458   0.10411   0.30328   0.00000  Uiso   1.00
C65    C     0.81530   0.18772   0.38399   0.00000  Uiso   1.00
C66    C     0.77454   0.20950   0.31530   0.00000  Uiso   1.00
C67    C     0.92148   0.11083   0.22460   0.00000  Uiso   1.00
C68    C     0.95686   0.20011   0.23915   0.00000  Uiso   1.00
C69    C     0.98083   0.22758   0.10419   0.00000  Uiso   1.00
H70    H     0.86192   0.91017   0.97907   0.00000  Uiso   1.00
H71    H     0.87256   0.66185   0.08446   0.00000  Uiso   1.00
H72    H     0.78427   0.01981   0.97861   0.00000  Uiso   1.00
H73    H     0.92580   0.03220   0.83379   0.00000  Uiso   1.00
H74    H     0.88922   0.41288   0.26492   0.00000  Uiso   1.00
H75    H     0.70306   0.16770   0.04170   0.00000  Uiso   1.00
H76    H     0.00151   0.19382   0.73631   0.00000  Uiso   1.00
H77    H     0.89945   0.11316   0.46916   0.00000  Uiso   1.00
H78    H     0.91216   0.87597   0.60144   0.00000  Uiso   1.00
H79    H     0.82386   0.23393   0.49559   0.00000  Uiso   1.00
H80    H     0.96540   0.24631   0.35077   0.00000  Uiso   1.00
H81    H     0.92136   0.58667   0.68453   0.00000  Uiso   1.00
H82    H     0.73519   0.34150   0.46130   0.00000  Uiso   1.00
H83    H     0.03364   0.36761   0.15592   0.00000  Uiso   1.00
O84    O     0.91296   0.34008   0.55292   0.00000  Uiso   1.00
O85    O     0.66872   0.33040   0.26004   0.00000  Uiso   1.00
O86    O     0.06028   0.36466   0.85938   0.00000  Uiso   1.00
N87    N     0.89505   0.48633   0.34551   0.00000  Uiso   1.00
N88    N     0.72099   0.19203   0.13683   0.00000  Uiso   1.00
N89    N     0.00001   0.21648   0.85130   0.00000  Uiso   1.00
N90    N     0.91234   0.57985   0.57130   0.00000  Uiso   1.00
N91    N     0.73828   0.28554   0.36261   0.00000  Uiso   1.00
N92    N     0.01730   0.30999   0.07709   0.00000  Uiso   1.00
C93    C     0.37052   0.54333   0.90865   0.00000  Uiso   1.00
C94    C     0.38151   0.65010   0.78344   0.00000  Uiso   1.00
C95    C     0.38112   0.79196   0.80392   0.00000  Uiso   1.00
C96    C     0.39217   0.87208   0.67492   0.00000  Uiso   1.00
C97    C     0.40754   0.04696   0.50240   0.00000  Uiso   1.00
C98    C     0.33353   0.45562   0.84093   0.00000  Uiso   1.00
C99    C     0.29281   0.43396   0.90978   0.00000  Uiso   1.00
C100   C     0.26348   0.35035   0.82919   0.00000  Uiso   1.00
C101   C     0.20437   0.22321   0.74600   0.00000  Uiso   1.00
C102   C     0.41044   0.44891   0.91962   0.00000  Uiso   1.00
C103   C     0.43436   0.42156   0.05463   0.00000  Uiso   1.00
C104   C     0.46977   0.33227   0.04029   0.00000  Uiso   1.00
C105   C     0.53007   0.19470   0.07928   0.00000  Uiso   1.00
C106   C     0.39085   0.43335   0.64313   0.00000  Uiso   1.00
C107   C     0.39255   0.59036   0.63921   0.00000  Uiso   1.00
C108   C     0.40361   0.67029   0.51015   0.00000  Uiso   1.00
C109   C     0.40324   0.81225   0.53044   0.00000  Uiso   1.00
C110   C     0.34458   0.39589   0.69672   0.00000  Uiso   1.00
C111   C     0.31530   0.31228   0.61601   0.00000  Uiso   1.00
C112   C     0.27454   0.29050   0.68470   0.00000  Uiso   1.00
C113   C     0.42148   0.38917   0.77540   0.00000  Uiso   1.00
C114   C     0.45686   0.29989   0.76085   0.00000  Uiso   1.00
C115   C     0.48083   0.27242   0.89581   0.00000  Uiso   1.00
H116   H     0.36192   0.58983   0.02093   0.00000  Uiso   1.00
H117   H     0.37256   0.83815   0.91554   0.00000  Uiso   1.00
H118   H     0.28427   0.48019   0.02139   0.00000  Uiso   1.00
H119   H     0.42580   0.46780   0.16621   0.00000  Uiso   1.00
H120   H     0.38922   0.08712   0.73508   0.00000  Uiso   1.00
H121   H     0.20306   0.33230   0.95830   0.00000  Uiso   1.00
H122   H     0.50151   0.30618   0.26369   0.00000  Uiso   1.00
H123   H     0.39945   0.38684   0.53084   0.00000  Uiso   1.00
H124   H     0.41216   0.62403   0.39856   0.00000  Uiso   1.00
H125   H     0.32386   0.26607   0.50441   0.00000  Uiso   1.00
H126   H     0.46540   0.25369   0.64923   0.00000  Uiso   1.00
H127   H     0.42136   0.91333   0.31547   0.00000  Uiso   1.00
H128   H     0.23519   0.15850   0.53870   0.00000  Uiso   1.00
H129   H     0.53364   0.13239   0.84408   0.00000  Uiso   1.00
O130   O     0.41296   0.15992   0.44708   0.00000  Uiso   1.00
O131   O     0.16872   0.16960   0.73996   0.00000  Uiso   1.00
O132   O     0.56028   0.13534   0.14062   0.00000  Uiso   1.00
N133   N     0.39505   0.01367   0.65449   0.00000  Uiso   1.00
N134   N     0.22099   0.30797   0.86317   0.00000  Uiso   1.00
N135   N     0.50001   0.28352   0.14870   0.00000  Uiso   1.00
N136   N     0.41234   0.92015   0.42870   0.00000  Uiso   1.00
N137   N     0.23828   0.21446   0.63739   0.00000  Uiso   1.00
N138   N     0.51730   0.19001   0.92291   0.00000  Uiso   1.00
C139   C     0.62948   0.45667   0.90865   0.00000  Uiso   1.00
C140   C     0.61849   0.34990   0.78344   0.00000  Uiso   1.00
C141   C     0.61888   0.20804   0.80392   0.00000  Uiso   1.00
C142   C     0.60783   0.12792   0.67492   0.00000  Uiso   1.00
C143   C     0.59246   0.95304   0.50240   0.00000  Uiso   1.00
C144   C     0.66647   0.54438   0.84093   0.00000  Uiso   1.00
C145   C     0.70719   0.56604   0.90978   0.00000  Uiso   1.00
C146   C     0.73652   0.64965   0.82919   0.00000  Uiso   1.00
C147   C     0.79563   0.77679   0.74600   0.00000  Uiso   1.00
C148   C     0.58956   0.55109   0.91962   0.00000  Uiso   1.00
C149   C     0.56564   0.57844   0.05463   0.00000  Uiso   1.00
C150   C     0.53023   0.66773   0.04029   0.00000  Uiso   1.00
C151   C     0.46993   0.80530   0.07928   0.00000  Uiso   1.00
C152   C     0.60915   0.56665   0.64313   0.00000  Uiso   1.00
C153   C     0.60745   0.40964   0.63921   0.00000  Uiso   1.00
C154   C     0.59639   0.32971   0.51015   0.00000  Uiso   1.00
C155   C     0.59676   0.18775   0.53044   0.00000  Uiso   1.00
C156   C     0.65542   0.60411   0.69672   0.00000  Uiso   1.00
C157   C     0.68470   0.68772   0.61601   0.00000  Uiso   1.00
C158   C     0.72546   0.70950   0.68470   0.00000  Uiso   1.00
C159   C     0.57852   0.61083   0.77540   0.00000  Uiso   1.00
C160   C     0.54314   0.70011   0.76085   0.00000  Uiso   1.00
C161   C     0.51917   0.72758   0.89581   0.00000  Uiso   1.00
H162   H     0.63808   0.41017   0.02093   0.00000  Uiso   1.00
H163   H     0.62744   0.16185   0.91554   0.00000  Uiso   1.00
H164   H     0.71573   0.51981   0.02139   0.00000  Uiso   1.00
H165   H     0.57420   0.53220   0.16621   0.00000  Uiso   1.00
H166   H     0.61078   0.91288   0.73508   0.00000  Uiso   1.00
H167   H     0.79694   0.66770   0.95830   0.00000  Uiso   1.00
H168   H     0.49849   0.69382   0.26369   0.00000  Uiso   1.00
H169   H     0.60055   0.61316   0.53084   0.00000  Uiso   1.00
H170   H     0.58784   0.37597   0.39856   0.00000  Uiso   1.00
H171   H     0.67614   0.73393   0.50441   0.00000  Uiso   1.00
H172   H     0.53460   0.74631   0.64923   0.00000  Uiso   1.00
H173   H     0.57864   0.08667   0.31547   0.00000  Uiso   1.00
H174   H     0.76481   0.84150   0.53870   0.00000  Uiso   1.00
H175   H     0.46636   0.86761   0.84408   0.00000  Uiso   1.00
O176   O     0.58704   0.84008   0.44708   0.00000  Uiso   1.00
O177   O     0.83128   0.83040   0.73996   0.00000  Uiso   1.00
O178   O     0.43972   0.86466   0.14062   0.00000  Uiso   1.00
N179   N     0.60495   0.98633   0.65449   0.00000  Uiso   1.00
N180   N     0.77901   0.69203   0.86317   0.00000  Uiso   1.00
N181   N     0.49999   0.71648   0.14870   0.00000  Uiso   1.00
N182   N     0.58766   0.07985   0.42870   0.00000  Uiso   1.00
N183   N     0.76172   0.78554   0.63739   0.00000  Uiso   1.00
N184   N     0.48270   0.80999   0.92291   0.00000  Uiso   1.00
