data_job_04063
_audit_creation_date              2018-12-19
_audit_creation_method            'Materials Studio'
_symmetry_space_group_name_H-M    'P1'
_symmetry_Int_Tables_number       1
_symmetry_cell_setting            triclinic
loop_
_symmetry_equiv_pos_as_xyz
  x,y,z
_cell_length_a                    20.0102
_cell_length_b                    20.0102
_cell_length_c                    12.2293
_cell_angle_alpha                 90.0000
_cell_angle_beta                  90.0000
_cell_angle_gamma                 90.0000
loop_
_atom_site_label
_atom_site_type_symbol
_atom_site_fract_x
_atom_site_fract_y
_atom_site_fract_z
_atom_site_U_iso_or_equiv
_atom_site_adp_type
_atom_site_occupancy
C1     C     0.85528   0.76559   0.38347   0.00000  Uiso   1.00
C2     C     0.78920   0.80351   0.38073   0.00000  Uiso   1.00
C3     C     0.72805   0.77749   0.34830   0.00000  Uiso   1.00
C4     C     0.67347   0.82027   0.35162   0.00000  Uiso   1.00
C5     C     0.56990   0.86907   0.34207   0.00000  Uiso   1.00
C6     C     0.90365   0.80566   0.31284   0.00000  Uiso   1.00
C7     C     0.93872   0.78142   0.22332   0.00000  Uiso   1.00
C8     C     0.98049   0.82602   0.16951   0.00000  Uiso   1.00
C9     C     0.05462   0.87812   0.05459   0.00000  Uiso   1.00
C10    C     0.88109   0.77140   0.50040   0.00000  Uiso   1.00
C11    C     0.89723   0.71836   0.56859   0.00000  Uiso   1.00
C12    C     0.92002   0.73410   0.67268   0.00000  Uiso   1.00
C13    C     0.95914   0.73302   0.84899   0.00000  Uiso   1.00
C14    C     0.86709   0.88787   0.44706   0.00000  Uiso   1.00
C15    C     0.79562   0.86993   0.41527   0.00000  Uiso   1.00
C16    C     0.74112   0.91277   0.41866   0.00000  Uiso   1.00
C17    C     0.67990   0.88681   0.38623   0.00000  Uiso   1.00
C18    C     0.91006   0.87207   0.34737   0.00000  Uiso   1.00
C19    C     0.95179   0.91671   0.29368   0.00000  Uiso   1.00
C20    C     0.98691   0.89255   0.20411   0.00000  Uiso   1.00
C21    C     0.88751   0.83781   0.53495   0.00000  Uiso   1.00
C22    C     0.91029   0.85365   0.63895   0.00000  Uiso   1.00
C23    C     0.92645   0.80064   0.70729   0.00000  Uiso   1.00
H24    H     0.85029   0.71388   0.35657   0.00000  Uiso   1.00
H25    H     0.72311   0.72608   0.32156   0.00000  Uiso   1.00
H26    H     0.93375   0.73002   0.19662   0.00000  Uiso   1.00
H27    H     0.89226   0.66697   0.54183   0.00000  Uiso   1.00
H28    H     0.58494   0.76891   0.29794   0.00000  Uiso   1.00
H29    H     0.02911   0.77720   0.03452   0.00000  Uiso   1.00
H30    H     0.94161   0.64424   0.76246   0.00000  Uiso   1.00
H31    H     0.87209   0.93958   0.47395   0.00000  Uiso   1.00
H32    H     0.74610   0.96417   0.44539   0.00000  Uiso   1.00
H33    H     0.95674   0.96810   0.32044   0.00000  Uiso   1.00
H34    H     0.91525   0.90505   0.66565   0.00000  Uiso   1.00
H35    H     0.60360   0.96215   0.39844   0.00000  Uiso   1.00
H36    H     0.04777   0.97044   0.13501   0.00000  Uiso   1.00
H37    H     0.96027   0.83748   0.86296   0.00000  Uiso   1.00
O38    O     0.51100   0.87764   0.32725   0.00000  Uiso   1.00
O39    O     0.09374   0.88851   0.98166   0.00000  Uiso   1.00
O40    O     0.97894   0.71407   0.93670   0.00000  Uiso   1.00
N41    N     0.60662   0.81101   0.32553   0.00000  Uiso   1.00
N42    N     0.02188   0.81877   0.07924   0.00000  Uiso   1.00
N43    N     0.94010   0.69446   0.75980   0.00000  Uiso   1.00
N44    N     0.61666   0.91499   0.37961   0.00000  Uiso   1.00
N45    N     0.03192   0.92275   0.13331   0.00000  Uiso   1.00
N46    N     0.95013   0.79844   0.81387   0.00000  Uiso   1.00
C47    C     0.14472   0.23441   0.38347   0.00000  Uiso   1.00
C48    C     0.21080   0.19649   0.38073   0.00000  Uiso   1.00
C49    C     0.27195   0.22251   0.34830   0.00000  Uiso   1.00
C50    C     0.32653   0.17973   0.35162   0.00000  Uiso   1.00
C51    C     0.43010   0.13093   0.34207   0.00000  Uiso   1.00
C52    C     0.09635   0.19434   0.31284   0.00000  Uiso   1.00
C53    C     0.06128   0.21858   0.22332   0.00000  Uiso   1.00
C54    C     0.01951   0.17398   0.16951   0.00000  Uiso   1.00
C55    C     0.94538   0.12188   0.05459   0.00000  Uiso   1.00
C56    C     0.11891   0.22860   0.50040   0.00000  Uiso   1.00
C57    C     0.10277   0.28164   0.56859   0.00000  Uiso   1.00
C58    C     0.07998   0.26590   0.67268   0.00000  Uiso   1.00
C59    C     0.04086   0.26698   0.84899   0.00000  Uiso   1.00
C60    C     0.13291   0.11213   0.44706   0.00000  Uiso   1.00
C61    C     0.20438   0.13007   0.41527   0.00000  Uiso   1.00
C62    C     0.25888   0.08723   0.41866   0.00000  Uiso   1.00
C63    C     0.32010   0.11319   0.38623   0.00000  Uiso   1.00
C64    C     0.08994   0.12793   0.34737   0.00000  Uiso   1.00
C65    C     0.04821   0.08329   0.29368   0.00000  Uiso   1.00
C66    C     0.01309   0.10745   0.20411   0.00000  Uiso   1.00
C67    C     0.11249   0.16219   0.53495   0.00000  Uiso   1.00
C68    C     0.08971   0.14635   0.63895   0.00000  Uiso   1.00
C69    C     0.07355   0.19936   0.70729   0.00000  Uiso   1.00
H70    H     0.14971   0.28612   0.35657   0.00000  Uiso   1.00
H71    H     0.27689   0.27392   0.32156   0.00000  Uiso   1.00
H72    H     0.06625   0.26998   0.19662   0.00000  Uiso   1.00
H73    H     0.10774   0.33303   0.54183   0.00000  Uiso   1.00
H74    H     0.41506   0.23109   0.29794   0.00000  Uiso   1.00
H75    H     0.97089   0.22280   0.03452   0.00000  Uiso   1.00
H76    H     0.05839   0.35576   0.76246   0.00000  Uiso   1.00
H77    H     0.12791   0.06042   0.47395   0.00000  Uiso   1.00
H78    H     0.25390   0.03583   0.44539   0.00000  Uiso   1.00
H79    H     0.04326   0.03190   0.32044   0.00000  Uiso   1.00
H80    H     0.08475   0.09495   0.66565   0.00000  Uiso   1.00
H81    H     0.39640   0.03785   0.39844   0.00000  Uiso   1.00
H82    H     0.95223   0.02956   0.13501   0.00000  Uiso   1.00
H83    H     0.03973   0.16252   0.86296   0.00000  Uiso   1.00
O84    O     0.48900   0.12236   0.32725   0.00000  Uiso   1.00
O85    O     0.90626   0.11149   0.98166   0.00000  Uiso   1.00
O86    O     0.02106   0.28593   0.93670   0.00000  Uiso   1.00
N87    N     0.39338   0.18899   0.32553   0.00000  Uiso   1.00
N88    N     0.97812   0.18123   0.07924   0.00000  Uiso   1.00
N89    N     0.05990   0.30554   0.75980   0.00000  Uiso   1.00
N90    N     0.38334   0.08501   0.37961   0.00000  Uiso   1.00
N91    N     0.96808   0.07725   0.13331   0.00000  Uiso   1.00
N92    N     0.04987   0.20156   0.81387   0.00000  Uiso   1.00
C93    C     0.76559   0.14472   0.61653   0.00000  Uiso   1.00
C94    C     0.80351   0.21080   0.61927   0.00000  Uiso   1.00
C95    C     0.77749   0.27195   0.65170   0.00000  Uiso   1.00
C96    C     0.82027   0.32653   0.64838   0.00000  Uiso   1.00
C97    C     0.86907   0.43010   0.65793   0.00000  Uiso   1.00
C98    C     0.80566   0.09635   0.68716   0.00000  Uiso   1.00
C99    C     0.78142   0.06128   0.77668   0.00000  Uiso   1.00
C100   C     0.82602   0.01951   0.83049   0.00000  Uiso   1.00
C101   C     0.87812   0.94538   0.94541   0.00000  Uiso   1.00
C102   C     0.77140   0.11891   0.49960   0.00000  Uiso   1.00
C103   C     0.71836   0.10277   0.43141   0.00000  Uiso   1.00
C104   C     0.73410   0.07998   0.32732   0.00000  Uiso   1.00
C105   C     0.73302   0.04086   0.15101   0.00000  Uiso   1.00
C106   C     0.88787   0.13291   0.55294   0.00000  Uiso   1.00
C107   C     0.86993   0.20438   0.58473   0.00000  Uiso   1.00
C108   C     0.91277   0.25888   0.58134   0.00000  Uiso   1.00
C109   C     0.88681   0.32010   0.61377   0.00000  Uiso   1.00
C110   C     0.87207   0.08994   0.65263   0.00000  Uiso   1.00
C111   C     0.91671   0.04821   0.70632   0.00000  Uiso   1.00
C112   C     0.89255   0.01309   0.79589   0.00000  Uiso   1.00
C113   C     0.83781   0.11249   0.46505   0.00000  Uiso   1.00
C114   C     0.85365   0.08971   0.36105   0.00000  Uiso   1.00
C115   C     0.80064   0.07355   0.29271   0.00000  Uiso   1.00
H116   H     0.71388   0.14971   0.64343   0.00000  Uiso   1.00
H117   H     0.72608   0.27689   0.67844   0.00000  Uiso   1.00
H118   H     0.73002   0.06625   0.80338   0.00000  Uiso   1.00
H119   H     0.66697   0.10774   0.45817   0.00000  Uiso   1.00
H120   H     0.76891   0.41506   0.70206   0.00000  Uiso   1.00
H121   H     0.77720   0.97089   0.96548   0.00000  Uiso   1.00
H122   H     0.64424   0.05839   0.23754   0.00000  Uiso   1.00
H123   H     0.93958   0.12791   0.52605   0.00000  Uiso   1.00
H124   H     0.96417   0.25390   0.55461   0.00000  Uiso   1.00
H125   H     0.96810   0.04326   0.67956   0.00000  Uiso   1.00
H126   H     0.90505   0.08475   0.33435   0.00000  Uiso   1.00
H127   H     0.96215   0.39640   0.60156   0.00000  Uiso   1.00
H128   H     0.97044   0.95223   0.86499   0.00000  Uiso   1.00
H129   H     0.83748   0.03973   0.13704   0.00000  Uiso   1.00
O130   O     0.87764   0.48900   0.67275   0.00000  Uiso   1.00
O131   O     0.88851   0.90626   0.01834   0.00000  Uiso   1.00
O132   O     0.71407   0.02106   0.06330   0.00000  Uiso   1.00
N133   N     0.81101   0.39338   0.67447   0.00000  Uiso   1.00
N134   N     0.81877   0.97812   0.92076   0.00000  Uiso   1.00
N135   N     0.69446   0.05990   0.24020   0.00000  Uiso   1.00
N136   N     0.91499   0.38334   0.62039   0.00000  Uiso   1.00
N137   N     0.92275   0.96808   0.86669   0.00000  Uiso   1.00
N138   N     0.79844   0.04987   0.18613   0.00000  Uiso   1.00
C139   C     0.23441   0.85528   0.61653   0.00000  Uiso   1.00
C140   C     0.19649   0.78920   0.61927   0.00000  Uiso   1.00
C141   C     0.22251   0.72805   0.65170   0.00000  Uiso   1.00
C142   C     0.17973   0.67347   0.64838   0.00000  Uiso   1.00
C143   C     0.13093   0.56990   0.65793   0.00000  Uiso   1.00
C144   C     0.19434   0.90365   0.68716   0.00000  Uiso   1.00
C145   C     0.21858   0.93872   0.77668   0.00000  Uiso   1.00
C146   C     0.17398   0.98049   0.83049   0.00000  Uiso   1.00
C147   C     0.12188   0.05462   0.94541   0.00000  Uiso   1.00
C148   C     0.22860   0.88109   0.49960   0.00000  Uiso   1.00
C149   C     0.28164   0.89723   0.43141   0.00000  Uiso   1.00
C150   C     0.26590   0.92002   0.32732   0.00000  Uiso   1.00
C151   C     0.26698   0.95914   0.15101   0.00000  Uiso   1.00
C152   C     0.11213   0.86709   0.55294   0.00000  Uiso   1.00
C153   C     0.13007   0.79562   0.58473   0.00000  Uiso   1.00
C154   C     0.08723   0.74112   0.58134   0.00000  Uiso   1.00
C155   C     0.11319   0.67990   0.61377   0.00000  Uiso   1.00
C156   C     0.12793   0.91006   0.65263   0.00000  Uiso   1.00
C157   C     0.08329   0.95179   0.70632   0.00000  Uiso   1.00
C158   C     0.10745   0.98691   0.79589   0.00000  Uiso   1.00
C159   C     0.16219   0.88751   0.46505   0.00000  Uiso   1.00
C160   C     0.14635   0.91029   0.36105   0.00000  Uiso   1.00
C161   C     0.19936   0.92645   0.29271   0.00000  Uiso   1.00
H162   H     0.28612   0.85029   0.64343   0.00000  Uiso   1.00
H163   H     0.27392   0.72311   0.67844   0.00000  Uiso   1.00
H164   H     0.26998   0.93375   0.80338   0.00000  Uiso   1.00
H165   H     0.33303   0.89226   0.45817   0.00000  Uiso   1.00
H166   H     0.23109   0.58494   0.70206   0.00000  Uiso   1.00
H167   H     0.22280   0.02911   0.96548   0.00000  Uiso   1.00
H168   H     0.35576   0.94161   0.23754   0.00000  Uiso   1.00
H169   H     0.06042   0.87209   0.52605   0.00000  Uiso   1.00
H170   H     0.03583   0.74610   0.55461   0.00000  Uiso   1.00
H171   H     0.03190   0.95674   0.67956   0.00000  Uiso   1.00
H172   H     0.09495   0.91525   0.33435   0.00000  Uiso   1.00
H173   H     0.03785   0.60360   0.60156   0.00000  Uiso   1.00
H174   H     0.02956   0.04777   0.86499   0.00000  Uiso   1.00
H175   H     0.16252   0.96027   0.13704   0.00000  Uiso   1.00
O176   O     0.12236   0.51100   0.67275   0.00000  Uiso   1.00
O177   O     0.11149   0.09374   0.01834   0.00000  Uiso   1.00
O178   O     0.28593   0.97894   0.06330   0.00000  Uiso   1.00
N179   N     0.18899   0.60662   0.67447   0.00000  Uiso   1.00
N180   N     0.18123   0.02188   0.92076   0.00000  Uiso   1.00
N181   N     0.30554   0.94010   0.24020   0.00000  Uiso   1.00
N182   N     0.08501   0.61666   0.62039   0.00000  Uiso   1.00
N183   N     0.07725   0.03192   0.86669   0.00000  Uiso   1.00
N184   N     0.20156   0.95013   0.18613   0.00000  Uiso   1.00
C185   C     0.35528   0.73441   0.38347   0.00000  Uiso   1.00
C186   C     0.28920   0.69649   0.38073   0.00000  Uiso   1.00
C187   C     0.22805   0.72251   0.34830   0.00000  Uiso   1.00
C188   C     0.17347   0.67973   0.35162   0.00000  Uiso   1.00
C189   C     0.06990   0.63093   0.34207   0.00000  Uiso   1.00
C190   C     0.40365   0.69434   0.31284   0.00000  Uiso   1.00
C191   C     0.43872   0.71858   0.22332   0.00000  Uiso   1.00
C192   C     0.48049   0.67398   0.16951   0.00000  Uiso   1.00
C193   C     0.55462   0.62188   0.05459   0.00000  Uiso   1.00
C194   C     0.38109   0.72860   0.50040   0.00000  Uiso   1.00
C195   C     0.39723   0.78164   0.56859   0.00000  Uiso   1.00
C196   C     0.42002   0.76590   0.67268   0.00000  Uiso   1.00
C197   C     0.45914   0.76698   0.84899   0.00000  Uiso   1.00
C198   C     0.36709   0.61213   0.44706   0.00000  Uiso   1.00
C199   C     0.29562   0.63007   0.41527   0.00000  Uiso   1.00
C200   C     0.24112   0.58723   0.41866   0.00000  Uiso   1.00
C201   C     0.17990   0.61319   0.38623   0.00000  Uiso   1.00
C202   C     0.41006   0.62793   0.34737   0.00000  Uiso   1.00
C203   C     0.45179   0.58329   0.29368   0.00000  Uiso   1.00
C204   C     0.48691   0.60745   0.20411   0.00000  Uiso   1.00
C205   C     0.38751   0.66219   0.53495   0.00000  Uiso   1.00
C206   C     0.41029   0.64635   0.63895   0.00000  Uiso   1.00
C207   C     0.42645   0.69936   0.70729   0.00000  Uiso   1.00
H208   H     0.35029   0.78612   0.35657   0.00000  Uiso   1.00
H209   H     0.22311   0.77392   0.32156   0.00000  Uiso   1.00
H210   H     0.43375   0.76998   0.19662   0.00000  Uiso   1.00
H211   H     0.39226   0.83303   0.54183   0.00000  Uiso   1.00
H212   H     0.08494   0.73109   0.29794   0.00000  Uiso   1.00
H213   H     0.52911   0.72280   0.03452   0.00000  Uiso   1.00
H214   H     0.44161   0.85576   0.76246   0.00000  Uiso   1.00
H215   H     0.37209   0.56042   0.47395   0.00000  Uiso   1.00
H216   H     0.24610   0.53583   0.44539   0.00000  Uiso   1.00
H217   H     0.45674   0.53190   0.32044   0.00000  Uiso   1.00
H218   H     0.41525   0.59495   0.66565   0.00000  Uiso   1.00
H219   H     0.10360   0.53785   0.39844   0.00000  Uiso   1.00
H220   H     0.54777   0.52956   0.13501   0.00000  Uiso   1.00
H221   H     0.46027   0.66252   0.86296   0.00000  Uiso   1.00
O222   O     0.01100   0.62236   0.32725   0.00000  Uiso   1.00
O223   O     0.59374   0.61149   0.98166   0.00000  Uiso   1.00
O224   O     0.47894   0.78593   0.93670   0.00000  Uiso   1.00
N225   N     0.10662   0.68899   0.32553   0.00000  Uiso   1.00
N226   N     0.52188   0.68123   0.07924   0.00000  Uiso   1.00
N227   N     0.44010   0.80554   0.75980   0.00000  Uiso   1.00
N228   N     0.11666   0.58501   0.37961   0.00000  Uiso   1.00
N229   N     0.53192   0.57725   0.13331   0.00000  Uiso   1.00
N230   N     0.45013   0.70156   0.81387   0.00000  Uiso   1.00
C231   C     0.64472   0.26559   0.38347   0.00000  Uiso   1.00
C232   C     0.71080   0.30351   0.38073   0.00000  Uiso   1.00
C233   C     0.77195   0.27749   0.34830   0.00000  Uiso   1.00
C234   C     0.82653   0.32027   0.35162   0.00000  Uiso   1.00
C235   C     0.93010   0.36907   0.34207   0.00000  Uiso   1.00
C236   C     0.59635   0.30566   0.31284   0.00000  Uiso   1.00
C237   C     0.56128   0.28142   0.22332   0.00000  Uiso   1.00
C238   C     0.51951   0.32602   0.16951   0.00000  Uiso   1.00
C239   C     0.44538   0.37812   0.05459   0.00000  Uiso   1.00
C240   C     0.61891   0.27140   0.50040   0.00000  Uiso   1.00
C241   C     0.60277   0.21836   0.56859   0.00000  Uiso   1.00
C242   C     0.57998   0.23410   0.67268   0.00000  Uiso   1.00
C243   C     0.54086   0.23302   0.84899   0.00000  Uiso   1.00
C244   C     0.63291   0.38787   0.44706   0.00000  Uiso   1.00
C245   C     0.70438   0.36993   0.41527   0.00000  Uiso   1.00
C246   C     0.75888   0.41277   0.41866   0.00000  Uiso   1.00
C247   C     0.82010   0.38681   0.38623   0.00000  Uiso   1.00
C248   C     0.58994   0.37207   0.34737   0.00000  Uiso   1.00
C249   C     0.54821   0.41671   0.29368   0.00000  Uiso   1.00
C250   C     0.51309   0.39255   0.20411   0.00000  Uiso   1.00
C251   C     0.61249   0.33781   0.53495   0.00000  Uiso   1.00
C252   C     0.58971   0.35365   0.63895   0.00000  Uiso   1.00
C253   C     0.57355   0.30064   0.70729   0.00000  Uiso   1.00
H254   H     0.64971   0.21388   0.35657   0.00000  Uiso   1.00
H255   H     0.77689   0.22608   0.32156   0.00000  Uiso   1.00
H256   H     0.56625   0.23002   0.19662   0.00000  Uiso   1.00
H257   H     0.60774   0.16697   0.54183   0.00000  Uiso   1.00
H258   H     0.91506   0.26891   0.29794   0.00000  Uiso   1.00
H259   H     0.47089   0.27720   0.03452   0.00000  Uiso   1.00
H260   H     0.55839   0.14424   0.76246   0.00000  Uiso   1.00
H261   H     0.62791   0.43958   0.47395   0.00000  Uiso   1.00
H262   H     0.75390   0.46417   0.44539   0.00000  Uiso   1.00
H263   H     0.54326   0.46810   0.32044   0.00000  Uiso   1.00
H264   H     0.58475   0.40505   0.66565   0.00000  Uiso   1.00
H265   H     0.89640   0.46215   0.39844   0.00000  Uiso   1.00
H266   H     0.45223   0.47044   0.13501   0.00000  Uiso   1.00
H267   H     0.53973   0.33748   0.86296   0.00000  Uiso   1.00
O268   O     0.98900   0.37764   0.32725   0.00000  Uiso   1.00
O269   O     0.40626   0.38851   0.98166   0.00000  Uiso   1.00
O270   O     0.52106   0.21407   0.93670   0.00000  Uiso   1.00
N271   N     0.89338   0.31101   0.32553   0.00000  Uiso   1.00
N272   N     0.47812   0.31877   0.07924   0.00000  Uiso   1.00
N273   N     0.55990   0.19446   0.75980   0.00000  Uiso   1.00
N274   N     0.88334   0.41499   0.37961   0.00000  Uiso   1.00
N275   N     0.46808   0.42275   0.13331   0.00000  Uiso   1.00
N276   N     0.54987   0.29844   0.81387   0.00000  Uiso   1.00
C277   C     0.26559   0.35528   0.61653   0.00000  Uiso   1.00
C278   C     0.30351   0.28920   0.61927   0.00000  Uiso   1.00
C279   C     0.27749   0.22805   0.65170   0.00000  Uiso   1.00
C280   C     0.32027   0.17347   0.64838   0.00000  Uiso   1.00
C281   C     0.36907   0.06990   0.65793   0.00000  Uiso   1.00
C282   C     0.30566   0.40365   0.68716   0.00000  Uiso   1.00
C283   C     0.28142   0.43872   0.77668   0.00000  Uiso   1.00
C284   C     0.32602   0.48049   0.83049   0.00000  Uiso   1.00
C285   C     0.37812   0.55462   0.94541   0.00000  Uiso   1.00
C286   C     0.27140   0.38109   0.49960   0.00000  Uiso   1.00
C287   C     0.21836   0.39723   0.43141   0.00000  Uiso   1.00
C288   C     0.23410   0.42002   0.32732   0.00000  Uiso   1.00
C289   C     0.23302   0.45914   0.15101   0.00000  Uiso   1.00
C290   C     0.38787   0.36709   0.55294   0.00000  Uiso   1.00
C291   C     0.36993   0.29562   0.58473   0.00000  Uiso   1.00
C292   C     0.41277   0.24112   0.58134   0.00000  Uiso   1.00
C293   C     0.38681   0.17990   0.61377   0.00000  Uiso   1.00
C294   C     0.37207   0.41006   0.65263   0.00000  Uiso   1.00
C295   C     0.41671   0.45179   0.70632   0.00000  Uiso   1.00
C296   C     0.39255   0.48691   0.79589   0.00000  Uiso   1.00
C297   C     0.33781   0.38751   0.46505   0.00000  Uiso   1.00
C298   C     0.35365   0.41029   0.36105   0.00000  Uiso   1.00
C299   C     0.30064   0.42645   0.29271   0.00000  Uiso   1.00
H300   H     0.21388   0.35029   0.64343   0.00000  Uiso   1.00
H301   H     0.22608   0.22311   0.67844   0.00000  Uiso   1.00
H302   H     0.23002   0.43375   0.80338   0.00000  Uiso   1.00
H303   H     0.16697   0.39226   0.45817   0.00000  Uiso   1.00
H304   H     0.26891   0.08494   0.70206   0.00000  Uiso   1.00
H305   H     0.27720   0.52911   0.96548   0.00000  Uiso   1.00
H306   H     0.14424   0.44161   0.23754   0.00000  Uiso   1.00
H307   H     0.43958   0.37209   0.52605   0.00000  Uiso   1.00
H308   H     0.46417   0.24610   0.55461   0.00000  Uiso   1.00
H309   H     0.46810   0.45674   0.67956   0.00000  Uiso   1.00
H310   H     0.40505   0.41525   0.33435   0.00000  Uiso   1.00
H311   H     0.46215   0.10360   0.60156   0.00000  Uiso   1.00
H312   H     0.47044   0.54777   0.86499   0.00000  Uiso   1.00
H313   H     0.33748   0.46027   0.13704   0.00000  Uiso   1.00
O314   O     0.37764   0.01100   0.67275   0.00000  Uiso   1.00
O315   O     0.38851   0.59374   0.01834   0.00000  Uiso   1.00
O316   O     0.21407   0.47894   0.06330   0.00000  Uiso   1.00
N317   N     0.31101   0.10662   0.67447   0.00000  Uiso   1.00
N318   N     0.31877   0.52188   0.92076   0.00000  Uiso   1.00
N319   N     0.19446   0.44010   0.24020   0.00000  Uiso   1.00
N320   N     0.41499   0.11666   0.62039   0.00000  Uiso   1.00
N321   N     0.42275   0.53192   0.86669   0.00000  Uiso   1.00
N322   N     0.29844   0.45013   0.18613   0.00000  Uiso   1.00
C323   C     0.73441   0.64472   0.61653   0.00000  Uiso   1.00
C324   C     0.69649   0.71080   0.61927   0.00000  Uiso   1.00
C325   C     0.72251   0.77195   0.65170   0.00000  Uiso   1.00
C326   C     0.67973   0.82653   0.64838   0.00000  Uiso   1.00
C327   C     0.63093   0.93010   0.65793   0.00000  Uiso   1.00
C328   C     0.69434   0.59635   0.68716   0.00000  Uiso   1.00
C329   C     0.71858   0.56128   0.77668   0.00000  Uiso   1.00
C330   C     0.67398   0.51951   0.83049   0.00000  Uiso   1.00
C331   C     0.62188   0.44538   0.94541   0.00000  Uiso   1.00
C332   C     0.72860   0.61891   0.49960   0.00000  Uiso   1.00
C333   C     0.78164   0.60277   0.43141   0.00000  Uiso   1.00
C334   C     0.76590   0.57998   0.32732   0.00000  Uiso   1.00
C335   C     0.76698   0.54086   0.15101   0.00000  Uiso   1.00
C336   C     0.61213   0.63291   0.55294   0.00000  Uiso   1.00
C337   C     0.63007   0.70438   0.58473   0.00000  Uiso   1.00
C338   C     0.58723   0.75888   0.58134   0.00000  Uiso   1.00
C339   C     0.61319   0.82010   0.61377   0.00000  Uiso   1.00
C340   C     0.62793   0.58994   0.65263   0.00000  Uiso   1.00
C341   C     0.58329   0.54821   0.70632   0.00000  Uiso   1.00
C342   C     0.60745   0.51309   0.79589   0.00000  Uiso   1.00
C343   C     0.66219   0.61249   0.46505   0.00000  Uiso   1.00
C344   C     0.64635   0.58971   0.36105   0.00000  Uiso   1.00
C345   C     0.69936   0.57355   0.29271   0.00000  Uiso   1.00
H346   H     0.78612   0.64971   0.64343   0.00000  Uiso   1.00
H347   H     0.77392   0.77689   0.67844   0.00000  Uiso   1.00
H348   H     0.76998   0.56625   0.80338   0.00000  Uiso   1.00
H349   H     0.83303   0.60774   0.45817   0.00000  Uiso   1.00
H350   H     0.73109   0.91506   0.70206   0.00000  Uiso   1.00
H351   H     0.72280   0.47089   0.96548   0.00000  Uiso   1.00
H352   H     0.85576   0.55839   0.23754   0.00000  Uiso   1.00
H353   H     0.56042   0.62791   0.52605   0.00000  Uiso   1.00
H354   H     0.53583   0.75390   0.55461   0.00000  Uiso   1.00
H355   H     0.53190   0.54326   0.67956   0.00000  Uiso   1.00
H356   H     0.59495   0.58475   0.33435   0.00000  Uiso   1.00
H357   H     0.53785   0.89640   0.60156   0.00000  Uiso   1.00
H358   H     0.52956   0.45223   0.86499   0.00000  Uiso   1.00
H359   H     0.66252   0.53973   0.13704   0.00000  Uiso   1.00
O360   O     0.62236   0.98900   0.67275   0.00000  Uiso   1.00
O361   O     0.61149   0.40626   0.01834   0.00000  Uiso   1.00
O362   O     0.78593   0.52106   0.06330   0.00000  Uiso   1.00
N363   N     0.68899   0.89338   0.67447   0.00000  Uiso   1.00
N364   N     0.68123   0.47812   0.92076   0.00000  Uiso   1.00
N365   N     0.80554   0.55990   0.24020   0.00000  Uiso   1.00
N366   N     0.58501   0.88334   0.62039   0.00000  Uiso   1.00
N367   N     0.57725   0.46808   0.86669   0.00000  Uiso   1.00
N368   N     0.70156   0.54987   0.18613   0.00000  Uiso   1.00
