data_job_04772
_audit_creation_date              2018-12-19
_audit_creation_method            'Materials Studio'
_symmetry_space_group_name_H-M    'P1'
_symmetry_Int_Tables_number       1
_symmetry_cell_setting            triclinic
loop_
_symmetry_equiv_pos_as_xyz
  x,y,z
_cell_length_a                    12.3444
_cell_length_b                    22.3663
_cell_length_c                    20.6506
_cell_angle_alpha                 90.0000
_cell_angle_beta                  110.2547
_cell_angle_gamma                 90.0000
loop_
_atom_site_label
_atom_site_type_symbol
_atom_site_fract_x
_atom_site_fract_y
_atom_site_fract_z
_atom_site_U_iso_or_equiv
_atom_site_adp_type
_atom_site_occupancy
C1     C     0.23437   0.59905   0.06233   0.00000  Uiso   1.00
C2     C     0.16585   0.64525   0.08652   0.00000  Uiso   1.00
C3     C     0.04930   0.65781   0.05473   0.00000  Uiso   1.00
C4     C     0.00266   0.70164   0.08486   0.00000  Uiso   1.00
C5     C     0.88599   0.76882   0.11331   0.00000  Uiso   1.00
C6     C     0.33490   0.63286   0.05259   0.00000  Uiso   1.00
C7     C     0.36050   0.63500   0.99227   0.00000  Uiso   1.00
C8     C     0.45618   0.66839   0.99384   0.00000  Uiso   1.00
C9     C     0.60203   0.71630   0.96962   0.00000  Uiso   1.00
C10    C     0.28764   0.55708   0.12329   0.00000  Uiso   1.00
C11    C     0.27353   0.49549   0.12242   0.00000  Uiso   1.00
C12    C     0.32945   0.46508   0.18351   0.00000  Uiso   1.00
C13    C     0.40191   0.39531   0.26907   0.00000  Uiso   1.00
C14    C     0.35881   0.65455   0.17237   0.00000  Uiso   1.00
C15    C     0.23344   0.67540   0.14629   0.00000  Uiso   1.00
C16    C     0.18697   0.71922   0.17648   0.00000  Uiso   1.00
C17    C     0.07037   0.73184   0.14474   0.00000  Uiso   1.00
C18    C     0.40249   0.66301   0.11235   0.00000  Uiso   1.00
C19    C     0.49817   0.69641   0.11401   0.00000  Uiso   1.00
C20    C     0.52390   0.69860   0.05371   0.00000  Uiso   1.00
C21    C     0.35523   0.58722   0.18306   0.00000  Uiso   1.00
C22    C     0.41119   0.55690   0.24417   0.00000  Uiso   1.00
C23    C     0.39716   0.49528   0.24339   0.00000  Uiso   1.00
H24    H     0.18176   0.57558   0.01580   0.00000  Uiso   1.00
H25    H     0.99702   0.63447   0.00847   0.00000  Uiso   1.00
H26    H     0.30818   0.61166   0.94603   0.00000  Uiso   1.00
H27    H     0.22122   0.47217   0.07616   0.00000  Uiso   1.00
H28    H     0.82203   0.71308   0.02670   0.00000  Uiso   1.00
H29    H     0.47815   0.66495   0.89503   0.00000  Uiso   1.00
H30    H     0.29477   0.37082   0.16944   0.00000  Uiso   1.00
H31    H     0.41143   0.67803   0.21890   0.00000  Uiso   1.00
H32    H     0.23929   0.74255   0.22273   0.00000  Uiso   1.00
H33    H     0.55045   0.71973   0.16028   0.00000  Uiso   1.00
H34    H     0.46349   0.58025   0.29041   0.00000  Uiso   1.00
H35    H     0.01866   0.80080   0.20059   0.00000  Uiso   1.00
H36    H     0.67479   0.75267   0.06892   0.00000  Uiso   1.00
H37    H     0.49141   0.45854   0.34333   0.00000  Uiso   1.00
O38    O     0.80297   0.79754   0.11248   0.00000  Uiso   1.00
O39    O     0.66379   0.73440   0.93974   0.00000  Uiso   1.00
O40    O     0.42320   0.34851   0.29976   0.00000  Uiso   1.00
N41    N     0.89192   0.72486   0.06711   0.00000  Uiso   1.00
N42    N     0.50535   0.67988   0.94400   0.00000  Uiso   1.00
N43    N     0.33393   0.40489   0.20055   0.00000  Uiso   1.00
N44    N     0.99773   0.77206   0.16068   0.00000  Uiso   1.00
N45    N     0.61115   0.72708   0.03757   0.00000  Uiso   1.00
N46    N     0.43974   0.45209   0.29412   0.00000  Uiso   1.00
C47    C     0.14050   0.42723   0.92243   0.00000  Uiso   1.00
C48    C     0.04335   0.38138   0.89802   0.00000  Uiso   1.00
C49    C     0.96525   0.36796   0.93070   0.00000  Uiso   1.00
C50    C     0.88280   0.32464   0.90019   0.00000  Uiso   1.00
C51    C     0.73261   0.25781   0.87158   0.00000  Uiso   1.00
C52    C     0.25147   0.39344   0.92986   0.00000  Uiso   1.00
C53    C     0.34834   0.39017   0.98931   0.00000  Uiso   1.00
C54    C     0.44109   0.35701   0.98559   0.00000  Uiso   1.00
C55    C     0.61403   0.30894   0.00640   0.00000  Uiso   1.00
C56    C     0.12154   0.47051   0.86244   0.00000  Uiso   1.00
C57    C     0.10921   0.53203   0.86521   0.00000  Uiso   1.00
C58    C     0.09260   0.56375   0.80473   0.00000  Uiso   1.00
C59    C     0.06381   0.63533   0.72087   0.00000  Uiso   1.00
C60    C     0.13298   0.37417   0.81011   0.00000  Uiso   1.00
C61    C     0.03927   0.35256   0.83701   0.00000  Uiso   1.00
C62    C     0.95692   0.30925   0.80644   0.00000  Uiso   1.00
C63    C     0.87870   0.29577   0.83907   0.00000  Uiso   1.00
C64    C     0.24738   0.36462   0.86885   0.00000  Uiso   1.00
C65    C     0.34001   0.33146   0.86504   0.00000  Uiso   1.00
C66    C     0.43700   0.32814   0.92447   0.00000  Uiso   1.00
C67    C     0.11745   0.44168   0.80143   0.00000  Uiso   1.00
C68    C     0.10087   0.47332   0.74094   0.00000  Uiso   1.00
C69    C     0.08851   0.53488   0.74362   0.00000  Uiso   1.00
H70    H     0.14370   0.44967   0.96992   0.00000  Uiso   1.00
H71    H     0.96845   0.39027   0.97792   0.00000  Uiso   1.00
H72    H     0.35148   0.41248   0.03651   0.00000  Uiso   1.00
H73    H     0.11238   0.55432   0.91243   0.00000  Uiso   1.00
H74    H     0.77237   0.31169   0.95989   0.00000  Uiso   1.00
H75    H     0.58004   0.35854   0.08342   0.00000  Uiso   1.00
H76    H     0.07585   0.65763   0.82178   0.00000  Uiso   1.00
H77    H     0.12980   0.35173   0.76261   0.00000  Uiso   1.00
H78    H     0.95378   0.28696   0.75923   0.00000  Uiso   1.00
H79    H     0.33682   0.30917   0.81782   0.00000  Uiso   1.00
H80    H     0.09771   0.45100   0.69374   0.00000  Uiso   1.00
H81    H     0.76047   0.22783   0.78239   0.00000  Uiso   1.00
H82    H     0.56815   0.27469   0.90593   0.00000  Uiso   1.00
H83    H     0.06395   0.57377   0.64429   0.00000  Uiso   1.00
O84    O     0.65091   0.22890   0.87267   0.00000  Uiso   1.00
O85    O     0.71055   0.29039   0.03474   0.00000  Uiso   1.00
O86    O     0.04905   0.68277   0.69147   0.00000  Uiso   1.00
N87    N     0.79371   0.30085   0.91857   0.00000  Uiso   1.00
N88    N     0.54883   0.34465   0.03407   0.00000  Uiso   1.00
N89    N     0.07748   0.62427   0.78946   0.00000  Uiso   1.00
N90    N     0.78731   0.25573   0.82306   0.00000  Uiso   1.00
N91    N     0.54243   0.29953   0.93857   0.00000  Uiso   1.00
N92    N     0.07108   0.57915   0.69396   0.00000  Uiso   1.00
C93    C     0.73437   0.09905   0.06233   0.00000  Uiso   1.00
C94    C     0.66585   0.14525   0.08652   0.00000  Uiso   1.00
C95    C     0.54930   0.15781   0.05473   0.00000  Uiso   1.00
C96    C     0.50266   0.20164   0.08486   0.00000  Uiso   1.00
C97    C     0.38599   0.26882   0.11331   0.00000  Uiso   1.00
C98    C     0.83490   0.13286   0.05259   0.00000  Uiso   1.00
C99    C     0.86050   0.13500   0.99227   0.00000  Uiso   1.00
C100   C     0.95618   0.16839   0.99384   0.00000  Uiso   1.00
C101   C     0.10203   0.21630   0.96962   0.00000  Uiso   1.00
C102   C     0.78764   0.05708   0.12329   0.00000  Uiso   1.00
C103   C     0.77353   0.99549   0.12242   0.00000  Uiso   1.00
C104   C     0.82945   0.96508   0.18351   0.00000  Uiso   1.00
C105   C     0.90191   0.89531   0.26907   0.00000  Uiso   1.00
C106   C     0.85881   0.15455   0.17237   0.00000  Uiso   1.00
C107   C     0.73344   0.17540   0.14629   0.00000  Uiso   1.00
C108   C     0.68697   0.21922   0.17648   0.00000  Uiso   1.00
C109   C     0.57037   0.23184   0.14474   0.00000  Uiso   1.00
C110   C     0.90249   0.16301   0.11235   0.00000  Uiso   1.00
C111   C     0.99817   0.19641   0.11401   0.00000  Uiso   1.00
C112   C     0.02390   0.19860   0.05371   0.00000  Uiso   1.00
C113   C     0.85523   0.08722   0.18306   0.00000  Uiso   1.00
C114   C     0.91119   0.05690   0.24417   0.00000  Uiso   1.00
C115   C     0.89716   0.99528   0.24339   0.00000  Uiso   1.00
H116   H     0.68176   0.07558   0.01580   0.00000  Uiso   1.00
H117   H     0.49702   0.13447   0.00847   0.00000  Uiso   1.00
H118   H     0.80818   0.11166   0.94603   0.00000  Uiso   1.00
H119   H     0.72122   0.97217   0.07616   0.00000  Uiso   1.00
H120   H     0.32203   0.21308   0.02670   0.00000  Uiso   1.00
H121   H     0.97815   0.16495   0.89503   0.00000  Uiso   1.00
H122   H     0.79477   0.87082   0.16944   0.00000  Uiso   1.00
H123   H     0.91143   0.17803   0.21890   0.00000  Uiso   1.00
H124   H     0.73929   0.24255   0.22273   0.00000  Uiso   1.00
H125   H     0.05045   0.21973   0.16028   0.00000  Uiso   1.00
H126   H     0.96349   0.08025   0.29041   0.00000  Uiso   1.00
H127   H     0.51866   0.30080   0.20059   0.00000  Uiso   1.00
H128   H     0.17479   0.25267   0.06892   0.00000  Uiso   1.00
H129   H     0.99141   0.95854   0.34333   0.00000  Uiso   1.00
O130   O     0.30297   0.29754   0.11248   0.00000  Uiso   1.00
O131   O     0.16379   0.23440   0.93974   0.00000  Uiso   1.00
O132   O     0.92320   0.84851   0.29976   0.00000  Uiso   1.00
N133   N     0.39192   0.22486   0.06711   0.00000  Uiso   1.00
N134   N     0.00535   0.17988   0.94400   0.00000  Uiso   1.00
N135   N     0.83393   0.90489   0.20055   0.00000  Uiso   1.00
N136   N     0.49773   0.27206   0.16068   0.00000  Uiso   1.00
N137   N     0.11115   0.22708   0.03757   0.00000  Uiso   1.00
N138   N     0.93974   0.95209   0.29412   0.00000  Uiso   1.00
C139   C     0.64050   0.92723   0.92243   0.00000  Uiso   1.00
C140   C     0.54335   0.88138   0.89802   0.00000  Uiso   1.00
C141   C     0.46525   0.86796   0.93070   0.00000  Uiso   1.00
C142   C     0.38280   0.82464   0.90019   0.00000  Uiso   1.00
C143   C     0.23261   0.75781   0.87158   0.00000  Uiso   1.00
C144   C     0.75147   0.89344   0.92986   0.00000  Uiso   1.00
C145   C     0.84834   0.89017   0.98931   0.00000  Uiso   1.00
C146   C     0.94109   0.85701   0.98559   0.00000  Uiso   1.00
C147   C     0.11403   0.80894   0.00640   0.00000  Uiso   1.00
C148   C     0.62154   0.97051   0.86244   0.00000  Uiso   1.00
C149   C     0.60921   0.03203   0.86521   0.00000  Uiso   1.00
C150   C     0.59260   0.06375   0.80473   0.00000  Uiso   1.00
C151   C     0.56381   0.13533   0.72087   0.00000  Uiso   1.00
C152   C     0.63298   0.87417   0.81011   0.00000  Uiso   1.00
C153   C     0.53927   0.85256   0.83701   0.00000  Uiso   1.00
C154   C     0.45692   0.80925   0.80644   0.00000  Uiso   1.00
C155   C     0.37870   0.79577   0.83907   0.00000  Uiso   1.00
C156   C     0.74738   0.86462   0.86885   0.00000  Uiso   1.00
C157   C     0.84001   0.83146   0.86504   0.00000  Uiso   1.00
C158   C     0.93700   0.82814   0.92447   0.00000  Uiso   1.00
C159   C     0.61745   0.94168   0.80143   0.00000  Uiso   1.00
C160   C     0.60087   0.97332   0.74094   0.00000  Uiso   1.00
C161   C     0.58851   0.03488   0.74362   0.00000  Uiso   1.00
H162   H     0.64370   0.94967   0.96992   0.00000  Uiso   1.00
H163   H     0.46845   0.89027   0.97792   0.00000  Uiso   1.00
H164   H     0.85148   0.91248   0.03651   0.00000  Uiso   1.00
H165   H     0.61238   0.05432   0.91243   0.00000  Uiso   1.00
H166   H     0.27237   0.81169   0.95989   0.00000  Uiso   1.00
H167   H     0.08004   0.85854   0.08342   0.00000  Uiso   1.00
H168   H     0.57585   0.15763   0.82178   0.00000  Uiso   1.00
H169   H     0.62980   0.85173   0.76261   0.00000  Uiso   1.00
H170   H     0.45378   0.78696   0.75923   0.00000  Uiso   1.00
H171   H     0.83682   0.80917   0.81782   0.00000  Uiso   1.00
H172   H     0.59771   0.95100   0.69374   0.00000  Uiso   1.00
H173   H     0.26047   0.72783   0.78239   0.00000  Uiso   1.00
H174   H     0.06815   0.77469   0.90593   0.00000  Uiso   1.00
H175   H     0.56395   0.07377   0.64429   0.00000  Uiso   1.00
O176   O     0.15091   0.72890   0.87267   0.00000  Uiso   1.00
O177   O     0.21055   0.79039   0.03474   0.00000  Uiso   1.00
O178   O     0.54905   0.18277   0.69147   0.00000  Uiso   1.00
N179   N     0.29371   0.80085   0.91857   0.00000  Uiso   1.00
N180   N     0.04883   0.84465   0.03407   0.00000  Uiso   1.00
N181   N     0.57748   0.12427   0.78946   0.00000  Uiso   1.00
N182   N     0.28731   0.75573   0.82306   0.00000  Uiso   1.00
N183   N     0.04243   0.79953   0.93857   0.00000  Uiso   1.00
N184   N     0.57108   0.07915   0.69396   0.00000  Uiso   1.00
C185   C     0.23437   0.40095   0.56233   0.00000  Uiso   1.00
C186   C     0.16585   0.35475   0.58652   0.00000  Uiso   1.00
C187   C     0.04930   0.34219   0.55473   0.00000  Uiso   1.00
C188   C     0.00266   0.29836   0.58486   0.00000  Uiso   1.00
C189   C     0.88599   0.23118   0.61331   0.00000  Uiso   1.00
C190   C     0.33490   0.36714   0.55259   0.00000  Uiso   1.00
C191   C     0.36050   0.36500   0.49227   0.00000  Uiso   1.00
C192   C     0.45618   0.33161   0.49384   0.00000  Uiso   1.00
C193   C     0.60203   0.28370   0.46962   0.00000  Uiso   1.00
C194   C     0.28764   0.44292   0.62329   0.00000  Uiso   1.00
C195   C     0.27353   0.50451   0.62242   0.00000  Uiso   1.00
C196   C     0.32945   0.53492   0.68351   0.00000  Uiso   1.00
C197   C     0.40191   0.60469   0.76907   0.00000  Uiso   1.00
C198   C     0.35881   0.34545   0.67237   0.00000  Uiso   1.00
C199   C     0.23344   0.32460   0.64629   0.00000  Uiso   1.00
C200   C     0.18697   0.28078   0.67648   0.00000  Uiso   1.00
C201   C     0.07037   0.26816   0.64474   0.00000  Uiso   1.00
C202   C     0.40249   0.33699   0.61235   0.00000  Uiso   1.00
C203   C     0.49817   0.30359   0.61401   0.00000  Uiso   1.00
C204   C     0.52390   0.30140   0.55371   0.00000  Uiso   1.00
C205   C     0.35523   0.41278   0.68306   0.00000  Uiso   1.00
C206   C     0.41119   0.44310   0.74417   0.00000  Uiso   1.00
C207   C     0.39716   0.50472   0.74339   0.00000  Uiso   1.00
H208   H     0.18176   0.42442   0.51580   0.00000  Uiso   1.00
H209   H     0.99702   0.36553   0.50847   0.00000  Uiso   1.00
H210   H     0.30818   0.38834   0.44603   0.00000  Uiso   1.00
H211   H     0.22122   0.52783   0.57616   0.00000  Uiso   1.00
H212   H     0.82203   0.28692   0.52670   0.00000  Uiso   1.00
H213   H     0.47815   0.33505   0.39503   0.00000  Uiso   1.00
H214   H     0.29477   0.62918   0.66944   0.00000  Uiso   1.00
H215   H     0.41143   0.32197   0.71890   0.00000  Uiso   1.00
H216   H     0.23929   0.25745   0.72273   0.00000  Uiso   1.00
H217   H     0.55045   0.28027   0.66028   0.00000  Uiso   1.00
H218   H     0.46349   0.41975   0.79041   0.00000  Uiso   1.00
H219   H     0.01866   0.19920   0.70059   0.00000  Uiso   1.00
H220   H     0.67479   0.24733   0.56892   0.00000  Uiso   1.00
H221   H     0.49141   0.54146   0.84333   0.00000  Uiso   1.00
O222   O     0.80297   0.20246   0.61248   0.00000  Uiso   1.00
O223   O     0.66379   0.26560   0.43974   0.00000  Uiso   1.00
O224   O     0.42320   0.65149   0.79976   0.00000  Uiso   1.00
N225   N     0.89192   0.27514   0.56711   0.00000  Uiso   1.00
N226   N     0.50535   0.32012   0.44400   0.00000  Uiso   1.00
N227   N     0.33393   0.59511   0.70055   0.00000  Uiso   1.00
N228   N     0.99773   0.22794   0.66068   0.00000  Uiso   1.00
N229   N     0.61115   0.27292   0.53757   0.00000  Uiso   1.00
N230   N     0.43974   0.54791   0.79412   0.00000  Uiso   1.00
C231   C     0.14050   0.57277   0.42243   0.00000  Uiso   1.00
C232   C     0.04335   0.61862   0.39802   0.00000  Uiso   1.00
C233   C     0.96525   0.63204   0.43070   0.00000  Uiso   1.00
C234   C     0.88280   0.67536   0.40019   0.00000  Uiso   1.00
C235   C     0.73261   0.74219   0.37158   0.00000  Uiso   1.00
C236   C     0.25147   0.60656   0.42986   0.00000  Uiso   1.00
C237   C     0.34834   0.60983   0.48931   0.00000  Uiso   1.00
C238   C     0.44109   0.64299   0.48559   0.00000  Uiso   1.00
C239   C     0.61403   0.69106   0.50640   0.00000  Uiso   1.00
C240   C     0.12154   0.52949   0.36244   0.00000  Uiso   1.00
C241   C     0.10921   0.46797   0.36521   0.00000  Uiso   1.00
C242   C     0.09260   0.43625   0.30473   0.00000  Uiso   1.00
C243   C     0.06381   0.36467   0.22087   0.00000  Uiso   1.00
C244   C     0.13298   0.62583   0.31011   0.00000  Uiso   1.00
C245   C     0.03927   0.64744   0.33701   0.00000  Uiso   1.00
C246   C     0.95692   0.69075   0.30644   0.00000  Uiso   1.00
C247   C     0.87870   0.70423   0.33907   0.00000  Uiso   1.00
C248   C     0.24738   0.63538   0.36885   0.00000  Uiso   1.00
C249   C     0.34001   0.66854   0.36504   0.00000  Uiso   1.00
C250   C     0.43700   0.67186   0.42447   0.00000  Uiso   1.00
C251   C     0.11745   0.55832   0.30143   0.00000  Uiso   1.00
C252   C     0.10087   0.52668   0.24094   0.00000  Uiso   1.00
C253   C     0.08851   0.46512   0.24362   0.00000  Uiso   1.00
H254   H     0.14370   0.55033   0.46992   0.00000  Uiso   1.00
H255   H     0.96845   0.60973   0.47792   0.00000  Uiso   1.00
H256   H     0.35148   0.58752   0.53651   0.00000  Uiso   1.00
H257   H     0.11238   0.44568   0.41243   0.00000  Uiso   1.00
H258   H     0.77237   0.68831   0.45989   0.00000  Uiso   1.00
H259   H     0.58004   0.64146   0.58342   0.00000  Uiso   1.00
H260   H     0.07585   0.34237   0.32178   0.00000  Uiso   1.00
H261   H     0.12980   0.64827   0.26261   0.00000  Uiso   1.00
H262   H     0.95378   0.71304   0.25923   0.00000  Uiso   1.00
H263   H     0.33682   0.69083   0.31782   0.00000  Uiso   1.00
H264   H     0.09771   0.54900   0.19374   0.00000  Uiso   1.00
H265   H     0.76047   0.77217   0.28239   0.00000  Uiso   1.00
H266   H     0.56815   0.72531   0.40593   0.00000  Uiso   1.00
H267   H     0.06395   0.42623   0.14429   0.00000  Uiso   1.00
O268   O     0.65091   0.77110   0.37267   0.00000  Uiso   1.00
O269   O     0.71055   0.70961   0.53474   0.00000  Uiso   1.00
O270   O     0.04905   0.31723   0.19147   0.00000  Uiso   1.00
N271   N     0.79371   0.69915   0.41857   0.00000  Uiso   1.00
N272   N     0.54883   0.65535   0.53407   0.00000  Uiso   1.00
N273   N     0.07748   0.37573   0.28946   0.00000  Uiso   1.00
N274   N     0.78731   0.74427   0.32306   0.00000  Uiso   1.00
N275   N     0.54243   0.70047   0.43857   0.00000  Uiso   1.00
N276   N     0.07108   0.42085   0.19396   0.00000  Uiso   1.00
C277   C     0.73437   0.90095   0.56233   0.00000  Uiso   1.00
C278   C     0.66585   0.85475   0.58652   0.00000  Uiso   1.00
C279   C     0.54930   0.84219   0.55473   0.00000  Uiso   1.00
C280   C     0.50266   0.79836   0.58486   0.00000  Uiso   1.00
C281   C     0.38599   0.73118   0.61331   0.00000  Uiso   1.00
C282   C     0.83490   0.86714   0.55259   0.00000  Uiso   1.00
C283   C     0.86050   0.86500   0.49227   0.00000  Uiso   1.00
C284   C     0.95618   0.83161   0.49384   0.00000  Uiso   1.00
C285   C     0.10203   0.78370   0.46962   0.00000  Uiso   1.00
C286   C     0.78764   0.94292   0.62329   0.00000  Uiso   1.00
C287   C     0.77353   0.00451   0.62242   0.00000  Uiso   1.00
C288   C     0.82945   0.03492   0.68351   0.00000  Uiso   1.00
C289   C     0.90191   0.10469   0.76907   0.00000  Uiso   1.00
C290   C     0.85881   0.84545   0.67237   0.00000  Uiso   1.00
C291   C     0.73344   0.82460   0.64629   0.00000  Uiso   1.00
C292   C     0.68697   0.78078   0.67648   0.00000  Uiso   1.00
C293   C     0.57037   0.76816   0.64474   0.00000  Uiso   1.00
C294   C     0.90249   0.83699   0.61235   0.00000  Uiso   1.00
C295   C     0.99817   0.80359   0.61401   0.00000  Uiso   1.00
C296   C     0.02390   0.80140   0.55371   0.00000  Uiso   1.00
C297   C     0.85523   0.91278   0.68306   0.00000  Uiso   1.00
C298   C     0.91119   0.94310   0.74417   0.00000  Uiso   1.00
C299   C     0.89716   0.00472   0.74339   0.00000  Uiso   1.00
H300   H     0.68176   0.92442   0.51580   0.00000  Uiso   1.00
H301   H     0.49702   0.86553   0.50847   0.00000  Uiso   1.00
H302   H     0.80818   0.88834   0.44603   0.00000  Uiso   1.00
H303   H     0.72122   0.02783   0.57616   0.00000  Uiso   1.00
H304   H     0.32203   0.78692   0.52670   0.00000  Uiso   1.00
H305   H     0.97815   0.83505   0.39503   0.00000  Uiso   1.00
H306   H     0.79477   0.12918   0.66944   0.00000  Uiso   1.00
H307   H     0.91143   0.82197   0.71890   0.00000  Uiso   1.00
H308   H     0.73929   0.75745   0.72273   0.00000  Uiso   1.00
H309   H     0.05045   0.78027   0.66028   0.00000  Uiso   1.00
H310   H     0.96349   0.91975   0.79041   0.00000  Uiso   1.00
H311   H     0.51866   0.69920   0.70059   0.00000  Uiso   1.00
H312   H     0.17479   0.74733   0.56892   0.00000  Uiso   1.00
H313   H     0.99141   0.04146   0.84333   0.00000  Uiso   1.00
O314   O     0.30297   0.70246   0.61248   0.00000  Uiso   1.00
O315   O     0.16379   0.76560   0.43974   0.00000  Uiso   1.00
O316   O     0.92320   0.15149   0.79976   0.00000  Uiso   1.00
N317   N     0.39192   0.77514   0.56711   0.00000  Uiso   1.00
N318   N     0.00535   0.82012   0.44400   0.00000  Uiso   1.00
N319   N     0.83393   0.09511   0.70055   0.00000  Uiso   1.00
N320   N     0.49773   0.72794   0.66068   0.00000  Uiso   1.00
N321   N     0.11115   0.77292   0.53757   0.00000  Uiso   1.00
N322   N     0.93974   0.04791   0.79412   0.00000  Uiso   1.00
C323   C     0.64050   0.07277   0.42243   0.00000  Uiso   1.00
C324   C     0.54335   0.11862   0.39802   0.00000  Uiso   1.00
C325   C     0.46525   0.13204   0.43070   0.00000  Uiso   1.00
C326   C     0.38280   0.17536   0.40019   0.00000  Uiso   1.00
C327   C     0.23261   0.24219   0.37158   0.00000  Uiso   1.00
C328   C     0.75147   0.10656   0.42986   0.00000  Uiso   1.00
C329   C     0.84834   0.10983   0.48931   0.00000  Uiso   1.00
C330   C     0.94109   0.14299   0.48559   0.00000  Uiso   1.00
C331   C     0.11403   0.19106   0.50640   0.00000  Uiso   1.00
C332   C     0.62154   0.02949   0.36244   0.00000  Uiso   1.00
C333   C     0.60921   0.96797   0.36521   0.00000  Uiso   1.00
C334   C     0.59260   0.93625   0.30473   0.00000  Uiso   1.00
C335   C     0.56381   0.86467   0.22087   0.00000  Uiso   1.00
C336   C     0.63298   0.12583   0.31011   0.00000  Uiso   1.00
C337   C     0.53927   0.14744   0.33701   0.00000  Uiso   1.00
C338   C     0.45692   0.19075   0.30644   0.00000  Uiso   1.00
C339   C     0.37870   0.20423   0.33907   0.00000  Uiso   1.00
C340   C     0.74738   0.13538   0.36885   0.00000  Uiso   1.00
C341   C     0.84001   0.16854   0.36504   0.00000  Uiso   1.00
C342   C     0.93700   0.17186   0.42447   0.00000  Uiso   1.00
C343   C     0.61745   0.05832   0.30143   0.00000  Uiso   1.00
C344   C     0.60087   0.02668   0.24094   0.00000  Uiso   1.00
C345   C     0.58851   0.96512   0.24362   0.00000  Uiso   1.00
H346   H     0.64370   0.05033   0.46992   0.00000  Uiso   1.00
H347   H     0.46845   0.10973   0.47792   0.00000  Uiso   1.00
H348   H     0.85148   0.08752   0.53651   0.00000  Uiso   1.00
H349   H     0.61238   0.94568   0.41243   0.00000  Uiso   1.00
H350   H     0.27237   0.18831   0.45989   0.00000  Uiso   1.00
H351   H     0.08004   0.14146   0.58342   0.00000  Uiso   1.00
H352   H     0.57585   0.84237   0.32178   0.00000  Uiso   1.00
H353   H     0.62980   0.14827   0.26261   0.00000  Uiso   1.00
H354   H     0.45378   0.21304   0.25923   0.00000  Uiso   1.00
H355   H     0.83682   0.19083   0.31782   0.00000  Uiso   1.00
H356   H     0.59771   0.04900   0.19374   0.00000  Uiso   1.00
H357   H     0.26047   0.27217   0.28239   0.00000  Uiso   1.00
H358   H     0.06815   0.22531   0.40593   0.00000  Uiso   1.00
H359   H     0.56395   0.92623   0.14429   0.00000  Uiso   1.00
O360   O     0.15091   0.27110   0.37267   0.00000  Uiso   1.00
O361   O     0.21055   0.20961   0.53474   0.00000  Uiso   1.00
O362   O     0.54905   0.81723   0.19147   0.00000  Uiso   1.00
N363   N     0.29371   0.19915   0.41857   0.00000  Uiso   1.00
N364   N     0.04883   0.15535   0.53407   0.00000  Uiso   1.00
N365   N     0.57748   0.87573   0.28946   0.00000  Uiso   1.00
N366   N     0.28731   0.24427   0.32306   0.00000  Uiso   1.00
N367   N     0.04243   0.20047   0.43857   0.00000  Uiso   1.00
N368   N     0.57108   0.92085   0.19396   0.00000  Uiso   1.00
