data_job_06885
_audit_creation_date              2018-12-19
_audit_creation_method            'Materials Studio'
_symmetry_space_group_name_H-M    'P1'
_symmetry_Int_Tables_number       1
_symmetry_cell_setting            triclinic
loop_
_symmetry_equiv_pos_as_xyz
  x,y,z
_cell_length_a                    24.8300
_cell_length_b                    20.5354
_cell_length_c                    21.3327
_cell_angle_alpha                 112.0900
_cell_angle_beta                  107.4280
_cell_angle_gamma                 100.6140
loop_
_atom_site_label
_atom_site_type_symbol
_atom_site_fract_x
_atom_site_fract_y
_atom_site_fract_z
_atom_site_U_iso_or_equiv
_atom_site_adp_type
_atom_site_occupancy
C1     C     0.17778   0.22687   0.68534   0.00000  Uiso   1.00
C2     C     0.11360   0.18217   0.62811   0.00000  Uiso   1.00
C3     C     0.06236   0.19378   0.63660   0.00000  Uiso   1.00
C4     C     0.00781   0.14693   0.57782   0.00000  Uiso   1.00
C5     C     0.90863   0.08608   0.49885   0.00000  Uiso   1.00
C6     C     0.20505   0.17025   0.69916   0.00000  Uiso   1.00
C7     C     0.23070   0.17184   0.76738   0.00000  Uiso   1.00
C8     C     0.25314   0.11495   0.76841   0.00000  Uiso   1.00
C9     C     0.29597   0.03562   0.79975   0.00000  Uiso   1.00
C10    C     0.21077   0.25700   0.64686   0.00000  Uiso   1.00
C11    C     0.24124   0.33153   0.67112   0.00000  Uiso   1.00
C12    C     0.26851   0.34768   0.62812   0.00000  Uiso   1.00
C13    C     0.32021   0.40305   0.57827   0.00000  Uiso   1.00
C14    C     0.17204   0.12301   0.56586   0.00000  Uiso   1.00
C15    C     0.11049   0.12576   0.56322   0.00000  Uiso   1.00
C16    C     0.05601   0.07887   0.50441   0.00000  Uiso   1.00
C17    C     0.00469   0.09041   0.51280   0.00000  Uiso   1.00
C18    C     0.20193   0.11384   0.63427   0.00000  Uiso   1.00
C19    C     0.22435   0.05693   0.63519   0.00000  Uiso   1.00
C20    C     0.25002   0.05843   0.70339   0.00000  Uiso   1.00
C21    C     0.20765   0.20059   0.58196   0.00000  Uiso   1.00
C22    C     0.23488   0.21662   0.53893   0.00000  Uiso   1.00
C23    C     0.26539   0.29117   0.56311   0.00000  Uiso   1.00
H24    H     0.18021   0.27078   0.73587   0.00000  Uiso   1.00
H25    H     0.06479   0.23744   0.68684   0.00000  Uiso   1.00
H26    H     0.23311   0.21551   0.81760   0.00000  Uiso   1.00
H27    H     0.24364   0.37517   0.72134   0.00000  Uiso   1.00
H28    H     0.93544   0.17558   0.60387   0.00000  Uiso   1.00
H29    H     0.29038   0.12934   0.87959   0.00000  Uiso   1.00
H30    H     0.31259   0.46603   0.67663   0.00000  Uiso   1.00
H31    H     0.16962   0.07908   0.51533   0.00000  Uiso   1.00
H32    H     0.05361   0.03522   0.45419   0.00000  Uiso   1.00
H33    H     0.22193   0.01329   0.58496   0.00000  Uiso   1.00
H34    H     0.23246   0.17295   0.48871   0.00000  Uiso   1.00
H35    H     0.92637   0.01145   0.41505   0.00000  Uiso   1.00
H36    H     0.28131   0.96521   0.69077   0.00000  Uiso   1.00
H37    H     0.30351   0.30190   0.48781   0.00000  Uiso   1.00
O38    O     0.85478   0.06810   0.47323   0.00000  Uiso   1.00
O39    O     0.32045   0.00745   0.83497   0.00000  Uiso   1.00
O40    O     0.34959   0.44918   0.56869   0.00000  Uiso   1.00
N41    N     0.94923   0.14298   0.56781   0.00000  Uiso   1.00
N42    N     0.28106   0.09974   0.82559   0.00000  Uiso   1.00
N43    N     0.30184   0.41452   0.63585   0.00000  Uiso   1.00
N44    N     0.94434   0.05466   0.46621   0.00000  Uiso   1.00
N45    N     0.27618   0.01143   0.72399   0.00000  Uiso   1.00
N46    N     0.29696   0.32620   0.53425   0.00000  Uiso   1.00
C47    C     0.61076   0.11116   0.28519   0.00000  Uiso   1.00
C48    C     0.55066   0.05003   0.23089   0.00000  Uiso   1.00
C49    C     0.53474   0.97691   0.21984   0.00000  Uiso   1.00
C50    C     0.47766   0.92952   0.16762   0.00000  Uiso   1.00
C51    C     0.39038   0.83080   0.08931   0.00000  Uiso   1.00
C52    C     0.63515   0.13999   0.23945   0.00000  Uiso   1.00
C53    C     0.69026   0.14252   0.23562   0.00000  Uiso   1.00
C54    C     0.70430   0.17086   0.19062   0.00000  Uiso   1.00
C55    C     0.74821   0.21185   0.12565   0.00000  Uiso   1.00
C56    C     0.59642   0.17489   0.33515   0.00000  Uiso   1.00
C57    C     0.61898   0.20677   0.41178   0.00000  Uiso   1.00
C58    C     0.60043   0.26451   0.44735   0.00000  Uiso   1.00
C59    C     0.58420   0.35969   0.53096   0.00000  Uiso   1.00
C60    C     0.53771   0.15702   0.21211   0.00000  Uiso   1.00
C61    C     0.51098   0.07494   0.19119   0.00000  Uiso   1.00
C62    C     0.45391   0.02765   0.13898   0.00000  Uiso   1.00
C63    C     0.43790   0.95447   0.12785   0.00000  Uiso   1.00
C64    C     0.59547   0.16490   0.19976   0.00000  Uiso   1.00
C65    C     0.60943   0.19325   0.15476   0.00000  Uiso   1.00
C66    C     0.66455   0.19581   0.15085   0.00000  Uiso   1.00
C67    C     0.55674   0.19980   0.29545   0.00000  Uiso   1.00
C68    C     0.53815   0.25750   0.33091   0.00000  Uiso   1.00
C69    C     0.56067   0.28947   0.40758   0.00000  Uiso   1.00
H70    H     0.64166   0.09177   0.31610   0.00000  Uiso   1.00
H71    H     0.56546   0.95766   0.25057   0.00000  Uiso   1.00
H72    H     0.72096   0.12324   0.26635   0.00000  Uiso   1.00
H73    H     0.64969   0.18748   0.44248   0.00000  Uiso   1.00
H74    H     0.46349   0.81994   0.16039   0.00000  Uiso   1.00
H75    H     0.79137   0.16911   0.19368   0.00000  Uiso   1.00
H76    H     0.64109   0.30458   0.56509   0.00000  Uiso   1.00
H77    H     0.50681   0.17642   0.18120   0.00000  Uiso   1.00
H78    H     0.42321   0.04694   0.10826   0.00000  Uiso   1.00
H79    H     0.57871   0.21252   0.12405   0.00000  Uiso   1.00
H80    H     0.50744   0.27677   0.30017   0.00000  Uiso   1.00
H81    H     0.34804   0.89240   0.04489   0.00000  Uiso   1.00
H82    H     0.67592   0.24158   0.07819   0.00000  Uiso   1.00
H83    H     0.52563   0.37704   0.44959   0.00000  Uiso   1.00
O84    O     0.35321   0.76946   0.05707   0.00000  Uiso   1.00
O85    O     0.78339   0.22757   0.10077   0.00000  Uiso   1.00
O86    O     0.58621   0.40530   0.58804   0.00000  Uiso   1.00
N87    N     0.44779   0.85477   0.14322   0.00000  Uiso   1.00
N88    N     0.75434   0.18121   0.17435   0.00000  Uiso   1.00
N89    N     0.61384   0.30787   0.52158   0.00000  Uiso   1.00
N90    N     0.38566   0.89376   0.08108   0.00000  Uiso   1.00
N91    N     0.69221   0.22020   0.11220   0.00000  Uiso   1.00
N92    N     0.55172   0.34687   0.45943   0.00000  Uiso   1.00
C93    C     0.18549   0.67648   0.16292   0.00000  Uiso   1.00
C94    C     0.15017   0.60257   0.09284   0.00000  Uiso   1.00
C95    C     0.14465   0.58929   0.02206   0.00000  Uiso   1.00
C96    C     0.11038   0.51791   0.96528   0.00000  Uiso   1.00
C97    C     0.05973   0.41168   0.85439   0.00000  Uiso   1.00
C98    C     0.14118   0.69660   0.19686   0.00000  Uiso   1.00
C99    C     0.12810   0.76238   0.21355   0.00000  Uiso   1.00
C100   C     0.08626   0.77015   0.24435   0.00000  Uiso   1.00
C101   C     0.02168   0.80992   0.29500   0.00000  Uiso   1.00
C102   C     0.23014   0.65959   0.21622   0.00000  Uiso   1.00
C103   C     0.29186   0.69426   0.24920   0.00000  Uiso   1.00
C104   C     0.32491   0.67089   0.29631   0.00000  Uiso   1.00
C105   C     0.39845   0.65319   0.37701   0.00000  Uiso   1.00
C106   C     0.13444   0.57332   0.18796   0.00000  Uiso   1.00
C107   C     0.12244   0.54654   0.10645   0.00000  Uiso   1.00
C108   C     0.08817   0.47516   0.04976   0.00000  Uiso   1.00
C109   C     0.08260   0.46178   0.97891   0.00000  Uiso   1.00
C110   C     0.11345   0.64057   0.21047   0.00000  Uiso   1.00
C111   C     0.07162   0.64825   0.24125   0.00000  Uiso   1.00
C112   C     0.05848   0.71402   0.25797   0.00000  Uiso   1.00
C113   C     0.20241   0.60355   0.22982   0.00000  Uiso   1.00
C114   C     0.23537   0.58013   0.27690   0.00000  Uiso   1.00
C115   C     0.29713   0.61476   0.30993   0.00000  Uiso   1.00
H116   H     0.20708   0.72011   0.15234   0.00000  Uiso   1.00
H117   H     0.16612   0.63267   0.01155   0.00000  Uiso   1.00
H118   H     0.14957   0.80573   0.20302   0.00000  Uiso   1.00
H119   H     0.31330   0.73762   0.23866   0.00000  Uiso   1.00
H120   H     0.10845   0.51104   0.86147   0.00000  Uiso   1.00
H121   H     0.07359   0.87595   0.26521   0.00000  Uiso   1.00
H122   H     0.41884   0.73233   0.34036   0.00000  Uiso   1.00
H123   H     0.11285   0.52970   0.19855   0.00000  Uiso   1.00
H124   H     0.06671   0.43181   0.06031   0.00000  Uiso   1.00
H125   H     0.05017   0.60487   0.25177   0.00000  Uiso   1.00
H126   H     0.21389   0.53676   0.28741   0.00000  Uiso   1.00
H127   H     0.02777   0.34801   0.90103   0.00000  Uiso   1.00
H128   H     0.99290   0.71293   0.30478   0.00000  Uiso   1.00
H129   H     0.33815   0.56930   0.37993   0.00000  Uiso   1.00
O130   O     0.03944   0.36857   0.78947   0.00000  Uiso   1.00
O131   O     0.99371   0.84733   0.31917   0.00000  Uiso   1.00
O132   O     0.44667   0.65890   0.41777   0.00000  Uiso   1.00
N133   N     0.09580   0.48610   0.88975   0.00000  Uiso   1.00
N134   N     0.06320   0.82727   0.26722   0.00000  Uiso   1.00
N135   N     0.38598   0.69301   0.33749   0.00000  Uiso   1.00
N136   N     0.05239   0.39837   0.91105   0.00000  Uiso   1.00
N137   N     0.01978   0.73954   0.28851   0.00000  Uiso   1.00
N138   N     0.34256   0.60528   0.35878   0.00000  Uiso   1.00
C139   C     0.66298   0.08758   0.73473   0.00000  Uiso   1.00
C140   C     0.61256   0.01333   0.68143   0.00000  Uiso   1.00
C141   C     0.55207   0.00062   0.66586   0.00000  Uiso   1.00
C142   C     0.51301   0.92879   0.61550   0.00000  Uiso   1.00
C143   C     0.43155   0.82218   0.53781   0.00000  Uiso   1.00
C144   C     0.69577   0.10497   0.68982   0.00000  Uiso   1.00
C145   C     0.70525   0.16932   0.68131   0.00000  Uiso   1.00
C146   C     0.73625   0.17463   0.63802   0.00000  Uiso   1.00
C147   C     0.78402   0.21032   0.57341   0.00000  Uiso   1.00
C148   C     0.70680   0.07250   0.79061   0.00000  Uiso   1.00
C149   C     0.72556   0.10958   0.86685   0.00000  Uiso   1.00
C150   C     0.76585   0.08757   0.90842   0.00000  Uiso   1.00
C151   C     0.83074   0.07285   0.00030   0.00000  Uiso   1.00
C152   C     0.70118   0.98260   0.67298   0.00000  Uiso   1.00
C153   C     0.63331   0.95631   0.64789   0.00000  Uiso   1.00
C154   C     0.59433   0.88447   0.59754   0.00000  Uiso   1.00
C155   C     0.53379   0.87167   0.58190   0.00000  Uiso   1.00
C156   C     0.71652   0.04795   0.65628   0.00000  Uiso   1.00
C157   C     0.74751   0.05317   0.61300   0.00000  Uiso   1.00
C158   C     0.75703   0.11751   0.60442   0.00000  Uiso   1.00
C159   C     0.72754   0.01548   0.75707   0.00000  Uiso   1.00
C160   C     0.76781   0.99342   0.79853   0.00000  Uiso   1.00
C161   C     0.78663   0.03045   0.87482   0.00000  Uiso   1.00
H162   H     0.64683   0.13197   0.76083   0.00000  Uiso   1.00
H163   H     0.53603   0.04477   0.69182   0.00000  Uiso   1.00
H164   H     0.68920   0.21344   0.70728   0.00000  Uiso   1.00
H165   H     0.70950   0.15370   0.89278   0.00000  Uiso   1.00
H166   H     0.42233   0.92294   0.60049   0.00000  Uiso   1.00
H167   H     0.74531   0.27861   0.63311   0.00000  Uiso   1.00
H168   H     0.78812   0.15264   0.02429   0.00000  Uiso   1.00
H169   H     0.71733   0.93821   0.64687   0.00000  Uiso   1.00
H170   H     0.61039   0.84036   0.57160   0.00000  Uiso   1.00
H171   H     0.76356   0.00904   0.58706   0.00000  Uiso   1.00
H172   H     0.78386   0.94929   0.77256   0.00000  Uiso   1.00
H173   H     0.48269   0.75704   0.50291   0.00000  Uiso   1.00
H174   H     0.80567   0.11271   0.53553   0.00000  Uiso   1.00
H175   H     0.84847   0.98673   0.92671   0.00000  Uiso   1.00
O176   O     0.38089   0.77913   0.50422   0.00000  Uiso   1.00
O177   O     0.80463   0.24576   0.54703   0.00000  Uiso   1.00
O178   O     0.86079   0.08048   0.06024   0.00000  Uiso   1.00
N179   N     0.45121   0.89732   0.58787   0.00000  Uiso   1.00
N180   N     0.75317   0.22984   0.61835   0.00000  Uiso   1.00
N181   N     0.79320   0.11208   0.98407   0.00000  Uiso   1.00
N182   N     0.48369   0.80805   0.53536   0.00000  Uiso   1.00
N183   N     0.78565   0.14057   0.56585   0.00000  Uiso   1.00
N184   N     0.82568   0.02281   0.93157   0.00000  Uiso   1.00
C185   C     0.11366   0.75033   0.63516   0.00000  Uiso   1.00
C186   C     0.04908   0.70005   0.58376   0.00000  Uiso   1.00
C187   C     0.02045   0.68394   0.51031   0.00000  Uiso   1.00
C188   C     0.96126   0.63670   0.47270   0.00000  Uiso   1.00
C189   C     0.86546   0.56316   0.38760   0.00000  Uiso   1.00
C190   C     0.14412   0.70292   0.66351   0.00000  Uiso   1.00
C191   C     0.19540   0.68923   0.65713   0.00000  Uiso   1.00
C192   C     0.21623   0.64441   0.68666   0.00000  Uiso   1.00
C193   C     0.26800   0.57537   0.72543   0.00000  Uiso   1.00
C194   C     0.11066   0.81014   0.70194   0.00000  Uiso   1.00
C195   C     0.13382   0.88662   0.72788   0.00000  Uiso   1.00
C196   C     0.12649   0.93207   0.78978   0.00000  Uiso   1.00
C197   C     0.12631   0.02952   0.88821   0.00000  Uiso   1.00
C198   C     0.05946   0.69508   0.69896   0.00000  Uiso   1.00
C199   C     0.01964   0.67004   0.61841   0.00000  Uiso   1.00
C200   C     0.96048   0.62281   0.58090   0.00000  Uiso   1.00
C201   C     0.93177   0.60663   0.50741   0.00000  Uiso   1.00
C202   C     0.11468   0.67291   0.69816   0.00000  Uiso   1.00
C203   C     0.13543   0.62810   0.72772   0.00000  Uiso   1.00
C204   C     0.18673   0.61434   0.72138   0.00000  Uiso   1.00
C205   C     0.08121   0.78014   0.73659   0.00000  Uiso   1.00
C206   C     0.07385   0.82548   0.79847   0.00000  Uiso   1.00
C207   C     0.09699   0.90201   0.82450   0.00000  Uiso   1.00
H208   H     0.13659   0.77369   0.60818   0.00000  Uiso   1.00
H209   H     0.04325   0.70717   0.48351   0.00000  Uiso   1.00
H210   H     0.21818   0.71247   0.63031   0.00000  Uiso   1.00
H211   H     0.15660   0.90982   0.70105   0.00000  Uiso   1.00
H212   H     0.92679   0.62017   0.36056   0.00000  Uiso   1.00
H213   H     0.29565   0.63135   0.67013   0.00000  Uiso   1.00
H214   H     0.16581   0.04751   0.81930   0.00000  Uiso   1.00
H215   H     0.03654   0.67171   0.72595   0.00000  Uiso   1.00
H216   H     0.93771   0.59960   0.60773   0.00000  Uiso   1.00
H217   H     0.11264   0.60489   0.75454   0.00000  Uiso   1.00
H218   H     0.05106   0.80224   0.82527   0.00000  Uiso   1.00
H219   H     0.84113   0.53285   0.46139   0.00000  Uiso   1.00
H220   H     0.20999   0.54404   0.77095   0.00000  Uiso   1.00
H221   H     0.08014   0.96019   0.92012   0.00000  Uiso   1.00
O222   O     0.82076   0.53089   0.33108   0.00000  Uiso   1.00
O223   O     0.30469   0.54558   0.73723   0.00000  Uiso   1.00
O224   O     0.13434   0.09156   0.93293   0.00000  Uiso   1.00
N225   N     0.92019   0.60952   0.40052   0.00000  Uiso   1.00
N226   N     0.26505   0.61997   0.68993   0.00000  Uiso   1.00
N227   N     0.14367   0.00905   0.82940   0.00000  Uiso   1.00
N228   N     0.87410   0.56254   0.45477   0.00000  Uiso   1.00
N229   N     0.21895   0.57299   0.74419   0.00000  Uiso   1.00
N230   N     0.09757   0.96206   0.88366   0.00000  Uiso   1.00
C231   C     0.63688   0.62658   0.22776   0.00000  Uiso   1.00
C232   C     0.58790   0.55564   0.20641   0.00000  Uiso   1.00
C233   C     0.59399   0.50679   0.23656   0.00000  Uiso   1.00
C234   C     0.54389   0.44505   0.20958   0.00000  Uiso   1.00
C235   C     0.47607   0.33679   0.18484   0.00000  Uiso   1.00
C236   C     0.61161   0.68977   0.25096   0.00000  Uiso   1.00
C237   C     0.63764   0.75370   0.31857   0.00000  Uiso   1.00
C238   C     0.60750   0.80488   0.32908   0.00000  Uiso   1.00
C239   C     0.57652   0.90489   0.37349   0.00000  Uiso   1.00
C240   C     0.64273   0.61873   0.15634   0.00000  Uiso   1.00
C241   C     0.69494   0.62295   0.14438   0.00000  Uiso   1.00
C242   C     0.69100   0.61433   0.07523   0.00000  Uiso   1.00
C243   C     0.70834   0.60405   0.97272   0.00000  Uiso   1.00
C244   C     0.53707   0.60381   0.12623   0.00000  Uiso   1.00
C245   C     0.53369   0.54327   0.15126   0.00000  Uiso   1.00
C246   C     0.48356   0.48158   0.12422   0.00000  Uiso   1.00
C247   C     0.48958   0.43265   0.15432   0.00000  Uiso   1.00
C248   C     0.55740   0.67740   0.19582   0.00000  Uiso   1.00
C249   C     0.52721   0.72850   0.20623   0.00000  Uiso   1.00
C250   C     0.55319   0.79248   0.27383   0.00000  Uiso   1.00
C251   C     0.58852   0.60636   0.10118   0.00000  Uiso   1.00
C252   C     0.58451   0.59774   0.03204   0.00000  Uiso   1.00
C253   C     0.63669   0.60194   0.01998   0.00000  Uiso   1.00
H254   H     0.67909   0.63622   0.27070   0.00000  Uiso   1.00
H255   H     0.63595   0.51639   0.27924   0.00000  Uiso   1.00
H256   H     0.67960   0.76326   0.36123   0.00000  Uiso   1.00
H257   H     0.73688   0.63253   0.18707   0.00000  Uiso   1.00
H258   H     0.56421   0.37808   0.26441   0.00000  Uiso   1.00
H259   H     0.65626   0.89865   0.43728   0.00000  Uiso   1.00
H260   H     0.77705   0.62297   0.07003   0.00000  Uiso   1.00
H261   H     0.49486   0.59418   0.08329   0.00000  Uiso   1.00
H262   H     0.44161   0.47202   0.08154   0.00000  Uiso   1.00
H263   H     0.48526   0.71891   0.16354   0.00000  Uiso   1.00
H264   H     0.54255   0.58817   0.98938   0.00000  Uiso   1.00
H265   H     0.40648   0.34208   0.10396   0.00000  Uiso   1.00
H266   H     0.49853   0.86265   0.27683   0.00000  Uiso   1.00
H267   H     0.61932   0.58697   0.90958   0.00000  Uiso   1.00
O268   O     0.45363   0.28050   0.18644   0.00000  Uiso   1.00
O269   O     0.57440   0.96347   0.41323   0.00000  Uiso   1.00
O270   O     0.73288   0.60178   0.93141   0.00000  Uiso   1.00
N271   N     0.53440   0.38637   0.22688   0.00000  Uiso   1.00
N272   N     0.62045   0.87306   0.38851   0.00000  Uiso   1.00
N273   N     0.73339   0.61534   0.04517   0.00000  Uiso   1.00
N274   N     0.44953   0.36699   0.14054   0.00000  Uiso   1.00
N275   N     0.53558   0.85368   0.30217   0.00000  Uiso   1.00
N276   N     0.64852   0.59597   0.95883   0.00000  Uiso   1.00
C277   C     0.81387   0.75906   0.37749   0.00000  Uiso   1.00
C278   C     0.87837   0.80482   0.43317   0.00000  Uiso   1.00
C279   C     0.92924   0.79232   0.42416   0.00000  Uiso   1.00
C280   C     0.98417   0.84041   0.48149   0.00000  Uiso   1.00
C281   C     0.08374   0.90259   0.55819   0.00000  Uiso   1.00
C282   C     0.78592   0.81425   0.36134   0.00000  Uiso   1.00
C283   C     0.75904   0.80967   0.29194   0.00000  Uiso   1.00
C284   C     0.73614   0.86570   0.28881   0.00000  Uiso   1.00
C285   C     0.69213   0.94249   0.25399   0.00000  Uiso   1.00
C286   C     0.78219   0.73188   0.41871   0.00000  Uiso   1.00
C287   C     0.75217   0.65803   0.39754   0.00000  Uiso   1.00
C288   C     0.72612   0.64471   0.44270   0.00000  Uiso   1.00
C289   C     0.67632   0.59360   0.49695   0.00000  Uiso   1.00
C290   C     0.82097   0.86670   0.49532   0.00000  Uiso   1.00
C291   C     0.88223   0.86329   0.49716   0.00000  Uiso   1.00
C292   C     0.93710   0.91141   0.55453   0.00000  Uiso   1.00
C293   C     0.98804   0.89898   0.54561   0.00000  Uiso   1.00
C294   C     0.78977   0.87272   0.42533   0.00000  Uiso   1.00
C295   C     0.76690   0.92876   0.42230   0.00000  Uiso   1.00
C296   C     0.74000   0.92427   0.35292   0.00000  Uiso   1.00
C297   C     0.78605   0.79034   0.48271   0.00000  Uiso   1.00
C298   C     0.76003   0.77713   0.52791   0.00000  Uiso   1.00
C299   C     0.72998   0.70328   0.50681   0.00000  Uiso   1.00
H300   H     0.81087   0.71354   0.32766   0.00000  Uiso   1.00
H301   H     0.92624   0.74706   0.37462   0.00000  Uiso   1.00
H302   H     0.75606   0.76441   0.24242   0.00000  Uiso   1.00
H303   H     0.74919   0.61280   0.34801   0.00000  Uiso   1.00
H304   H     0.05585   0.81003   0.45490   0.00000  Uiso   1.00
H305   H     0.69700   0.84660   0.17615   0.00000  Uiso   1.00
H306   H     0.68252   0.52689   0.39879   0.00000  Uiso   1.00
H307   H     0.82397   0.91223   0.54515   0.00000  Uiso   1.00
H308   H     0.94007   0.95665   0.60404   0.00000  Uiso   1.00
H309   H     0.76989   0.97400   0.47184   0.00000  Uiso   1.00
H310   H     0.76302   0.82239   0.57743   0.00000  Uiso   1.00
H311   H     0.06708   0.98015   0.64110   0.00000  Uiso   1.00
H312   H     0.70822   0.01670   0.36235   0.00000  Uiso   1.00
H313   H     0.69375   0.69701   0.58500   0.00000  Uiso   1.00
O314   O     0.13760   0.92075   0.58281   0.00000  Uiso   1.00
O315   O     0.66679   0.96870   0.21710   0.00000  Uiso   1.00
O316   O     0.64780   0.54926   0.50921   0.00000  Uiso   1.00
N317   N     0.04256   0.84396   0.49064   0.00000  Uiso   1.00
N318   N     0.70707   0.87815   0.23003   0.00000  Uiso   1.00
N319   N     0.69351   0.57926   0.43817   0.00000  Uiso   1.00
N320   N     0.04860   0.93550   0.59084   0.00000  Uiso   1.00
N321   N     0.71311   0.96969   0.33023   0.00000  Uiso   1.00
N322   N     0.69955   0.67079   0.53837   0.00000  Uiso   1.00
C323   C     0.35116   0.85863   0.74872   0.00000  Uiso   1.00
C324   C     0.41437   0.91475   0.79709   0.00000  Uiso   1.00
C325   C     0.43455   0.98569   0.80378   0.00000  Uiso   1.00
C326   C     0.49395   0.02849   0.85089   0.00000  Uiso   1.00
C327   C     0.58634   0.11979   0.92010   0.00000  Uiso   1.00
C328   C     0.32858   0.83854   0.80037   0.00000  Uiso   1.00
C329   C     0.27661   0.84540   0.80980   0.00000  Uiso   1.00
C330   C     0.26378   0.82404   0.85965   0.00000  Uiso   1.00
C331   C     0.22295   0.79697   0.93391   0.00000  Uiso   1.00
C332   C     0.35823   0.78823   0.69788   0.00000  Uiso   1.00
C333   C     0.33119   0.75277   0.62114   0.00000  Uiso   1.00
C334   C     0.34331   0.68903   0.58471   0.00000  Uiso   1.00
C335   C     0.34851   0.58385   0.49983   0.00000  Uiso   1.00
C336   C     0.42076   0.80847   0.82048   0.00000  Uiso   1.00
C337   C     0.45217   0.88750   0.83607   0.00000  Uiso   1.00
C338   C     0.51155   0.93020   0.88318   0.00000  Uiso   1.00
C339   C     0.53182   0.00120   0.88994   0.00000  Uiso   1.00
C340   C     0.36637   0.81130   0.83934   0.00000  Uiso   1.00
C341   C     0.35361   0.78991   0.88919   0.00000  Uiso   1.00
C342   C     0.30165   0.79674   0.89870   0.00000  Uiso   1.00
C343   C     0.39603   0.76098   0.73686   0.00000  Uiso   1.00
C344   C     0.40819   0.69728   0.70054   0.00000  Uiso   1.00
C345   C     0.38117   0.66174   0.62376   0.00000  Uiso   1.00
H346   H     0.32173   0.87983   0.71837   0.00000  Uiso   1.00
H347   H     0.40528   0.00676   0.77361   0.00000  Uiso   1.00
H348   H     0.24737   0.86648   0.77962   0.00000  Uiso   1.00
H349   H     0.30194   0.77387   0.59099   0.00000  Uiso   1.00
H350   H     0.51458   0.13547   0.85206   0.00000  Uiso   1.00
H351   H     0.18160   0.83966   0.86472   0.00000  Uiso   1.00
H352   H     0.29666   0.64437   0.46695   0.00000  Uiso   1.00
H353   H     0.45019   0.78726   0.85083   0.00000  Uiso   1.00
H354   H     0.54079   0.90910   0.91334   0.00000  Uiso   1.00
H355   H     0.38287   0.76883   0.91935   0.00000  Uiso   1.00
H356   H     0.43744   0.67621   0.73072   0.00000  Uiso   1.00
H357   H     0.62457   0.05621   0.96547   0.00000  Uiso   1.00
H358   H     0.29158   0.76040   0.97812   0.00000  Uiso   1.00
H359   H     0.40664   0.56511   0.58036   0.00000  Uiso   1.00
O360   O     0.62685   0.17768   0.94752   0.00000  Uiso   1.00
O361   O     0.18998   0.78957   0.96410   0.00000  Uiso   1.00
O362   O     0.34095   0.53336   0.44225   0.00000  Uiso   1.00
N363   N     0.52804   0.10009   0.87017   0.00000  Uiso   1.00
N364   N     0.21672   0.82354   0.88200   0.00000  Uiso   1.00
N365   N     0.32428   0.64095   0.51013   0.00000  Uiso   1.00
N366   N     0.58722   0.05744   0.93119   0.00000  Uiso   1.00
N367   N     0.27590   0.78089   0.94303   0.00000  Uiso   1.00
N368   N     0.38346   0.59830   0.57115   0.00000  Uiso   1.00
C369   C     0.76819   0.32935   0.91346   0.00000  Uiso   1.00
C370   C     0.80235   0.40397   0.98297   0.00000  Uiso   1.00
C371   C     0.82153   0.41421   0.05522   0.00000  Uiso   1.00
C372   C     0.85209   0.48688   0.11115   0.00000  Uiso   1.00
C373   C     0.90349   0.59359   0.22150   0.00000  Uiso   1.00
C374   C     0.80528   0.32271   0.86729   0.00000  Uiso   1.00
C375   C     0.82693   0.26462   0.84226   0.00000  Uiso   1.00
C376   C     0.85995   0.26887   0.80081   0.00000  Uiso   1.00
C377   C     0.91587   0.24939   0.73151   0.00000  Uiso   1.00
C378   C     0.71075   0.33732   0.87015   0.00000  Uiso   1.00
C379   C     0.65290   0.29150   0.84750   0.00000  Uiso   1.00
C380   C     0.60633   0.30805   0.80844   0.00000  Uiso   1.00
C381   C     0.51546   0.31126   0.74358   0.00000  Uiso   1.00
C382   C     0.78833   0.44019   0.88433   0.00000  Uiso   1.00
C383   C     0.81329   0.46418   0.96715   0.00000  Uiso   1.00
C384   C     0.84381   0.53685   0.02299   0.00000  Uiso   1.00
C385   C     0.86304   0.54719   0.09531   0.00000  Uiso   1.00
C386   C     0.81622   0.38291   0.85147   0.00000  Uiso   1.00
C387   C     0.84921   0.38725   0.81004   0.00000  Uiso   1.00
C388   C     0.87090   0.32919   0.78496   0.00000  Uiso   1.00
C389   C     0.72168   0.39753   0.85433   0.00000  Uiso   1.00
C390   C     0.67519   0.41414   0.81528   0.00000  Uiso   1.00
C391   C     0.61729   0.36836   0.79259   0.00000  Uiso   1.00
H392   H     0.75968   0.28247   0.92577   0.00000  Uiso   1.00
H393   H     0.81307   0.36760   0.06744   0.00000  Uiso   1.00
H394   H     0.81845   0.21803   0.85451   0.00000  Uiso   1.00
H395   H     0.64446   0.24492   0.85975   0.00000  Uiso   1.00
H396   H     0.87710   0.48853   0.21752   0.00000  Uiso   1.00
H397   H     0.88844   0.17314   0.76853   0.00000  Uiso   1.00
H398   H     0.52154   0.22983   0.77959   0.00000  Uiso   1.00
H399   H     0.79684   0.48706   0.87201   0.00000  Uiso   1.00
H400   H     0.85227   0.58342   0.01073   0.00000  Uiso   1.00
H401   H     0.85766   0.43385   0.79780   0.00000  Uiso   1.00
H402   H     0.68367   0.46074   0.80305   0.00000  Uiso   1.00
H403   H     0.90893   0.66370   0.17150   0.00000  Uiso   1.00
H404   H     0.92027   0.34830   0.72250   0.00000  Uiso   1.00
H405   H     0.55336   0.40500   0.73357   0.00000  Uiso   1.00
O406   O     0.92882   0.63581   0.28674   0.00000  Uiso   1.00
O407   O     0.94369   0.22202   0.69766   0.00000  Uiso   1.00
O408   O     0.46233   0.29640   0.71218   0.00000  Uiso   1.00
N409   N     0.87697   0.51654   0.18765   0.00000  Uiso   1.00
N410   N     0.88759   0.22167   0.76788   0.00000  Uiso   1.00
N411   N     0.54456   0.27466   0.77821   0.00000  Uiso   1.00
N412   N     0.89410   0.61079   0.16289   0.00000  Uiso   1.00
N413   N     0.90471   0.31592   0.74312   0.00000  Uiso   1.00
N414   N     0.56169   0.36891   0.75344   0.00000  Uiso   1.00
C415   C     0.31203   0.90758   0.32692   0.00000  Uiso   1.00
C416   C     0.36578   0.97795   0.38227   0.00000  Uiso   1.00
C417   C     0.42537   0.98498   0.39600   0.00000  Uiso   1.00
C418   C     0.46791   0.05399   0.44875   0.00000  Uiso   1.00
C419   C     0.55387   0.15414   0.52899   0.00000  Uiso   1.00
C420   C     0.27810   0.89061   0.37095   0.00000  Uiso   1.00
C421   C     0.26397   0.82419   0.37515   0.00000  Uiso   1.00
C422   C     0.23271   0.81967   0.41837   0.00000  Uiso   1.00
C423   C     0.18251   0.78420   0.48099   0.00000  Uiso   1.00
C424   C     0.27138   0.92962   0.27502   0.00000  Uiso   1.00
C425   C     0.25159   0.89600   0.19857   0.00000  Uiso   1.00
C426   C     0.21465   0.92432   0.16102   0.00000  Uiso   1.00
C427   C     0.15402   0.94943   0.07470   0.00000  Uiso   1.00
C428   C     0.28162   0.01766   0.39618   0.00000  Uiso   1.00
C429   C     0.34925   0.03774   0.41988   0.00000  Uiso   1.00
C430   C     0.39172   0.10676   0.47263   0.00000  Uiso   1.00
C431   C     0.45136   0.11388   0.48644   0.00000  Uiso   1.00
C432   C     0.26158   0.95039   0.40856   0.00000  Uiso   1.00
C433   C     0.23033   0.94597   0.45178   0.00000  Uiso   1.00
C434   C     0.21616   0.87956   0.45605   0.00000  Uiso   1.00
C435   C     0.25486   0.98941   0.31264   0.00000  Uiso   1.00
C436   C     0.21794   0.01778   0.27520   0.00000  Uiso   1.00
C437   C     0.19810   0.98421   0.19871   0.00000  Uiso   1.00
H438   H     0.32489   0.86104   0.29764   0.00000  Uiso   1.00
H439   H     0.43813   0.93869   0.36688   0.00000  Uiso   1.00
H440   H     0.27676   0.77793   0.34603   0.00000  Uiso   1.00
H441   H     0.26438   0.84973   0.16948   0.00000  Uiso   1.00
H442   H     0.55640   0.05115   0.46026   0.00000  Uiso   1.00
H443   H     0.21611   0.71216   0.41628   0.00000  Uiso   1.00
H444   H     0.19000   0.86357   0.04398   0.00000  Uiso   1.00
H445   H     0.26876   0.06420   0.42547   0.00000  Uiso   1.00
H446   H     0.37892   0.15301   0.50173   0.00000  Uiso   1.00
H447   H     0.21755   0.99225   0.48088   0.00000  Uiso   1.00
H448   H     0.20517   0.06405   0.30433   0.00000  Uiso   1.00
H449   H     0.50834   0.22510   0.56971   0.00000  Uiso   1.00
H450   H     0.16805   0.88610   0.52572   0.00000  Uiso   1.00
H451   H     0.14195   0.03752   0.15343   0.00000  Uiso   1.00
O452   O     0.60585   0.19287   0.56287   0.00000  Uiso   1.00
O453   O     0.15940   0.74812   0.50514   0.00000  Uiso   1.00
O454   O     0.12515   0.94677   0.01670   0.00000  Uiso   1.00
N455   N     0.52997   0.07990   0.47555   0.00000  Uiso   1.00
N456   N     0.21183   0.76297   0.43443   0.00000  Uiso   1.00
N457   N     0.18741   0.90451   0.08636   0.00000  Uiso   1.00
N458   N     0.50411   0.17350   0.53444   0.00000  Uiso   1.00
N459   N     0.18597   0.85657   0.49332   0.00000  Uiso   1.00
N460   N     0.16155   0.99811   0.14525   0.00000  Uiso   1.00
C461   C     0.85722   0.23237   0.42765   0.00000  Uiso   1.00
C462   C     0.92044   0.28511   0.48242   0.00000  Uiso   1.00
C463   C     0.94774   0.29798   0.55503   0.00000  Uiso   1.00
C464   C     0.00580   0.34829   0.59616   0.00000  Uiso   1.00
C465   C     0.09945   0.42472   0.68584   0.00000  Uiso   1.00
C466   C     0.82473   0.27953   0.40145   0.00000  Uiso   1.00
C467   C     0.77156   0.28769   0.40598   0.00000  Uiso   1.00
C468   C     0.74906   0.33329   0.37894   0.00000  Uiso   1.00
C469   C     0.69410   0.40101   0.34287   0.00000  Uiso   1.00
C470   C     0.86388   0.17803   0.36066   0.00000  Uiso   1.00
C471   C     0.84361   0.10085   0.33087   0.00000  Uiso   1.00
C472   C     0.85405   0.06100   0.26947   0.00000  Uiso   1.00
C473   C     0.85987   0.97112   0.17007   0.00000  Uiso   1.00
C474   C     0.91179   0.29883   0.37157   0.00000  Uiso   1.00
C475   C     0.95008   0.32121   0.45196   0.00000  Uiso   1.00
C476   C     0.00812   0.37151   0.49299   0.00000  Uiso   1.00
C477   C     0.03550   0.38445   0.56565   0.00000  Uiso   1.00
C478   C     0.85437   0.31563   0.37099   0.00000  Uiso   1.00
C479   C     0.83194   0.36122   0.34394   0.00000  Uiso   1.00
C480   C     0.77875   0.36946   0.34843   0.00000  Uiso   1.00
C481   C     0.89352   0.21413   0.33020   0.00000  Uiso   1.00
C482   C     0.90399   0.17439   0.26883   0.00000  Uiso   1.00
C483   C     0.88375   0.09716   0.23896   0.00000  Uiso   1.00
H484   H     0.83414   0.20427   0.45136   0.00000  Uiso   1.00
H485   H     0.92478   0.27004   0.57858   0.00000  Uiso   1.00
H486   H     0.74863   0.25974   0.42955   0.00000  Uiso   1.00
H487   H     0.82067   0.07294   0.35446   0.00000  Uiso   1.00
H488   H     0.03834   0.35889   0.70620   0.00000  Uiso   1.00
H489   H     0.66691   0.33717   0.39193   0.00000  Uiso   1.00
H490   H     0.81882   0.94325   0.23358   0.00000  Uiso   1.00
H491   H     0.93487   0.32694   0.34786   0.00000  Uiso   1.00
H492   H     0.03104   0.39944   0.46940   0.00000  Uiso   1.00
H493   H     0.85489   0.38915   0.32037   0.00000  Uiso   1.00
H494   H     0.92693   0.20234   0.24527   0.00000  Uiso   1.00
H495   H     0.12459   0.46392   0.61759   0.00000  Uiso   1.00
H496   H     0.75315   0.44219   0.30332   0.00000  Uiso   1.00
H497   H     0.90506   0.04828   0.14497   0.00000  Uiso   1.00
O498   O     0.14291   0.45691   0.74372   0.00000  Uiso   1.00
O499   O     0.65559   0.42839   0.33140   0.00000  Uiso   1.00
O500   O     0.85490   0.91158   0.12366   0.00000  Uiso   1.00
N501   N     0.04544   0.37365   0.66866   0.00000  Uiso   1.00
N502   N     0.69818   0.35335   0.37485   0.00000  Uiso   1.00
N503   N     0.84019   0.98507   0.22680   0.00000  Uiso   1.00
N504   N     0.09185   0.43017   0.62098   0.00000  Uiso   1.00
N505   N     0.74459   0.40986   0.32717   0.00000  Uiso   1.00
N506   N     0.88660   0.04158   0.17911   0.00000  Uiso   1.00
C507   C     0.27192   0.38489   0.89935   0.00000  Uiso   1.00
C508   C     0.30203   0.45232   0.97580   0.00000  Uiso   1.00
C509   C     0.31431   0.52642   0.99011   0.00000  Uiso   1.00
C510   C     0.34212   0.57992   0.06383   0.00000  Uiso   1.00
C511   C     0.38663   0.68765   0.17381   0.00000  Uiso   1.00
C512   C     0.31514   0.34099   0.89536   0.00000  Uiso   1.00
C513   C     0.33843   0.32148   0.84202   0.00000  Uiso   1.00
C514   C     0.37726   0.28125   0.84803   0.00000  Uiso   1.00
C515   C     0.44209   0.21609   0.83309   0.00000  Uiso   1.00
C516   C     0.21746   0.33618   0.89919   0.00000  Uiso   1.00
C517   C     0.15863   0.31261   0.84908   0.00000  Uiso   1.00
C518   C     0.11523   0.26832   0.85830   0.00000  Uiso   1.00
C519   C     0.02840   0.19570   0.84932   0.00000  Uiso   1.00
C520   C     0.29946   0.34812   0.00483   0.00000  Uiso   1.00
C521   C     0.31699   0.43234   0.03309   0.00000  Uiso   1.00
C522   C     0.34478   0.48574   0.10681   0.00000  Uiso   1.00
C523   C     0.35710   0.55991   0.12123   0.00000  Uiso   1.00
C524   C     0.33010   0.32101   0.95265   0.00000  Uiso   1.00
C525   C     0.36890   0.28079   0.95873   0.00000  Uiso   1.00
C526   C     0.39225   0.26124   0.90542   0.00000  Uiso   1.00
C527   C     0.23242   0.31621   0.95649   0.00000  Uiso   1.00
C528   C     0.18910   0.27194   0.96578   0.00000  Uiso   1.00
C529   C     0.13021   0.24831   0.91569   0.00000  Uiso   1.00
H530   H     0.26027   0.40044   0.85475   0.00000  Uiso   1.00
H531   H     0.30273   0.54186   0.94575   0.00000  Uiso   1.00
H532   H     0.32684   0.33694   0.79769   0.00000  Uiso   1.00
H533   H     0.14707   0.32808   0.80475   0.00000  Uiso   1.00
H534   H     0.35642   0.68983   0.07192   0.00000  Uiso   1.00
H535   H     0.40725   0.25773   0.75970   0.00000  Uiso   1.00
H536   H     0.02816   0.23905   0.77458   0.00000  Uiso   1.00
H537   H     0.31110   0.33257   0.04944   0.00000  Uiso   1.00
H538   H     0.35635   0.47026   0.15113   0.00000  Uiso   1.00
H539   H     0.38046   0.26534   0.00307   0.00000  Uiso   1.00
H540   H     0.20069   0.25649   0.01013   0.00000  Uiso   1.00
H541   H     0.39995   0.63173   0.23861   0.00000  Uiso   1.00
H542   H     0.45076   0.19962   0.92639   0.00000  Uiso   1.00
H543   H     0.07168   0.18094   0.94127   0.00000  Uiso   1.00
O544   O     0.40705   0.75259   0.21865   0.00000  Uiso   1.00
O545   O     0.47372   0.18567   0.80903   0.00000  Uiso   1.00
O546   O     0.97637   0.16117   0.82855   0.00000  Uiso   1.00
N547   N     0.36045   0.65726   0.09719   0.00000  Uiso   1.00
N548   N     0.40797   0.25328   0.80530   0.00000  Uiso   1.00
N549   N     0.05356   0.23580   0.81919   0.00000  Uiso   1.00
N550   N     0.38386   0.62600   0.18689   0.00000  Uiso   1.00
N551   N     0.43139   0.22201   0.89499   0.00000  Uiso   1.00
N552   N     0.07698   0.20453   0.90889   0.00000  Uiso   1.00
