data_job_01923
_audit_creation_date              2018-12-19
_audit_creation_method            'Materials Studio'
_symmetry_space_group_name_H-M    'P1'
_symmetry_Int_Tables_number       1
_symmetry_cell_setting            triclinic
loop_
_symmetry_equiv_pos_as_xyz
  x,y,z
_cell_length_a                    19.8325
_cell_length_b                    19.5906
_cell_length_c                    12.6576
_cell_angle_alpha                 90.0000
_cell_angle_beta                  90.0000
_cell_angle_gamma                 90.0000
loop_
_atom_site_label
_atom_site_type_symbol
_atom_site_fract_x
_atom_site_fract_y
_atom_site_fract_z
_atom_site_U_iso_or_equiv
_atom_site_adp_type
_atom_site_occupancy
C1     C     0.29389   0.91542   0.03401   0.00000  Uiso   1.00
C2     C     0.31521   0.98957   0.04903   0.00000  Uiso   1.00
C3     C     0.35349   0.01469   0.13217   0.00000  Uiso   1.00
C4     C     0.36762   0.08410   0.13161   0.00000  Uiso   1.00
C5     C     0.40425   0.19276   0.16726   0.00000  Uiso   1.00
C6     C     0.21719   0.91616   0.02566   0.00000  Uiso   1.00
C7     C     0.17306   0.87954   0.08913   0.00000  Uiso   1.00
C8     C     0.10467   0.88714   0.06888   0.00000  Uiso   1.00
C9     C     0.98912   0.88178   0.06819   0.00000  Uiso   1.00
C10    C     0.31980   0.89439   0.92535   0.00000  Uiso   1.00
C11    C     0.36194   0.83946   0.90448   0.00000  Uiso   1.00
C12    C     0.37992   0.82874   0.79978   0.00000  Uiso   1.00
C13    C     0.42369   0.78958   0.64335   0.00000  Uiso   1.00
C14    C     0.25090   0.99403   0.88518   0.00000  Uiso   1.00
C15    C     0.29186   0.03227   0.96819   0.00000  Uiso   1.00
C16    C     0.30593   0.10166   0.96750   0.00000  Uiso   1.00
C17    C     0.34422   0.12688   0.05062   0.00000  Uiso   1.00
C18    C     0.19383   0.95885   0.94482   0.00000  Uiso   1.00
C19    C     0.12549   0.96651   0.92447   0.00000  Uiso   1.00
C20    C     0.08127   0.92991   0.98790   0.00000  Uiso   1.00
C21    C     0.29645   0.93709   0.84451   0.00000  Uiso   1.00
C22    C     0.31437   0.92644   0.73982   0.00000  Uiso   1.00
C23    C     0.35652   0.87151   0.71879   0.00000  Uiso   1.00
H24    H     0.31207   0.88218   0.09695   0.00000  Uiso   1.00
H25    H     0.37155   0.98163   0.19472   0.00000  Uiso   1.00
H26    H     0.19115   0.84650   0.15168   0.00000  Uiso   1.00
H27    H     0.38000   0.80644   0.96706   0.00000  Uiso   1.00
H28    H     0.42718   0.11073   0.26749   0.00000  Uiso   1.00
H29    H     0.04679   0.82577   0.17671   0.00000  Uiso   1.00
H30    H     0.44501   0.74129   0.78741   0.00000  Uiso   1.00
H31    H     0.23271   0.02727   0.82224   0.00000  Uiso   1.00
H32    H     0.28785   0.13469   0.90493   0.00000  Uiso   1.00
H33    H     0.10744   0.99955   0.86190   0.00000  Uiso   1.00
H34    H     0.29629   0.95949   0.67728   0.00000  Uiso   1.00
H35    H     0.35924   0.23496   0.03229   0.00000  Uiso   1.00
H36    H     0.97884   0.94999   0.94151   0.00000  Uiso   1.00
H37    H     0.37707   0.86552   0.55221   0.00000  Uiso   1.00
O38    O     0.43089   0.24090   0.20926   0.00000  Uiso   1.00
O39    O     0.93183   0.86703   0.09016   0.00000  Uiso   1.00
O40    O     0.45430   0.75620   0.57940   0.00000  Uiso   1.00
N41    N     0.40364   0.12523   0.20077   0.00000  Uiso   1.00
N42    N     0.04799   0.85881   0.11591   0.00000  Uiso   1.00
N43    N     0.42028   0.77982   0.75195   0.00000  Uiso   1.00
N44    N     0.36708   0.19207   0.07421   0.00000  Uiso   1.00
N45    N     0.01143   0.92566   0.98935   0.00000  Uiso   1.00
N46    N     0.38373   0.84666   0.62539   0.00000  Uiso   1.00
C47    C     0.20611   0.08458   0.53401   0.00000  Uiso   1.00
C48    C     0.18479   0.01043   0.54903   0.00000  Uiso   1.00
C49    C     0.14651   0.98531   0.63217   0.00000  Uiso   1.00
C50    C     0.13238   0.91590   0.63161   0.00000  Uiso   1.00
C51    C     0.09575   0.80724   0.66726   0.00000  Uiso   1.00
C52    C     0.28281   0.08384   0.52566   0.00000  Uiso   1.00
C53    C     0.32694   0.12046   0.58913   0.00000  Uiso   1.00
C54    C     0.39533   0.11286   0.56888   0.00000  Uiso   1.00
C55    C     0.51088   0.11822   0.56819   0.00000  Uiso   1.00
C56    C     0.18020   0.10561   0.42535   0.00000  Uiso   1.00
C57    C     0.13806   0.16054   0.40448   0.00000  Uiso   1.00
C58    C     0.12008   0.17126   0.29978   0.00000  Uiso   1.00
C59    C     0.07631   0.21042   0.14335   0.00000  Uiso   1.00
C60    C     0.24910   0.00597   0.38518   0.00000  Uiso   1.00
C61    C     0.20814   0.96773   0.46819   0.00000  Uiso   1.00
C62    C     0.19407   0.89834   0.46750   0.00000  Uiso   1.00
C63    C     0.15578   0.87312   0.55062   0.00000  Uiso   1.00
C64    C     0.30617   0.04115   0.44482   0.00000  Uiso   1.00
C65    C     0.37451   0.03349   0.42447   0.00000  Uiso   1.00
C66    C     0.41873   0.07009   0.48790   0.00000  Uiso   1.00
C67    C     0.20355   0.06291   0.34451   0.00000  Uiso   1.00
C68    C     0.18563   0.07356   0.23982   0.00000  Uiso   1.00
C69    C     0.14348   0.12849   0.21879   0.00000  Uiso   1.00
H70    H     0.18793   0.11782   0.59695   0.00000  Uiso   1.00
H71    H     0.12845   0.01837   0.69472   0.00000  Uiso   1.00
H72    H     0.30885   0.15350   0.65168   0.00000  Uiso   1.00
H73    H     0.12000   0.19356   0.46706   0.00000  Uiso   1.00
H74    H     0.07282   0.88927   0.76749   0.00000  Uiso   1.00
H75    H     0.45321   0.17423   0.67671   0.00000  Uiso   1.00
H76    H     0.05499   0.25871   0.28741   0.00000  Uiso   1.00
H77    H     0.26729   0.97273   0.32224   0.00000  Uiso   1.00
H78    H     0.21215   0.86531   0.40493   0.00000  Uiso   1.00
H79    H     0.39256   0.00045   0.36190   0.00000  Uiso   1.00
H80    H     0.20371   0.04051   0.17728   0.00000  Uiso   1.00
H81    H     0.14076   0.76504   0.53229   0.00000  Uiso   1.00
H82    H     0.52116   0.05001   0.44151   0.00000  Uiso   1.00
H83    H     0.12293   0.13448   0.05221   0.00000  Uiso   1.00
O84    O     0.06911   0.75910   0.70926   0.00000  Uiso   1.00
O85    O     0.56817   0.13297   0.59016   0.00000  Uiso   1.00
O86    O     0.04570   0.24380   0.07940   0.00000  Uiso   1.00
N87    N     0.09636   0.87477   0.70077   0.00000  Uiso   1.00
N88    N     0.45201   0.14119   0.61591   0.00000  Uiso   1.00
N89    N     0.07972   0.22018   0.25195   0.00000  Uiso   1.00
N90    N     0.13292   0.80793   0.57421   0.00000  Uiso   1.00
N91    N     0.48857   0.07434   0.48935   0.00000  Uiso   1.00
N92    N     0.11627   0.15334   0.12539   0.00000  Uiso   1.00
C93    C     0.70611   0.41542   0.46599   0.00000  Uiso   1.00
C94    C     0.68479   0.48957   0.45097   0.00000  Uiso   1.00
C95    C     0.64651   0.51469   0.36783   0.00000  Uiso   1.00
C96    C     0.63238   0.58410   0.36839   0.00000  Uiso   1.00
C97    C     0.59575   0.69276   0.33274   0.00000  Uiso   1.00
C98    C     0.78281   0.41616   0.47434   0.00000  Uiso   1.00
C99    C     0.82694   0.37954   0.41087   0.00000  Uiso   1.00
C100   C     0.89533   0.38714   0.43112   0.00000  Uiso   1.00
C101   C     0.01088   0.38178   0.43181   0.00000  Uiso   1.00
C102   C     0.68020   0.39439   0.57465   0.00000  Uiso   1.00
C103   C     0.63806   0.33946   0.59552   0.00000  Uiso   1.00
C104   C     0.62008   0.32874   0.70022   0.00000  Uiso   1.00
C105   C     0.57631   0.28958   0.85665   0.00000  Uiso   1.00
C106   C     0.74910   0.49403   0.61482   0.00000  Uiso   1.00
C107   C     0.70814   0.53227   0.53181   0.00000  Uiso   1.00
C108   C     0.69407   0.60166   0.53250   0.00000  Uiso   1.00
C109   C     0.65578   0.62688   0.44938   0.00000  Uiso   1.00
C110   C     0.80617   0.45885   0.55518   0.00000  Uiso   1.00
C111   C     0.87451   0.46651   0.57553   0.00000  Uiso   1.00
C112   C     0.91873   0.42991   0.51210   0.00000  Uiso   1.00
C113   C     0.70355   0.43709   0.65549   0.00000  Uiso   1.00
C114   C     0.68563   0.42644   0.76018   0.00000  Uiso   1.00
C115   C     0.64348   0.37151   0.78121   0.00000  Uiso   1.00
H116   H     0.68793   0.38218   0.40305   0.00000  Uiso   1.00
H117   H     0.62845   0.48163   0.30528   0.00000  Uiso   1.00
H118   H     0.80885   0.34650   0.34832   0.00000  Uiso   1.00
H119   H     0.62000   0.30644   0.53294   0.00000  Uiso   1.00
H120   H     0.57282   0.61073   0.23251   0.00000  Uiso   1.00
H121   H     0.95321   0.32577   0.32329   0.00000  Uiso   1.00
H122   H     0.55499   0.24129   0.71259   0.00000  Uiso   1.00
H123   H     0.76729   0.52727   0.67776   0.00000  Uiso   1.00
H124   H     0.71215   0.63469   0.59507   0.00000  Uiso   1.00
H125   H     0.89256   0.49955   0.63810   0.00000  Uiso   1.00
H126   H     0.70371   0.45949   0.82272   0.00000  Uiso   1.00
H127   H     0.64076   0.73496   0.46771   0.00000  Uiso   1.00
H128   H     0.02116   0.44999   0.55849   0.00000  Uiso   1.00
H129   H     0.62293   0.36552   0.94779   0.00000  Uiso   1.00
O130   O     0.56911   0.74090   0.29074   0.00000  Uiso   1.00
O131   O     0.06817   0.36703   0.40984   0.00000  Uiso   1.00
O132   O     0.54570   0.25620   0.92060   0.00000  Uiso   1.00
N133   N     0.59636   0.62523   0.29923   0.00000  Uiso   1.00
N134   N     0.95201   0.35881   0.38409   0.00000  Uiso   1.00
N135   N     0.57972   0.27982   0.74805   0.00000  Uiso   1.00
N136   N     0.63292   0.69207   0.42579   0.00000  Uiso   1.00
N137   N     0.98857   0.42566   0.51065   0.00000  Uiso   1.00
N138   N     0.61627   0.34666   0.87461   0.00000  Uiso   1.00
C139   C     0.79389   0.58458   0.96599   0.00000  Uiso   1.00
C140   C     0.81521   0.51043   0.95097   0.00000  Uiso   1.00
C141   C     0.85349   0.48531   0.86783   0.00000  Uiso   1.00
C142   C     0.86762   0.41590   0.86839   0.00000  Uiso   1.00
C143   C     0.90425   0.30724   0.83274   0.00000  Uiso   1.00
C144   C     0.71719   0.58384   0.97434   0.00000  Uiso   1.00
C145   C     0.67306   0.62046   0.91087   0.00000  Uiso   1.00
C146   C     0.60467   0.61286   0.93112   0.00000  Uiso   1.00
C147   C     0.48912   0.61822   0.93181   0.00000  Uiso   1.00
C148   C     0.81980   0.60561   0.07465   0.00000  Uiso   1.00
C149   C     0.86194   0.66054   0.09552   0.00000  Uiso   1.00
C150   C     0.87992   0.67126   0.20022   0.00000  Uiso   1.00
C151   C     0.92369   0.71042   0.35665   0.00000  Uiso   1.00
C152   C     0.75090   0.50597   0.11482   0.00000  Uiso   1.00
C153   C     0.79186   0.46773   0.03181   0.00000  Uiso   1.00
C154   C     0.80593   0.39834   0.03250   0.00000  Uiso   1.00
C155   C     0.84422   0.37312   0.94938   0.00000  Uiso   1.00
C156   C     0.69383   0.54115   0.05518   0.00000  Uiso   1.00
C157   C     0.62549   0.53349   0.07553   0.00000  Uiso   1.00
C158   C     0.58127   0.57009   0.01210   0.00000  Uiso   1.00
C159   C     0.79645   0.56291   0.15549   0.00000  Uiso   1.00
C160   C     0.81437   0.57356   0.26018   0.00000  Uiso   1.00
C161   C     0.85652   0.62849   0.28121   0.00000  Uiso   1.00
H162   H     0.81207   0.61782   0.90305   0.00000  Uiso   1.00
H163   H     0.87155   0.51837   0.80528   0.00000  Uiso   1.00
H164   H     0.69115   0.65350   0.84832   0.00000  Uiso   1.00
H165   H     0.88000   0.69356   0.03294   0.00000  Uiso   1.00
H166   H     0.92718   0.38927   0.73251   0.00000  Uiso   1.00
H167   H     0.54679   0.67423   0.82329   0.00000  Uiso   1.00
H168   H     0.94501   0.75871   0.21259   0.00000  Uiso   1.00
H169   H     0.73271   0.47273   0.17776   0.00000  Uiso   1.00
H170   H     0.78785   0.36531   0.09507   0.00000  Uiso   1.00
H171   H     0.60744   0.50045   0.13810   0.00000  Uiso   1.00
H172   H     0.79629   0.54051   0.32272   0.00000  Uiso   1.00
H173   H     0.85924   0.26504   0.96771   0.00000  Uiso   1.00
H174   H     0.47884   0.55001   0.05849   0.00000  Uiso   1.00
H175   H     0.87707   0.63448   0.44779   0.00000  Uiso   1.00
O176   O     0.93089   0.25910   0.79074   0.00000  Uiso   1.00
O177   O     0.43183   0.63297   0.90984   0.00000  Uiso   1.00
O178   O     0.95430   0.74380   0.42060   0.00000  Uiso   1.00
N179   N     0.90364   0.37477   0.79923   0.00000  Uiso   1.00
N180   N     0.54799   0.64119   0.88409   0.00000  Uiso   1.00
N181   N     0.92028   0.72018   0.24805   0.00000  Uiso   1.00
N182   N     0.86708   0.30793   0.92579   0.00000  Uiso   1.00
N183   N     0.51143   0.57434   0.01065   0.00000  Uiso   1.00
N184   N     0.88373   0.65334   0.37461   0.00000  Uiso   1.00
C185   C     0.70611   0.08458   0.96599   0.00000  Uiso   1.00
C186   C     0.68479   0.01043   0.95097   0.00000  Uiso   1.00
C187   C     0.64651   0.98531   0.86783   0.00000  Uiso   1.00
C188   C     0.63238   0.91590   0.86839   0.00000  Uiso   1.00
C189   C     0.59575   0.80724   0.83274   0.00000  Uiso   1.00
C190   C     0.78281   0.08384   0.97434   0.00000  Uiso   1.00
C191   C     0.82694   0.12046   0.91087   0.00000  Uiso   1.00
C192   C     0.89533   0.11286   0.93112   0.00000  Uiso   1.00
C193   C     0.01088   0.11822   0.93181   0.00000  Uiso   1.00
C194   C     0.68020   0.10561   0.07465   0.00000  Uiso   1.00
C195   C     0.63806   0.16054   0.09552   0.00000  Uiso   1.00
C196   C     0.62008   0.17126   0.20022   0.00000  Uiso   1.00
C197   C     0.57631   0.21042   0.35665   0.00000  Uiso   1.00
C198   C     0.74910   0.00597   0.11482   0.00000  Uiso   1.00
C199   C     0.70814   0.96773   0.03181   0.00000  Uiso   1.00
C200   C     0.69407   0.89834   0.03250   0.00000  Uiso   1.00
C201   C     0.65578   0.87312   0.94938   0.00000  Uiso   1.00
C202   C     0.80617   0.04115   0.05518   0.00000  Uiso   1.00
C203   C     0.87451   0.03349   0.07553   0.00000  Uiso   1.00
C204   C     0.91873   0.07009   0.01210   0.00000  Uiso   1.00
C205   C     0.70355   0.06291   0.15549   0.00000  Uiso   1.00
C206   C     0.68563   0.07356   0.26018   0.00000  Uiso   1.00
C207   C     0.64348   0.12849   0.28121   0.00000  Uiso   1.00
H208   H     0.68793   0.11782   0.90305   0.00000  Uiso   1.00
H209   H     0.62845   0.01837   0.80528   0.00000  Uiso   1.00
H210   H     0.80885   0.15350   0.84832   0.00000  Uiso   1.00
H211   H     0.62000   0.19356   0.03294   0.00000  Uiso   1.00
H212   H     0.57282   0.88927   0.73251   0.00000  Uiso   1.00
H213   H     0.95321   0.17423   0.82329   0.00000  Uiso   1.00
H214   H     0.55499   0.25871   0.21259   0.00000  Uiso   1.00
H215   H     0.76729   0.97273   0.17776   0.00000  Uiso   1.00
H216   H     0.71215   0.86531   0.09507   0.00000  Uiso   1.00
H217   H     0.89256   0.00045   0.13810   0.00000  Uiso   1.00
H218   H     0.70371   0.04051   0.32272   0.00000  Uiso   1.00
H219   H     0.64076   0.76504   0.96771   0.00000  Uiso   1.00
H220   H     0.02116   0.05001   0.05849   0.00000  Uiso   1.00
H221   H     0.62293   0.13448   0.44779   0.00000  Uiso   1.00
O222   O     0.56911   0.75910   0.79074   0.00000  Uiso   1.00
O223   O     0.06817   0.13297   0.90984   0.00000  Uiso   1.00
O224   O     0.54570   0.24380   0.42060   0.00000  Uiso   1.00
N225   N     0.59636   0.87477   0.79923   0.00000  Uiso   1.00
N226   N     0.95201   0.14119   0.88409   0.00000  Uiso   1.00
N227   N     0.57972   0.22018   0.24805   0.00000  Uiso   1.00
N228   N     0.63292   0.80793   0.92579   0.00000  Uiso   1.00
N229   N     0.98857   0.07434   0.01065   0.00000  Uiso   1.00
N230   N     0.61627   0.15334   0.37461   0.00000  Uiso   1.00
C231   C     0.79389   0.91542   0.46599   0.00000  Uiso   1.00
C232   C     0.81521   0.98957   0.45097   0.00000  Uiso   1.00
C233   C     0.85349   0.01469   0.36783   0.00000  Uiso   1.00
C234   C     0.86762   0.08410   0.36839   0.00000  Uiso   1.00
C235   C     0.90425   0.19276   0.33274   0.00000  Uiso   1.00
C236   C     0.71719   0.91616   0.47434   0.00000  Uiso   1.00
C237   C     0.67306   0.87954   0.41087   0.00000  Uiso   1.00
C238   C     0.60467   0.88714   0.43112   0.00000  Uiso   1.00
C239   C     0.48912   0.88178   0.43181   0.00000  Uiso   1.00
C240   C     0.81980   0.89439   0.57465   0.00000  Uiso   1.00
C241   C     0.86194   0.83946   0.59552   0.00000  Uiso   1.00
C242   C     0.87992   0.82874   0.70022   0.00000  Uiso   1.00
C243   C     0.92369   0.78958   0.85665   0.00000  Uiso   1.00
C244   C     0.75090   0.99403   0.61482   0.00000  Uiso   1.00
C245   C     0.79186   0.03227   0.53181   0.00000  Uiso   1.00
C246   C     0.80593   0.10166   0.53250   0.00000  Uiso   1.00
C247   C     0.84422   0.12688   0.44938   0.00000  Uiso   1.00
C248   C     0.69383   0.95885   0.55518   0.00000  Uiso   1.00
C249   C     0.62549   0.96651   0.57553   0.00000  Uiso   1.00
C250   C     0.58127   0.92991   0.51210   0.00000  Uiso   1.00
C251   C     0.79645   0.93709   0.65549   0.00000  Uiso   1.00
C252   C     0.81437   0.92644   0.76018   0.00000  Uiso   1.00
C253   C     0.85652   0.87151   0.78121   0.00000  Uiso   1.00
H254   H     0.81207   0.88218   0.40305   0.00000  Uiso   1.00
H255   H     0.87155   0.98163   0.30528   0.00000  Uiso   1.00
H256   H     0.69115   0.84650   0.34832   0.00000  Uiso   1.00
H257   H     0.88000   0.80644   0.53294   0.00000  Uiso   1.00
H258   H     0.92718   0.11073   0.23251   0.00000  Uiso   1.00
H259   H     0.54679   0.82577   0.32329   0.00000  Uiso   1.00
H260   H     0.94501   0.74129   0.71259   0.00000  Uiso   1.00
H261   H     0.73271   0.02727   0.67776   0.00000  Uiso   1.00
H262   H     0.78785   0.13469   0.59507   0.00000  Uiso   1.00
H263   H     0.60744   0.99955   0.63810   0.00000  Uiso   1.00
H264   H     0.79629   0.95949   0.82272   0.00000  Uiso   1.00
H265   H     0.85924   0.23496   0.46771   0.00000  Uiso   1.00
H266   H     0.47884   0.94999   0.55849   0.00000  Uiso   1.00
H267   H     0.87707   0.86552   0.94779   0.00000  Uiso   1.00
O268   O     0.93089   0.24090   0.29074   0.00000  Uiso   1.00
O269   O     0.43183   0.86703   0.40984   0.00000  Uiso   1.00
O270   O     0.95430   0.75620   0.92060   0.00000  Uiso   1.00
N271   N     0.90364   0.12523   0.29923   0.00000  Uiso   1.00
N272   N     0.54799   0.85881   0.38409   0.00000  Uiso   1.00
N273   N     0.92028   0.77982   0.74805   0.00000  Uiso   1.00
N274   N     0.86708   0.19207   0.42579   0.00000  Uiso   1.00
N275   N     0.51143   0.92566   0.51065   0.00000  Uiso   1.00
N276   N     0.88373   0.84666   0.87461   0.00000  Uiso   1.00
C277   C     0.29389   0.58458   0.53401   0.00000  Uiso   1.00
C278   C     0.31521   0.51043   0.54903   0.00000  Uiso   1.00
C279   C     0.35349   0.48531   0.63217   0.00000  Uiso   1.00
C280   C     0.36762   0.41590   0.63161   0.00000  Uiso   1.00
C281   C     0.40425   0.30724   0.66726   0.00000  Uiso   1.00
C282   C     0.21719   0.58384   0.52566   0.00000  Uiso   1.00
C283   C     0.17306   0.62046   0.58913   0.00000  Uiso   1.00
C284   C     0.10467   0.61286   0.56888   0.00000  Uiso   1.00
C285   C     0.98912   0.61822   0.56819   0.00000  Uiso   1.00
C286   C     0.31980   0.60561   0.42535   0.00000  Uiso   1.00
C287   C     0.36194   0.66054   0.40448   0.00000  Uiso   1.00
C288   C     0.37992   0.67126   0.29978   0.00000  Uiso   1.00
C289   C     0.42369   0.71042   0.14335   0.00000  Uiso   1.00
C290   C     0.25090   0.50597   0.38518   0.00000  Uiso   1.00
C291   C     0.29186   0.46773   0.46819   0.00000  Uiso   1.00
C292   C     0.30593   0.39834   0.46750   0.00000  Uiso   1.00
C293   C     0.34422   0.37312   0.55062   0.00000  Uiso   1.00
C294   C     0.19383   0.54115   0.44482   0.00000  Uiso   1.00
C295   C     0.12549   0.53349   0.42447   0.00000  Uiso   1.00
C296   C     0.08127   0.57009   0.48790   0.00000  Uiso   1.00
C297   C     0.29645   0.56291   0.34451   0.00000  Uiso   1.00
C298   C     0.31437   0.57356   0.23982   0.00000  Uiso   1.00
C299   C     0.35652   0.62849   0.21879   0.00000  Uiso   1.00
H300   H     0.31207   0.61782   0.59695   0.00000  Uiso   1.00
H301   H     0.37155   0.51837   0.69472   0.00000  Uiso   1.00
H302   H     0.19115   0.65350   0.65168   0.00000  Uiso   1.00
H303   H     0.38000   0.69356   0.46706   0.00000  Uiso   1.00
H304   H     0.42718   0.38927   0.76749   0.00000  Uiso   1.00
H305   H     0.04679   0.67423   0.67671   0.00000  Uiso   1.00
H306   H     0.44501   0.75871   0.28741   0.00000  Uiso   1.00
H307   H     0.23271   0.47273   0.32224   0.00000  Uiso   1.00
H308   H     0.28785   0.36531   0.40493   0.00000  Uiso   1.00
H309   H     0.10744   0.50045   0.36190   0.00000  Uiso   1.00
H310   H     0.29629   0.54051   0.17728   0.00000  Uiso   1.00
H311   H     0.35924   0.26504   0.53229   0.00000  Uiso   1.00
H312   H     0.97884   0.55001   0.44151   0.00000  Uiso   1.00
H313   H     0.37707   0.63448   0.05221   0.00000  Uiso   1.00
O314   O     0.43089   0.25910   0.70926   0.00000  Uiso   1.00
O315   O     0.93183   0.63297   0.59016   0.00000  Uiso   1.00
O316   O     0.45430   0.74380   0.07940   0.00000  Uiso   1.00
N317   N     0.40364   0.37477   0.70077   0.00000  Uiso   1.00
N318   N     0.04799   0.64119   0.61591   0.00000  Uiso   1.00
N319   N     0.42028   0.72018   0.25195   0.00000  Uiso   1.00
N320   N     0.36708   0.30793   0.57421   0.00000  Uiso   1.00
N321   N     0.01143   0.57434   0.48935   0.00000  Uiso   1.00
N322   N     0.38373   0.65334   0.12539   0.00000  Uiso   1.00
C323   C     0.20611   0.41542   0.03401   0.00000  Uiso   1.00
C324   C     0.18479   0.48957   0.04903   0.00000  Uiso   1.00
C325   C     0.14651   0.51469   0.13217   0.00000  Uiso   1.00
C326   C     0.13238   0.58410   0.13161   0.00000  Uiso   1.00
C327   C     0.09575   0.69276   0.16726   0.00000  Uiso   1.00
C328   C     0.28281   0.41616   0.02566   0.00000  Uiso   1.00
C329   C     0.32694   0.37954   0.08913   0.00000  Uiso   1.00
C330   C     0.39533   0.38714   0.06888   0.00000  Uiso   1.00
C331   C     0.51088   0.38178   0.06819   0.00000  Uiso   1.00
C332   C     0.18020   0.39439   0.92535   0.00000  Uiso   1.00
C333   C     0.13806   0.33946   0.90448   0.00000  Uiso   1.00
C334   C     0.12008   0.32874   0.79978   0.00000  Uiso   1.00
C335   C     0.07631   0.28958   0.64335   0.00000  Uiso   1.00
C336   C     0.24910   0.49403   0.88518   0.00000  Uiso   1.00
C337   C     0.20814   0.53227   0.96819   0.00000  Uiso   1.00
C338   C     0.19407   0.60166   0.96750   0.00000  Uiso   1.00
C339   C     0.15578   0.62688   0.05062   0.00000  Uiso   1.00
C340   C     0.30617   0.45885   0.94482   0.00000  Uiso   1.00
C341   C     0.37451   0.46651   0.92447   0.00000  Uiso   1.00
C342   C     0.41873   0.42991   0.98790   0.00000  Uiso   1.00
C343   C     0.20355   0.43709   0.84451   0.00000  Uiso   1.00
C344   C     0.18563   0.42644   0.73982   0.00000  Uiso   1.00
C345   C     0.14348   0.37151   0.71879   0.00000  Uiso   1.00
H346   H     0.18793   0.38218   0.09695   0.00000  Uiso   1.00
H347   H     0.12845   0.48163   0.19472   0.00000  Uiso   1.00
H348   H     0.30885   0.34650   0.15168   0.00000  Uiso   1.00
H349   H     0.12000   0.30644   0.96706   0.00000  Uiso   1.00
H350   H     0.07282   0.61073   0.26749   0.00000  Uiso   1.00
H351   H     0.45321   0.32577   0.17671   0.00000  Uiso   1.00
H352   H     0.05499   0.24129   0.78741   0.00000  Uiso   1.00
H353   H     0.26729   0.52727   0.82224   0.00000  Uiso   1.00
H354   H     0.21215   0.63469   0.90493   0.00000  Uiso   1.00
H355   H     0.39256   0.49955   0.86190   0.00000  Uiso   1.00
H356   H     0.20371   0.45949   0.67728   0.00000  Uiso   1.00
H357   H     0.14076   0.73496   0.03229   0.00000  Uiso   1.00
H358   H     0.52116   0.44999   0.94151   0.00000  Uiso   1.00
H359   H     0.12293   0.36552   0.55221   0.00000  Uiso   1.00
O360   O     0.06911   0.74090   0.20926   0.00000  Uiso   1.00
O361   O     0.56817   0.36703   0.09016   0.00000  Uiso   1.00
O362   O     0.04570   0.25620   0.57940   0.00000  Uiso   1.00
N363   N     0.09636   0.62523   0.20077   0.00000  Uiso   1.00
N364   N     0.45201   0.35881   0.11591   0.00000  Uiso   1.00
N365   N     0.07972   0.27982   0.75195   0.00000  Uiso   1.00
N366   N     0.13292   0.69207   0.07421   0.00000  Uiso   1.00
N367   N     0.48857   0.42566   0.98935   0.00000  Uiso   1.00
N368   N     0.11627   0.34666   0.62539   0.00000  Uiso   1.00
