data_job_06774
_audit_creation_date              2018-12-19
_audit_creation_method            'Materials Studio'
_symmetry_space_group_name_H-M    'P1'
_symmetry_Int_Tables_number       1
_symmetry_cell_setting            triclinic
loop_
_symmetry_equiv_pos_as_xyz
  x,y,z
_cell_length_a                    17.2446
_cell_length_b                    24.8404
_cell_length_c                    25.5786
_cell_angle_alpha                 113.5450
_cell_angle_beta                  74.4320
_cell_angle_gamma                 81.8740
loop_
_atom_site_label
_atom_site_type_symbol
_atom_site_fract_x
_atom_site_fract_y
_atom_site_fract_z
_atom_site_U_iso_or_equiv
_atom_site_adp_type
_atom_site_occupancy
C1     C     0.40033   0.35141   0.95882   0.00000  Uiso   1.00
C2     C     0.41302   0.29332   0.90156   0.00000  Uiso   1.00
C3     C     0.35027   0.27463   0.88069   0.00000  Uiso   1.00
C4     C     0.37472   0.22007   0.82738   0.00000  Uiso   1.00
C5     C     0.38162   0.13511   0.74324   0.00000  Uiso   1.00
C6     C     0.43772   0.33070   0.99766   0.00000  Uiso   1.00
C7     C     0.39572   0.34344   0.05759   0.00000  Uiso   1.00
C8     C     0.44097   0.32035   0.08517   0.00000  Uiso   1.00
C9     C     0.48622   0.29346   0.15023   0.00000  Uiso   1.00
C10    C     0.45648   0.38658   0.93780   0.00000  Uiso   1.00
C11    C     0.43027   0.44632   0.94742   0.00000  Uiso   1.00
C12    C     0.49131   0.47029   0.92461   0.00000  Uiso   1.00
C13    C     0.56570   0.53017   0.89674   0.00000  Uiso   1.00
C14    C     0.55535   0.28775   0.90125   0.00000  Uiso   1.00
C15    C     0.49723   0.25874   0.87029   0.00000  Uiso   1.00
C16    C     0.52179   0.20419   0.81699   0.00000  Uiso   1.00
C17    C     0.45908   0.18543   0.79604   0.00000  Uiso   1.00
C18    C     0.52192   0.29612   0.96639   0.00000  Uiso   1.00
C19    C     0.56724   0.27301   0.99388   0.00000  Uiso   1.00
C20    C     0.52532   0.28571   0.05384   0.00000  Uiso   1.00
C21    C     0.54068   0.35201   0.90652   0.00000  Uiso   1.00
C22    C     0.60178   0.37589   0.88371   0.00000  Uiso   1.00
C23    C     0.57567   0.43565   0.89328   0.00000  Uiso   1.00
H24    H     0.33477   0.37833   0.98317   0.00000  Uiso   1.00
H25    H     0.28511   0.30140   0.90491   0.00000  Uiso   1.00
H26    H     0.33056   0.37021   0.08178   0.00000  Uiso   1.00
H27    H     0.36510   0.47307   0.97162   0.00000  Uiso   1.00
H28    H     0.26718   0.20085   0.80436   0.00000  Uiso   1.00
H29    H     0.36302   0.34594   0.17730   0.00000  Uiso   1.00
H30    H     0.43585   0.56285   0.94501   0.00000  Uiso   1.00
H31    H     0.62091   0.26083   0.87690   0.00000  Uiso   1.00
H32    H     0.58695   0.17745   0.79280   0.00000  Uiso   1.00
H33    H     0.63240   0.24625   0.96967   0.00000  Uiso   1.00
H34    H     0.66694   0.34911   0.85951   0.00000  Uiso   1.00
H35    H     0.51217   0.10024   0.71337   0.00000  Uiso   1.00
H36    H     0.60801   0.24534   0.08631   0.00000  Uiso   1.00
H37    H     0.68084   0.46225   0.85402   0.00000  Uiso   1.00
O38    O     0.36217   0.09780   0.70547   0.00000  Uiso   1.00
O39    O     0.48791   0.28818   0.19476   0.00000  Uiso   1.00
O40    O     0.58346   0.57275   0.89000   0.00000  Uiso   1.00
N41    N     0.32950   0.18862   0.79448   0.00000  Uiso   1.00
N42    N     0.41910   0.32427   0.14316   0.00000  Uiso   1.00
N43    N     0.48720   0.52706   0.92600   0.00000  Uiso   1.00
N44    N     0.46133   0.13448   0.74552   0.00000  Uiso   1.00
N45    N     0.55093   0.27013   0.09419   0.00000  Uiso   1.00
N46    N     0.61902   0.47293   0.87704   0.00000  Uiso   1.00
C47    C     0.28737   0.12078   0.42148   0.00000  Uiso   1.00
C48    C     0.27883   0.18866   0.44157   0.00000  Uiso   1.00
C49    C     0.21791   0.22892   0.43836   0.00000  Uiso   1.00
C50    C     0.22081   0.28921   0.45903   0.00000  Uiso   1.00
C51    C     0.19820   0.39167   0.48669   0.00000  Uiso   1.00
C52    C     0.37607   0.08687   0.37486   0.00000  Uiso   1.00
C53    C     0.39689   0.04154   0.31557   0.00000  Uiso   1.00
C54    C     0.48165   0.01613   0.28009   0.00000  Uiso   1.00
C55    C     0.61000   0.96052   0.20419   0.00000  Uiso   1.00
C56    C     0.28498   0.11113   0.47708   0.00000  Uiso   1.00
C57    C     0.22924   0.08620   0.50372   0.00000  Uiso   1.00
C58    C     0.23732   0.08121   0.55429   0.00000  Uiso   1.00
C59    C     0.22425   0.06328   0.63711   0.00000  Uiso   1.00
C60    C     0.40085   0.15625   0.46391   0.00000  Uiso   1.00
C61    C     0.34048   0.20792   0.46462   0.00000  Uiso   1.00
C62    C     0.34346   0.26817   0.48530   0.00000  Uiso   1.00
C63    C     0.28255   0.30851   0.48212   0.00000  Uiso   1.00
C64    C     0.43771   0.10613   0.39791   0.00000  Uiso   1.00
C65    C     0.52245   0.08078   0.36251   0.00000  Uiso   1.00
C66    C     0.54340   0.03543   0.30317   0.00000  Uiso   1.00
C67    C     0.34662   0.13040   0.50013   0.00000  Uiso   1.00
C68    C     0.35479   0.12545   0.55066   0.00000  Uiso   1.00
C69    C     0.29907   0.10051   0.57738   0.00000  Uiso   1.00
H70    H     0.23938   0.10578   0.40354   0.00000  Uiso   1.00
H71    H     0.17022   0.21399   0.42052   0.00000  Uiso   1.00
H72    H     0.34918   0.02663   0.29775   0.00000  Uiso   1.00
H73    H     0.18155   0.07129   0.48587   0.00000  Uiso   1.00
H74    H     0.12074   0.34246   0.44948   0.00000  Uiso   1.00
H75    H     0.49809   0.94739   0.19062   0.00000  Uiso   1.00
H76    H     0.14460   0.04155   0.58732   0.00000  Uiso   1.00
H77    H     0.44885   0.17125   0.48185   0.00000  Uiso   1.00
H78    H     0.39117   0.28306   0.50313   0.00000  Uiso   1.00
H79    H     0.57013   0.09570   0.38036   0.00000  Uiso   1.00
H80    H     0.40250   0.14036   0.56848   0.00000  Uiso   1.00
H81    H     0.30008   0.39852   0.51653   0.00000  Uiso   1.00
H82    H     0.67742   0.00344   0.25767   0.00000  Uiso   1.00
H83    H     0.32394   0.09761   0.65437   0.00000  Uiso   1.00
O84    O     0.16871   0.44285   0.49557   0.00000  Uiso   1.00
O85    O     0.66377   0.92453   0.15596   0.00000  Uiso   1.00
O86    O     0.20001   0.04807   0.67642   0.00000  Uiso   1.00
N87    N     0.17085   0.34031   0.46236   0.00000  Uiso   1.00
N88    N     0.52365   0.97095   0.22033   0.00000  Uiso   1.00
N89    N     0.19319   0.05897   0.59120   0.00000  Uiso   1.00
N90    N     0.26735   0.37047   0.49843   0.00000  Uiso   1.00
N91    N     0.62015   0.00111   0.25641   0.00000  Uiso   1.00
N92    N     0.28968   0.08914   0.62728   0.00000  Uiso   1.00
C93    C     0.82929   0.63141   0.79116   0.00000  Uiso   1.00
C94    C     0.87783   0.60664   0.82241   0.00000  Uiso   1.00
C95    C     0.84439   0.58831   0.86614   0.00000  Uiso   1.00
C96    C     0.89918   0.56700   0.88920   0.00000  Uiso   1.00
C97    C     0.96159   0.52900   0.94080   0.00000  Uiso   1.00
C98    C     0.84348   0.69382   0.80307   0.00000  Uiso   1.00
C99    C     0.78116   0.74877   0.83053   0.00000  Uiso   1.00
C100   C     0.80702   0.80084   0.83729   0.00000  Uiso   1.00
C101   C     0.81610   0.89818   0.85882   0.00000  Uiso   1.00
C102   C     0.87398   0.59019   0.72276   0.00000  Uiso   1.00
C103   C     0.83730   0.55804   0.68267   0.00000  Uiso   1.00
C104   C     0.88885   0.52287   0.62181   0.00000  Uiso   1.00
C105   C     0.94529   0.45932   0.51864   0.00000  Uiso   1.00
C106   C     0.98605   0.62617   0.75434   0.00000  Uiso   1.00
C107   C     0.96298   0.60380   0.80242   0.00000  Uiso   1.00
C108   C     0.01783   0.58251   0.82541   0.00000  Uiso   1.00
C109   C     0.98448   0.56414   0.86916   0.00000  Uiso   1.00
C110   C     0.92862   0.69097   0.78308   0.00000  Uiso   1.00
C111   C     0.95459   0.74297   0.78980   0.00000  Uiso   1.00
C112   C     0.89232   0.79799   0.81726   0.00000  Uiso   1.00
C113   C     0.95913   0.58734   0.70276   0.00000  Uiso   1.00
C114   C     0.01074   0.55223   0.64195   0.00000  Uiso   1.00
C115   C     0.97415   0.52002   0.60178   0.00000  Uiso   1.00
H116   H     0.76300   0.63363   0.80672   0.00000  Uiso   1.00
H117   H     0.77849   0.59052   0.88161   0.00000  Uiso   1.00
H118   H     0.71527   0.75096   0.84599   0.00000  Uiso   1.00
H119   H     0.77141   0.56025   0.69816   0.00000  Uiso   1.00
H120   H     0.83322   0.54149   0.95583   0.00000  Uiso   1.00
H121   H     0.69990   0.87978   0.88071   0.00000  Uiso   1.00
H122   H     0.81828   0.47763   0.56899   0.00000  Uiso   1.00
H123   H     0.05234   0.62395   0.73877   0.00000  Uiso   1.00
H124   H     0.08372   0.58031   0.80993   0.00000  Uiso   1.00
H125   H     0.02049   0.74075   0.77432   0.00000  Uiso   1.00
H126   H     0.07663   0.55004   0.62649   0.00000  Uiso   1.00
H127   H     0.08094   0.53320   0.89766   0.00000  Uiso   1.00
H128   H     0.94762   0.87149   0.82254   0.00000  Uiso   1.00
H129   H     0.06601   0.46934   0.51082   0.00000  Uiso   1.00
O130   O     0.97249   0.50883   0.97479   0.00000  Uiso   1.00
O131   O     0.79758   0.95265   0.87623   0.00000  Uiso   1.00
O132   O     0.95290   0.42504   0.46726   0.00000  Uiso   1.00
N133   N     0.88722   0.54552   0.93236   0.00000  Uiso   1.00
N134   N     0.76257   0.86180   0.86214   0.00000  Uiso   1.00
N135   N     0.87325   0.48584   0.57071   0.00000  Uiso   1.00
N136   N     0.02052   0.54106   0.90106   0.00000  Uiso   1.00
N137   N     0.89587   0.85734   0.83084   0.00000  Uiso   1.00
N138   N     0.00655   0.48138   0.53940   0.00000  Uiso   1.00
C139   C     0.84115   0.42177   0.12943   0.00000  Uiso   1.00
C140   C     0.78549   0.42779   0.19009   0.00000  Uiso   1.00
C141   C     0.69895   0.43891   0.20985   0.00000  Uiso   1.00
C142   C     0.65955   0.44283   0.26677   0.00000  Uiso   1.00
C143   C     0.56620   0.45321   0.35549   0.00000  Uiso   1.00
C144   C     0.90605   0.35949   0.09791   0.00000  Uiso   1.00
C145   C     0.92088   0.31320   0.04017   0.00000  Uiso   1.00
C146   C     0.98297   0.25963   0.01949   0.00000  Uiso   1.00
C147   C     0.07683   0.16399   0.96509   0.00000  Uiso   1.00
C148   C     0.88941   0.46923   0.14547   0.00000  Uiso   1.00
C149   C     0.89027   0.51520   0.12771   0.00000  Uiso   1.00
C150   C     0.93837   0.55401   0.14706   0.00000  Uiso   1.00
C151   C     0.00639   0.62876   0.16651   0.00000  Uiso   1.00
C152   C     0.92506   0.40895   0.19536   0.00000  Uiso   1.00
C153   C     0.83107   0.42082   0.22590   0.00000  Uiso   1.00
C154   C     0.79179   0.42473   0.28280   0.00000  Uiso   1.00
C155   C     0.70520   0.43586   0.30265   0.00000  Uiso   1.00
C156   C     0.95162   0.35252   0.13372   0.00000  Uiso   1.00
C157   C     0.01371   0.29901   0.11312   0.00000  Uiso   1.00
C158   C     0.02863   0.25265   0.05537   0.00000  Uiso   1.00
C159   C     0.93499   0.46227   0.18128   0.00000  Uiso   1.00
C160   C     0.98310   0.50101   0.20066   0.00000  Uiso   1.00
C161   C     0.98403   0.54703   0.18294   0.00000  Uiso   1.00
H162   H     0.80567   0.42718   0.10155   0.00000  Uiso   1.00
H163   H     0.66371   0.44429   0.18213   0.00000  Uiso   1.00
H164   H     0.88560   0.31860   0.01247   0.00000  Uiso   1.00
H165   H     0.85500   0.52057   0.10000   0.00000  Uiso   1.00
H166   H     0.52641   0.46017   0.28724   0.00000  Uiso   1.00
H167   H     0.99432   0.19515   0.92951   0.00000  Uiso   1.00
H168   H     0.92978   0.62104   0.11408   0.00000  Uiso   1.00
H169   H     0.96054   0.40352   0.22324   0.00000  Uiso   1.00
H170   H     0.82707   0.41934   0.31050   0.00000  Uiso   1.00
H171   H     0.04897   0.29364   0.14084   0.00000  Uiso   1.00
H172   H     0.01836   0.49561   0.22837   0.00000  Uiso   1.00
H173   H     0.65901   0.43991   0.39143   0.00000  Uiso   1.00
H174   H     0.12691   0.17489   0.03369   0.00000  Uiso   1.00
H175   H     0.06237   0.60078   0.21827   0.00000  Uiso   1.00
O176   O     0.50212   0.46085   0.39453   0.00000  Uiso   1.00
O177   O     0.11600   0.11316   0.92519   0.00000  Uiso   1.00
O178   O     0.03132   0.67192   0.16735   0.00000  Uiso   1.00
N179   N     0.57594   0.45324   0.29979   0.00000  Uiso   1.00
N180   N     0.01339   0.20546   0.96533   0.00000  Uiso   1.00
N181   N     0.95306   0.60362   0.13788   0.00000  Uiso   1.00
N182   N     0.64728   0.44235   0.35586   0.00000  Uiso   1.00
N183   N     0.08473   0.19456   0.02140   0.00000  Uiso   1.00
N184   N     0.02441   0.59272   0.19395   0.00000  Uiso   1.00
C185   C     0.19275   0.77595   0.72411   0.00000  Uiso   1.00
C186   C     0.18991   0.81722   0.69331   0.00000  Uiso   1.00
C187   C     0.11778   0.85333   0.69664   0.00000  Uiso   1.00
C188   C     0.12846   0.88781   0.66524   0.00000  Uiso   1.00
C189   C     0.11189   0.95216   0.62254   0.00000  Uiso   1.00
C190   C     0.24572   0.79657   0.76349   0.00000  Uiso   1.00
C191   C     0.22050   0.81531   0.82583   0.00000  Uiso   1.00
C192   C     0.27817   0.83240   0.85351   0.00000  Uiso   1.00
C193   C     0.34825   0.86465   0.91977   0.00000  Uiso   1.00
C194   C     0.24354   0.71204   0.67325   0.00000  Uiso   1.00
C195   C     0.21651   0.65970   0.65972   0.00000  Uiso   1.00
C196   C     0.27236   0.60562   0.61142   0.00000  Uiso   1.00
C197   C     0.33907   0.50662   0.53756   0.00000  Uiso   1.00
C198   C     0.34001   0.77299   0.66241   0.00000  Uiso   1.00
C199   C     0.26990   0.81561   0.65980   0.00000  Uiso   1.00
C200   C     0.28070   0.85004   0.62839   0.00000  Uiso   1.00
C201   C     0.20859   0.88620   0.63167   0.00000  Uiso   1.00
C202   C     0.32570   0.79496   0.72999   0.00000  Uiso   1.00
C203   C     0.38342   0.81203   0.75758   0.00000  Uiso   1.00
C204   C     0.35830   0.83079   0.81995   0.00000  Uiso   1.00
C205   C     0.32353   0.71043   0.63973   0.00000  Uiso   1.00
C206   C     0.37944   0.65642   0.59146   0.00000  Uiso   1.00
C207   C     0.35249   0.60401   0.57786   0.00000  Uiso   1.00
H208   H     0.13048   0.77721   0.75020   0.00000  Uiso   1.00
H209   H     0.05589   0.85457   0.72258   0.00000  Uiso   1.00
H210   H     0.15860   0.81655   0.85175   0.00000  Uiso   1.00
H211   H     0.15461   0.66096   0.68566   0.00000  Uiso   1.00
H212   H     0.00846   0.93964   0.67721   0.00000  Uiso   1.00
H213   H     0.22504   0.85945   0.94956   0.00000  Uiso   1.00
H214   H     0.21663   0.53137   0.59933   0.00000  Uiso   1.00
H215   H     0.40229   0.77173   0.63632   0.00000  Uiso   1.00
H216   H     0.34261   0.84879   0.60246   0.00000  Uiso   1.00
H217   H     0.44532   0.81077   0.73163   0.00000  Uiso   1.00
H218   H     0.44133   0.65519   0.56554   0.00000  Uiso   1.00
H219   H     0.24117   0.93495   0.57972   0.00000  Uiso   1.00
H220   H     0.45775   0.85476   0.85207   0.00000  Uiso   1.00
H221   H     0.44934   0.52669   0.50183   0.00000  Uiso   1.00
O222   O     0.08065   0.98810   0.60826   0.00000  Uiso   1.00
O223   O     0.36480   0.88289   0.96557   0.00000  Uiso   1.00
O224   O     0.35376   0.45246   0.50607   0.00000  Uiso   1.00
N225   N     0.07142   0.92795   0.65890   0.00000  Uiso   1.00
N226   N     0.27390   0.85299   0.91354   0.00000  Uiso   1.00
N227   N     0.26605   0.54626   0.58611   0.00000  Uiso   1.00
N228   N     0.19664   0.92543   0.60644   0.00000  Uiso   1.00
N229   N     0.39912   0.85047   0.86108   0.00000  Uiso   1.00
N230   N     0.39127   0.54374   0.53364   0.00000  Uiso   1.00
C231   C     0.99756   0.93098   0.34524   0.00000  Uiso   1.00
C232   C     0.06935   0.87210   0.31235   0.00000  Uiso   1.00
C233   C     0.06951   0.81635   0.26872   0.00000  Uiso   1.00
C234   C     0.14123   0.76796   0.24402   0.00000  Uiso   1.00
C235   C     0.24222   0.67545   0.19014   0.00000  Uiso   1.00
C236   C     0.03460   0.97893   0.33316   0.00000  Uiso   1.00
C237   C     0.00553   0.01301   0.30704   0.00000  Uiso   1.00
C238   C     0.04801   0.05456   0.29987   0.00000  Uiso   1.00
C239   C     0.09500   0.12794   0.27835   0.00000  Uiso   1.00
C240   C     0.97583   0.95095   0.41330   0.00000  Uiso   1.00
C241   C     0.89736   0.96151   0.45457   0.00000  Uiso   1.00
C242   C     0.89035   0.97950   0.51488   0.00000  Uiso   1.00
C243   C     0.84610   0.00943   0.61779   0.00000  Uiso   1.00
C244   C     0.12465   0.94417   0.37897   0.00000  Uiso   1.00
C245   C     0.13838   0.87927   0.33067   0.00000  Uiso   1.00
C246   C     0.21012   0.83095   0.30603   0.00000  Uiso   1.00
C247   C     0.21039   0.77513   0.26237   0.00000  Uiso   1.00
C248   C     0.10363   0.98610   0.35148   0.00000  Uiso   1.00
C249   C     0.14615   0.02761   0.34436   0.00000  Uiso   1.00
C250   C     0.11716   0.06174   0.31822   0.00000  Uiso   1.00
C251   C     0.04487   0.95811   0.43163   0.00000  Uiso   1.00
C252   C     0.03797   0.97610   0.49189   0.00000  Uiso   1.00
C253   C     0.95950   0.98668   0.53323   0.00000  Uiso   1.00
H254   H     0.94382   0.92540   0.33097   0.00000  Uiso   1.00
H255   H     0.01608   0.81083   0.25454   0.00000  Uiso   1.00
H256   H     0.95211   0.00746   0.29287   0.00000  Uiso   1.00
H257   H     0.84395   0.95596   0.44037   0.00000  Uiso   1.00
H258   H     0.12664   0.68696   0.17788   0.00000  Uiso   1.00
H259   H     0.99175   0.10159   0.25870   0.00000  Uiso   1.00
H260   H     0.76367   0.99299   0.56975   0.00000  Uiso   1.00
H261   H     0.17840   0.94975   0.39323   0.00000  Uiso   1.00
H262   H     0.26353   0.83651   0.32022   0.00000  Uiso   1.00
H263   H     0.19956   0.03314   0.35854   0.00000  Uiso   1.00
H264   H     0.09140   0.98164   0.50605   0.00000  Uiso   1.00
H265   H     0.32749   0.70780   0.23118   0.00000  Uiso   1.00
H266   H     0.19259   0.12244   0.31201   0.00000  Uiso   1.00
H267   H     0.96452   0.01384   0.62305   0.00000  Uiso   1.00
O268   O     0.27885   0.62245   0.15536   0.00000  Uiso   1.00
O269   O     0.10185   0.16644   0.26141   0.00000  Uiso   1.00
O270   O     0.80263   0.02395   0.66949   0.00000  Uiso   1.00
N271   N     0.16222   0.70740   0.20045   0.00000  Uiso   1.00
N272   N     0.03611   0.09505   0.27601   0.00000  Uiso   1.00
N273   N     0.82287   0.99354   0.56681   0.00000  Uiso   1.00
N274   N     0.27030   0.71862   0.22913   0.00000  Uiso   1.00
N275   N     0.14418   0.10627   0.30469   0.00000  Uiso   1.00
N276   N     0.93095   0.00475   0.59549   0.00000  Uiso   1.00
C277   C     0.61266   0.77098   0.13176   0.00000  Uiso   1.00
C278   C     0.55583   0.81511   0.19743   0.00000  Uiso   1.00
C279   C     0.58247   0.84403   0.24543   0.00000  Uiso   1.00
C280   C     0.52068   0.88273   0.30207   0.00000  Uiso   1.00
C281   C     0.44543   0.94986   0.40278   0.00000  Uiso   1.00
C282   C     0.58814   0.79762   0.09221   0.00000  Uiso   1.00
C283   C     0.64194   0.81182   0.05173   0.00000  Uiso   1.00
C284   C     0.60734   0.83578   0.01979   0.00000  Uiso   1.00
C285   C     0.58225   0.87570   0.95711   0.00000  Uiso   1.00
C286   C     0.58634   0.71206   0.11608   0.00000  Uiso   1.00
C287   C     0.63864   0.65432   0.09565   0.00000  Uiso   1.00
C288   C     0.60253   0.60625   0.08378   0.00000  Uiso   1.00
C289   C     0.57465   0.51333   0.05815   0.00000  Uiso   1.00
C290   C     0.45555   0.78827   0.14700   0.00000  Uiso   1.00
C291   C     0.47050   0.82451   0.20571   0.00000  Uiso   1.00
C292   C     0.40865   0.86317   0.26229   0.00000  Uiso   1.00
C293   C     0.43519   0.89214   0.31037   0.00000  Uiso   1.00
C294   C     0.50280   0.80701   0.10049   0.00000  Uiso   1.00
C295   C     0.46812   0.83095   0.06859   0.00000  Uiso   1.00
C296   C     0.52185   0.84519   0.02808   0.00000  Uiso   1.00
C297   C     0.50100   0.72145   0.12435   0.00000  Uiso   1.00
C298   C     0.46481   0.67346   0.11251   0.00000  Uiso   1.00
C299   C     0.51704   0.61566   0.09207   0.00000  Uiso   1.00
H300   H     0.67910   0.76366   0.12531   0.00000  Uiso   1.00
H301   H     0.64852   0.83676   0.23901   0.00000  Uiso   1.00
H302   H     0.70798   0.80454   0.04533   0.00000  Uiso   1.00
H303   H     0.70467   0.64707   0.08925   0.00000  Uiso   1.00
H304   H     0.57699   0.92195   0.36870   0.00000  Uiso   1.00
H305   H     0.70237   0.85400   0.96032   0.00000  Uiso   1.00
H306   H     0.69540   0.52195   0.05291   0.00000  Uiso   1.00
H307   H     0.38911   0.79559   0.15344   0.00000  Uiso   1.00
H308   H     0.34261   0.87043   0.26868   0.00000  Uiso   1.00
H309   H     0.40208   0.83822   0.07501   0.00000  Uiso   1.00
H310   H     0.39877   0.68075   0.11892   0.00000  Uiso   1.00
H311   H     0.32870   0.94929   0.39279   0.00000  Uiso   1.00
H312   H     0.45408   0.88133   0.98440   0.00000  Uiso   1.00
H313   H     0.44711   0.54928   0.07700   0.00000  Uiso   1.00
O314   O     0.42749   0.98429   0.45604   0.00000  Uiso   1.00
O315   O     0.59199   0.89513   0.92025   0.00000  Uiso   1.00
O316   O     0.58284   0.45949   0.04174   0.00000  Uiso   1.00
N317   N     0.52493   0.91810   0.35856   0.00000  Uiso   1.00
N318   N     0.64215   0.85458   0.97675   0.00000  Uiso   1.00
N319   N     0.63564   0.54414   0.06330   0.00000  Uiso   1.00
N320   N     0.39133   0.93281   0.37152   0.00000  Uiso   1.00
N321   N     0.50855   0.86929   0.98971   0.00000  Uiso   1.00
N322   N     0.50204   0.55885   0.07627   0.00000  Uiso   1.00
C323   C     0.60923   0.98911   0.71313   0.00000  Uiso   1.00
C324   C     0.63881   0.92010   0.68969   0.00000  Uiso   1.00
C325   C     0.71503   0.88790   0.68509   0.00000  Uiso   1.00
C326   C     0.73030   0.82497   0.66253   0.00000  Uiso   1.00
C327   C     0.78516   0.72233   0.62880   0.00000  Uiso   1.00
C328   C     0.52566   0.01168   0.76563   0.00000  Uiso   1.00
C329   C     0.50676   0.05649   0.82487   0.00000  Uiso   1.00
C330   C     0.42678   0.07065   0.86623   0.00000  Uiso   1.00
C331   C     0.30597   0.11023   0.95038   0.00000  Uiso   1.00
C332   C     0.58890   0.99818   0.66224   0.00000  Uiso   1.00
C333   C     0.62315   0.03165   0.63456   0.00000  Uiso   1.00
C334   C     0.59640   0.03446   0.58889   0.00000  Uiso   1.00
C335   C     0.57378   0.05307   0.51251   0.00000  Uiso   1.00
C336   C     0.50079   0.93459   0.68126   0.00000  Uiso   1.00
C337   C     0.57990   0.89049   0.67238   0.00000  Uiso   1.00
C338   C     0.59506   0.82759   0.64982   0.00000  Uiso   1.00
C339   C     0.67129   0.79531   0.64519   0.00000  Uiso   1.00
C340   C     0.46677   0.98207   0.74832   0.00000  Uiso   1.00
C341   C     0.38679   0.99618   0.78960   0.00000  Uiso   1.00
C342   C     0.36777   0.04099   0.84889   0.00000  Uiso   1.00
C343   C     0.53001   0.96857   0.64492   0.00000  Uiso   1.00
C344   C     0.50318   0.97133   0.59929   0.00000  Uiso   1.00
C345   C     0.53739   0.00480   0.57155   0.00000  Uiso   1.00
H346   H     0.65508   0.01216   0.72662   0.00000  Uiso   1.00
H347   H     0.76059   0.91084   0.69850   0.00000  Uiso   1.00
H348   H     0.55235   0.07940   0.83825   0.00000  Uiso   1.00
H349   H     0.66873   0.05456   0.64797   0.00000  Uiso   1.00
H350   H     0.85158   0.78545   0.65971   0.00000  Uiso   1.00
H351   H     0.41249   0.14089   0.95439   0.00000  Uiso   1.00
H352   H     0.65789   0.08851   0.55314   0.00000  Uiso   1.00
H353   H     0.45493   0.91154   0.66778   0.00000  Uiso   1.00
H354   H     0.54947   0.80469   0.63643   0.00000  Uiso   1.00
H355   H     0.34123   0.97325   0.77618   0.00000  Uiso   1.00
H356   H     0.45761   0.94841   0.58590   0.00000  Uiso   1.00
H357   H     0.68023   0.69929   0.60933   0.00000  Uiso   1.00
H358   H     0.24113   0.05474   0.90401   0.00000  Uiso   1.00
H359   H     0.48654   0.00235   0.50277   0.00000  Uiso   1.00
O360   O     0.83169   0.67390   0.61498   0.00000  Uiso   1.00
O361   O     0.25561   0.14023   0.00158   0.00000  Uiso   1.00
O362   O     0.57758   0.07150   0.47516   0.00000  Uiso   1.00
N363   N     0.79829   0.77983   0.65215   0.00000  Uiso   1.00
N364   N     0.38777   0.11214   0.92765   0.00000  Uiso   1.00
N365   N     0.61718   0.06318   0.55253   0.00000  Uiso   1.00
N366   N     0.70608   0.73347   0.62504   0.00000  Uiso   1.00
N367   N     0.29556   0.06578   0.90054   0.00000  Uiso   1.00
N368   N     0.52498   0.01682   0.52543   0.00000  Uiso   1.00
C369   C     0.29206   0.45276   0.34298   0.00000  Uiso   1.00
C370   C     0.28914   0.46346   0.28876   0.00000  Uiso   1.00
C371   C     0.35345   0.47350   0.25087   0.00000  Uiso   1.00
C372   C     0.33848   0.48230   0.20376   0.00000  Uiso   1.00
C373   C     0.34560   0.49906   0.12088   0.00000  Uiso   1.00
C374   C     0.27283   0.39176   0.33101   0.00000  Uiso   1.00
C375   C     0.32343   0.34153   0.32866   0.00000  Uiso   1.00
C376   C     0.29473   0.28997   0.31713   0.00000  Uiso   1.00
C377   C     0.27651   0.19544   0.29990   0.00000  Uiso   1.00
C378   C     0.21762   0.50152   0.39803   0.00000  Uiso   1.00
C379   C     0.22179   0.54357   0.45203   0.00000  Uiso   1.00
C380   C     0.14659   0.58442   0.49694   0.00000  Uiso   1.00
C381   C     0.04265   0.66032   0.58376   0.00000  Uiso   1.00
C382   C     0.15111   0.45053   0.32671   0.00000  Uiso   1.00
C383   C     0.21258   0.46224   0.27992   0.00000  Uiso   1.00
C384   C     0.19750   0.47103   0.23286   0.00000  Uiso   1.00
C385   C     0.26178   0.48109   0.19490   0.00000  Uiso   1.00
C386   C     0.19628   0.39055   0.32217   0.00000  Uiso   1.00
C387   C     0.16749   0.33906   0.31065   0.00000  Uiso   1.00
C388   C     0.21803   0.28876   0.30827   0.00000  Uiso   1.00
C389   C     0.14106   0.50032   0.38919   0.00000  Uiso   1.00
C390   C     0.06584   0.54111   0.43402   0.00000  Uiso   1.00
C391   C     0.06989   0.58321   0.48808   0.00000  Uiso   1.00
H392   H     0.35166   0.45370   0.34987   0.00000  Uiso   1.00
H393   H     0.41269   0.47443   0.25772   0.00000  Uiso   1.00
H394   H     0.38267   0.34248   0.33551   0.00000  Uiso   1.00
H395   H     0.28104   0.54449   0.45886   0.00000  Uiso   1.00
H396   H     0.44660   0.49685   0.15164   0.00000  Uiso   1.00
H397   H     0.38329   0.21864   0.31568   0.00000  Uiso   1.00
H398   H     0.16899   0.64463   0.57580   0.00000  Uiso   1.00
H399   H     0.09150   0.44959   0.31982   0.00000  Uiso   1.00
H400   H     0.13825   0.47009   0.22603   0.00000  Uiso   1.00
H401   H     0.10823   0.33814   0.30381   0.00000  Uiso   1.00
H402   H     0.00661   0.54016   0.42716   0.00000  Uiso   1.00
H403   H     0.22385   0.49333   0.12592   0.00000  Uiso   1.00
H404   H     0.16054   0.21512   0.28996   0.00000  Uiso   1.00
H405   H     0.94624   0.64111   0.55007   0.00000  Uiso   1.00
O406   O     0.37068   0.50864   0.07761   0.00000  Uiso   1.00
O407   O     0.28762   0.14363   0.29283   0.00000  Uiso   1.00
O408   O     0.00646   0.70252   0.63409   0.00000  Uiso   1.00
N409   N     0.38775   0.49322   0.15847   0.00000  Uiso   1.00
N410   N     0.32857   0.23310   0.31182   0.00000  Uiso   1.00
N411   N     0.12821   0.63136   0.55502   0.00000  Uiso   1.00
N412   N     0.26790   0.49133   0.14463   0.00000  Uiso   1.00
N413   N     0.20871   0.23121   0.29798   0.00000  Uiso   1.00
N414   N     0.00836   0.62946   0.54117   0.00000  Uiso   1.00
C415   C     0.26592   0.72766   0.99314   0.00000  Uiso   1.00
C416   C     0.28987   0.70817   0.92500   0.00000  Uiso   1.00
C417   C     0.36859   0.69967   0.88531   0.00000  Uiso   1.00
C418   C     0.37777   0.68179   0.82465   0.00000  Uiso   1.00
C419   C     0.42516   0.65292   0.72193   0.00000  Uiso   1.00
C420   C     0.19204   0.78519   0.02535   0.00000  Uiso   1.00
C421   C     0.18850   0.84146   0.07005   0.00000  Uiso   1.00
C422   C     0.11531   0.88841   0.09388   0.00000  Uiso   1.00
C423   C     0.01080   0.97912   0.14699   0.00000  Uiso   1.00
C424   C     0.23109   0.67822   0.00359   0.00000  Uiso   1.00
C425   C     0.26037   0.64456   0.03001   0.00000  Uiso   1.00
C426   C     0.22006   0.60146   0.03552   0.00000  Uiso   1.00
C427   C     0.17618   0.52607   0.05484   0.00000  Uiso   1.00
C428   C     0.14224   0.71100   0.95597   0.00000  Uiso   1.00
C429   C     0.22269   0.69912   0.90481   0.00000  Uiso   1.00
C430   C     0.23175   0.68124   0.84420   0.00000  Uiso   1.00
C431   C     0.31047   0.67272   0.80443   0.00000  Uiso   1.00
C432   C     0.12486   0.77615   0.00517   0.00000  Uiso   1.00
C433   C     0.05166   0.82303   0.02894   0.00000  Uiso   1.00
C434   C     0.04801   0.87935   0.07366   0.00000  Uiso   1.00
C435   C     0.16392   0.66917   0.98340   0.00000  Uiso   1.00
C436   C     0.12354   0.62612   0.98888   0.00000  Uiso   1.00
C437   C     0.15275   0.59239   0.01530   0.00000  Uiso   1.00
H438   H     0.31822   0.73471   0.00885   0.00000  Uiso   1.00
H439   H     0.42056   0.70669   0.90095   0.00000  Uiso   1.00
H440   H     0.24049   0.84845   0.08567   0.00000  Uiso   1.00
H441   H     0.31236   0.65157   0.04562   0.00000  Uiso   1.00
H442   H     0.50439   0.67164   0.77243   0.00000  Uiso   1.00
H443   H     0.12470   0.97055   0.16192   0.00000  Uiso   1.00
H444   H     0.27624   0.55540   0.07748   0.00000  Uiso   1.00
H445   H     0.08994   0.70396   0.94026   0.00000  Uiso   1.00
H446   H     0.17975   0.67424   0.82859   0.00000  Uiso   1.00
H447   H     0.99969   0.81601   0.01331   0.00000  Uiso   1.00
H448   H     0.07155   0.61913   0.97326   0.00000  Uiso   1.00
H449   H     0.30894   0.64531   0.71369   0.00000  Uiso   1.00
H450   H     0.92925   0.94422   0.10320   0.00000  Uiso   1.00
H451   H     0.08080   0.52907   0.01875   0.00000  Uiso   1.00
O452   O     0.46986   0.63950   0.67084   0.00000  Uiso   1.00
O453   O     0.97172   0.03165   0.18186   0.00000  Uiso   1.00
O454   O     0.17055   0.48699   0.07106   0.00000  Uiso   1.00
N455   N     0.44607   0.66951   0.77393   0.00000  Uiso   1.00
N456   N     0.09109   0.94897   0.13808   0.00000  Uiso   1.00
N457   N     0.23275   0.56086   0.05914   0.00000  Uiso   1.00
N458   N     0.34090   0.65534   0.74232   0.00000  Uiso   1.00
N459   N     0.98592   0.93481   0.10647   0.00000  Uiso   1.00
N460   N     0.12759   0.54669   0.02754   0.00000  Uiso   1.00
C461   C     0.77803   0.31556   0.39000   0.00000  Uiso   1.00
C462   C     0.75046   0.27733   0.42179   0.00000  Uiso   1.00
C463   C     0.80329   0.23617   0.42990   0.00000  Uiso   1.00
C464   C     0.76584   0.20568   0.46014   0.00000  Uiso   1.00
C465   C     0.73630   0.14473   0.50622   0.00000  Uiso   1.00
C466   C     0.74239   0.30035   0.33898   0.00000  Uiso   1.00
C467   C     0.78843   0.27855   0.27747   0.00000  Uiso   1.00
C468   C     0.74418   0.26744   0.23801   0.00000  Uiso   1.00
C469   C     0.70210   0.24227   0.15555   0.00000  Uiso   1.00
C470   C     0.73127   0.38203   0.43614   0.00000  Uiso   1.00
C471   C     0.76796   0.42891   0.45632   0.00000  Uiso   1.00
C472   C     0.71434   0.48656   0.49865   0.00000  Uiso   1.00
C473   C     0.65500   0.58821   0.56704   0.00000  Uiso   1.00
C474   C     0.61757   0.33459   0.42929   0.00000  Uiso   1.00
C475   C     0.66331   0.28767   0.44312   0.00000  Uiso   1.00
C476   C     0.62577   0.25724   0.47336   0.00000  Uiso   1.00
C477   C     0.67853   0.21604   0.48152   0.00000  Uiso   1.00
C478   C     0.65524   0.31069   0.36032   0.00000  Uiso   1.00
C479   C     0.61091   0.29961   0.32094   0.00000  Uiso   1.00
C480   C     0.65687   0.27780   0.25939   0.00000  Uiso   1.00
C481   C     0.64412   0.39237   0.45748   0.00000  Uiso   1.00
C482   C     0.59043   0.44996   0.49979   0.00000  Uiso   1.00
C483   C     0.62703   0.49692   0.52002   0.00000  Uiso   1.00
H484   H     0.84588   0.30751   0.37338   0.00000  Uiso   1.00
H485   H     0.87073   0.22818   0.41337   0.00000  Uiso   1.00
H486   H     0.85587   0.27056   0.26098   0.00000  Uiso   1.00
H487   H     0.83540   0.42089   0.43979   0.00000  Uiso   1.00
H488   H     0.85986   0.14478   0.46710   0.00000  Uiso   1.00
H489   H     0.82853   0.23415   0.14577   0.00000  Uiso   1.00
H490   H     0.78535   0.55115   0.52284   0.00000  Uiso   1.00
H491   H     0.54972   0.34264   0.44590   0.00000  Uiso   1.00
H492   H     0.55832   0.26525   0.48987   0.00000  Uiso   1.00
H493   H     0.54347   0.30762   0.33747   0.00000  Uiso   1.00
H494   H     0.52299   0.45795   0.51629   0.00000  Uiso   1.00
H495   H     0.60629   0.17486   0.52919   0.00000  Uiso   1.00
H496   H     0.57497   0.26424   0.20785   0.00000  Uiso   1.00
H497   H     0.53179   0.58123   0.58492   0.00000  Uiso   1.00
O498   O     0.74408   0.10826   0.52574   0.00000  Uiso   1.00
O499   O     0.70298   0.22552   0.10417   0.00000  Uiso   1.00
O500   O     0.64634   0.64141   0.59888   0.00000  Uiso   1.00
N501   N     0.79900   0.16249   0.47569   0.00000  Uiso   1.00
N502   N     0.76971   0.24604   0.17526   0.00000  Uiso   1.00
N503   N     0.72935   0.54241   0.52778   0.00000  Uiso   1.00
N504   N     0.66256   0.17868   0.50910   0.00000  Uiso   1.00
N505   N     0.63327   0.26223   0.20867   0.00000  Uiso   1.00
N506   N     0.59291   0.55859   0.56118   0.00000  Uiso   1.00
C507   C     0.99442   0.18233   0.77568   0.00000  Uiso   1.00
C508   C     0.93374   0.24189   0.82889   0.00000  Uiso   1.00
C509   C     0.95578   0.29308   0.86192   0.00000  Uiso   1.00
C510   C     0.89100   0.34302   0.90892   0.00000  Uiso   1.00
C511   C     0.80953   0.43568   0.98952   0.00000  Uiso   1.00
C512   C     0.97857   0.13181   0.79307   0.00000  Uiso   1.00
C513   C     0.03830   0.09044   0.79599   0.00000  Uiso   1.00
C514   C     0.01127   0.04769   0.81283   0.00000  Uiso   1.00
C515   C     0.99941   0.96943   0.83778   0.00000  Uiso   1.00
C516   C     0.96525   0.17168   0.72201   0.00000  Uiso   1.00
C517   C     0.01379   0.16381   0.66517   0.00000  Uiso   1.00
C518   C     0.97554   0.15462   0.62218   0.00000  Uiso   1.00
C519   C     0.94300   0.13825   0.53680   0.00000  Uiso   1.00
C520   C     0.84019   0.17998   0.80039   0.00000  Uiso   1.00
C521   C     0.84997   0.24062   0.84231   0.00000  Uiso   1.00
C522   C     0.78514   0.29049   0.88927   0.00000  Uiso   1.00
C523   C     0.80708   0.34174   0.92237   0.00000  Uiso   1.00
C524   C     0.89480   0.13053   0.80650   0.00000  Uiso   1.00
C525   C     0.86767   0.08784   0.82333   0.00000  Uiso   1.00
C526   C     0.92734   0.04642   0.82628   0.00000  Uiso   1.00
C527   C     0.88148   0.17040   0.73544   0.00000  Uiso   1.00
C528   C     0.84315   0.16122   0.69252   0.00000  Uiso   1.00
C529   C     0.89162   0.15334   0.63563   0.00000  Uiso   1.00
H530   H     0.05963   0.18332   0.76523   0.00000  Uiso   1.00
H531   H     0.02061   0.29405   0.85152   0.00000  Uiso   1.00
H532   H     0.10313   0.09143   0.78559   0.00000  Uiso   1.00
H533   H     0.07861   0.16480   0.65480   0.00000  Uiso   1.00
H534   H     0.94041   0.41624   0.95313   0.00000  Uiso   1.00
H535   H     0.11440   0.98900   0.81410   0.00000  Uiso   1.00
H536   H     0.06271   0.14370   0.53830   0.00000  Uiso   1.00
H537   H     0.77497   0.17899   0.81084   0.00000  Uiso   1.00
H538   H     0.72032   0.28948   0.89964   0.00000  Uiso   1.00
H539   H     0.80284   0.08686   0.83371   0.00000  Uiso   1.00
H540   H     0.77832   0.16023   0.70292   0.00000  Uiso   1.00
H541   H     0.69668   0.41254   0.99219   0.00000  Uiso   1.00
H542   H     0.87068   0.98529   0.85315   0.00000  Uiso   1.00
H543   H     0.81898   0.14000   0.57735   0.00000  Uiso   1.00
O544   O     0.78774   0.48715   0.03027   0.00000  Uiso   1.00
O545   O     0.01602   0.92661   0.84784   0.00000  Uiso   1.00
O546   O     0.94819   0.12958   0.48601   0.00000  Uiso   1.00
N547   N     0.89055   0.40021   0.95013   0.00000  Uiso   1.00
N548   N     0.05322   0.00077   0.82015   0.00000  Uiso   1.00
N549   N     0.00489   0.14539   0.56229   0.00000  Uiso   1.00
N550   N     0.75940   0.39822   0.97115   0.00000  Uiso   1.00
N551   N     0.92207   0.99877   0.84116   0.00000  Uiso   1.00
N552   N     0.87375   0.14339   0.58331   0.00000  Uiso   1.00
