data_job_03917
_audit_creation_date              2018-12-19
_audit_creation_method            'Materials Studio'
_symmetry_space_group_name_H-M    'P1'
_symmetry_Int_Tables_number       1
_symmetry_cell_setting            triclinic
loop_
_symmetry_equiv_pos_as_xyz
  x,y,z
_cell_length_a                    17.0454
_cell_length_b                    17.0454
_cell_length_c                    22.3463
_cell_angle_alpha                 90.0000
_cell_angle_beta                  90.0000
_cell_angle_gamma                 90.0000
loop_
_atom_site_label
_atom_site_type_symbol
_atom_site_fract_x
_atom_site_fract_y
_atom_site_fract_z
_atom_site_U_iso_or_equiv
_atom_site_adp_type
_atom_site_occupancy
C1     C     0.41176   0.07574   0.58859   0.00000  Uiso   1.00
C2     C     0.40225   0.12567   0.53244   0.00000  Uiso   1.00
C3     C     0.43055   0.10709   0.47596   0.00000  Uiso   1.00
C4     C     0.41576   0.16049   0.43042   0.00000  Uiso   1.00
C5     C     0.40735   0.22748   0.34161   0.00000  Uiso   1.00
C6     C     0.45149   0.12828   0.63476   0.00000  Uiso   1.00
C7     C     0.52119   0.11189   0.66433   0.00000  Uiso   1.00
C8     C     0.54784   0.16748   0.70494   0.00000  Uiso   1.00
C9     C     0.61586   0.23849   0.77503   0.00000  Uiso   1.00
C10    C     0.32904   0.06090   0.61198   0.00000  Uiso   1.00
C11    C     0.29578   0.98785   0.62240   0.00000  Uiso   1.00
C12    C     0.21934   0.98671   0.64384   0.00000  Uiso   1.00
C13    C     0.09723   0.95310   0.67856   0.00000  Uiso   1.00
C14    C     0.33514   0.20362   0.60815   0.00000  Uiso   1.00
C15    C     0.36064   0.19513   0.54306   0.00000  Uiso   1.00
C16    C     0.34579   0.24857   0.49760   0.00000  Uiso   1.00
C17    C     0.37406   0.23007   0.44106   0.00000  Uiso   1.00
C18    C     0.40988   0.19774   0.64539   0.00000  Uiso   1.00
C19    C     0.43643   0.25337   0.68597   0.00000  Uiso   1.00
C20    C     0.50615   0.23706   0.71558   0.00000  Uiso   1.00
C21    C     0.28742   0.13036   0.62260   0.00000  Uiso   1.00
C22    C     0.21101   0.12933   0.64404   0.00000  Uiso   1.00
C23    C     0.17765   0.05629   0.65449   0.00000  Uiso   1.00
H24    H     0.44416   0.02167   0.58032   0.00000  Uiso   1.00
H25    H     0.46276   0.05334   0.46776   0.00000  Uiso   1.00
H26    H     0.55338   0.05813   0.65610   0.00000  Uiso   1.00
H27    H     0.32801   0.93411   0.61418   0.00000  Uiso   1.00
H28    H     0.46506   0.11910   0.34764   0.00000  Uiso   1.00
H29    H     0.65612   0.12918   0.74480   0.00000  Uiso   1.00
H30    H     0.18087   0.86767   0.65639   0.00000  Uiso   1.00
H31    H     0.30274   0.25769   0.61642   0.00000  Uiso   1.00
H32    H     0.31358   0.30232   0.50583   0.00000  Uiso   1.00
H33    H     0.40420   0.30711   0.69418   0.00000  Uiso   1.00
H34    H     0.17883   0.18309   0.65225   0.00000  Uiso   1.00
H35    H     0.34398   0.32118   0.37855   0.00000  Uiso   1.00
H36    H     0.53504   0.33126   0.77571   0.00000  Uiso   1.00
H37    H     0.05979   0.06975   0.68729   0.00000  Uiso   1.00
O38    O     0.41423   0.24525   0.28970   0.00000  Uiso   1.00
O39    O     0.66488   0.25847   0.81076   0.00000  Uiso   1.00
O40    O     0.04137   0.91537   0.69476   0.00000  Uiso   1.00
N41    N     0.43506   0.16052   0.37009   0.00000  Uiso   1.00
N42    N     0.61370   0.16996   0.74140   0.00000  Uiso   1.00
N43    N     0.16939   0.92547   0.65876   0.00000  Uiso   1.00
N44    N     0.36991   0.26926   0.38672   0.00000  Uiso   1.00
N45    N     0.54855   0.27870   0.75803   0.00000  Uiso   1.00
N46    N     0.10424   0.03421   0.67539   0.00000  Uiso   1.00
C47    C     0.58824   0.92426   0.58859   0.00000  Uiso   1.00
C48    C     0.59775   0.87433   0.53244   0.00000  Uiso   1.00
C49    C     0.56945   0.89291   0.47596   0.00000  Uiso   1.00
C50    C     0.58424   0.83951   0.43042   0.00000  Uiso   1.00
C51    C     0.59265   0.77252   0.34161   0.00000  Uiso   1.00
C52    C     0.54851   0.87172   0.63476   0.00000  Uiso   1.00
C53    C     0.47881   0.88811   0.66433   0.00000  Uiso   1.00
C54    C     0.45216   0.83252   0.70494   0.00000  Uiso   1.00
C55    C     0.38414   0.76151   0.77503   0.00000  Uiso   1.00
C56    C     0.67096   0.93910   0.61198   0.00000  Uiso   1.00
C57    C     0.70422   0.01215   0.62240   0.00000  Uiso   1.00
C58    C     0.78066   0.01329   0.64384   0.00000  Uiso   1.00
C59    C     0.90277   0.04690   0.67856   0.00000  Uiso   1.00
C60    C     0.66486   0.79638   0.60815   0.00000  Uiso   1.00
C61    C     0.63936   0.80487   0.54306   0.00000  Uiso   1.00
C62    C     0.65421   0.75143   0.49760   0.00000  Uiso   1.00
C63    C     0.62594   0.76993   0.44106   0.00000  Uiso   1.00
C64    C     0.59012   0.80226   0.64539   0.00000  Uiso   1.00
C65    C     0.56357   0.74663   0.68597   0.00000  Uiso   1.00
C66    C     0.49385   0.76294   0.71558   0.00000  Uiso   1.00
C67    C     0.71258   0.86964   0.62260   0.00000  Uiso   1.00
C68    C     0.78899   0.87067   0.64404   0.00000  Uiso   1.00
C69    C     0.82235   0.94371   0.65449   0.00000  Uiso   1.00
H70    H     0.55584   0.97833   0.58032   0.00000  Uiso   1.00
H71    H     0.53724   0.94666   0.46776   0.00000  Uiso   1.00
H72    H     0.44662   0.94187   0.65610   0.00000  Uiso   1.00
H73    H     0.67199   0.06589   0.61418   0.00000  Uiso   1.00
H74    H     0.53494   0.88090   0.34764   0.00000  Uiso   1.00
H75    H     0.34388   0.87082   0.74480   0.00000  Uiso   1.00
H76    H     0.81913   0.13233   0.65639   0.00000  Uiso   1.00
H77    H     0.69726   0.74231   0.61642   0.00000  Uiso   1.00
H78    H     0.68642   0.69768   0.50583   0.00000  Uiso   1.00
H79    H     0.59580   0.69289   0.69418   0.00000  Uiso   1.00
H80    H     0.82117   0.81691   0.65225   0.00000  Uiso   1.00
H81    H     0.65602   0.67882   0.37855   0.00000  Uiso   1.00
H82    H     0.46496   0.66874   0.77571   0.00000  Uiso   1.00
H83    H     0.94021   0.93025   0.68729   0.00000  Uiso   1.00
O84    O     0.58577   0.75475   0.28970   0.00000  Uiso   1.00
O85    O     0.33512   0.74153   0.81076   0.00000  Uiso   1.00
O86    O     0.95863   0.08463   0.69476   0.00000  Uiso   1.00
N87    N     0.56494   0.83948   0.37009   0.00000  Uiso   1.00
N88    N     0.38630   0.83004   0.74140   0.00000  Uiso   1.00
N89    N     0.83061   0.07453   0.65876   0.00000  Uiso   1.00
N90    N     0.63009   0.73074   0.38672   0.00000  Uiso   1.00
N91    N     0.45145   0.72130   0.75803   0.00000  Uiso   1.00
N92    N     0.89576   0.96579   0.67539   0.00000  Uiso   1.00
C93    C     0.42426   0.91176   0.08859   0.00000  Uiso   1.00
C94    C     0.37433   0.90225   0.03244   0.00000  Uiso   1.00
C95    C     0.39291   0.93055   0.97596   0.00000  Uiso   1.00
C96    C     0.33951   0.91576   0.93042   0.00000  Uiso   1.00
C97    C     0.27252   0.90735   0.84161   0.00000  Uiso   1.00
C98    C     0.37172   0.95149   0.13476   0.00000  Uiso   1.00
C99    C     0.38811   0.02119   0.16433   0.00000  Uiso   1.00
C100   C     0.33252   0.04784   0.20494   0.00000  Uiso   1.00
C101   C     0.26151   0.11586   0.27503   0.00000  Uiso   1.00
C102   C     0.43910   0.82904   0.11198   0.00000  Uiso   1.00
C103   C     0.51215   0.79578   0.12240   0.00000  Uiso   1.00
C104   C     0.51329   0.71934   0.14384   0.00000  Uiso   1.00
C105   C     0.54690   0.59723   0.17856   0.00000  Uiso   1.00
C106   C     0.29638   0.83514   0.10815   0.00000  Uiso   1.00
C107   C     0.30487   0.86064   0.04306   0.00000  Uiso   1.00
C108   C     0.25143   0.84579   0.99760   0.00000  Uiso   1.00
C109   C     0.26993   0.87406   0.94106   0.00000  Uiso   1.00
C110   C     0.30226   0.90988   0.14539   0.00000  Uiso   1.00
C111   C     0.24663   0.93643   0.18597   0.00000  Uiso   1.00
C112   C     0.26294   0.00615   0.21558   0.00000  Uiso   1.00
C113   C     0.36964   0.78742   0.12260   0.00000  Uiso   1.00
C114   C     0.37067   0.71101   0.14404   0.00000  Uiso   1.00
C115   C     0.44371   0.67765   0.15449   0.00000  Uiso   1.00
H116   H     0.47833   0.94416   0.08032   0.00000  Uiso   1.00
H117   H     0.44666   0.96276   0.96776   0.00000  Uiso   1.00
H118   H     0.44187   0.05338   0.15610   0.00000  Uiso   1.00
H119   H     0.56589   0.82801   0.11418   0.00000  Uiso   1.00
H120   H     0.38090   0.96506   0.84764   0.00000  Uiso   1.00
H121   H     0.37082   0.15612   0.24480   0.00000  Uiso   1.00
H122   H     0.63233   0.68087   0.15639   0.00000  Uiso   1.00
H123   H     0.24231   0.80274   0.11642   0.00000  Uiso   1.00
H124   H     0.19768   0.81358   0.00583   0.00000  Uiso   1.00
H125   H     0.19289   0.90420   0.19418   0.00000  Uiso   1.00
H126   H     0.31691   0.67883   0.15225   0.00000  Uiso   1.00
H127   H     0.17882   0.84398   0.87855   0.00000  Uiso   1.00
H128   H     0.16874   0.03504   0.27571   0.00000  Uiso   1.00
H129   H     0.43025   0.55979   0.18729   0.00000  Uiso   1.00
O130   O     0.25475   0.91423   0.78970   0.00000  Uiso   1.00
O131   O     0.24153   0.16488   0.31076   0.00000  Uiso   1.00
O132   O     0.58463   0.54137   0.19476   0.00000  Uiso   1.00
N133   N     0.33948   0.93506   0.87009   0.00000  Uiso   1.00
N134   N     0.33004   0.11370   0.24140   0.00000  Uiso   1.00
N135   N     0.57453   0.66939   0.15876   0.00000  Uiso   1.00
N136   N     0.23074   0.86991   0.88672   0.00000  Uiso   1.00
N137   N     0.22130   0.04855   0.25803   0.00000  Uiso   1.00
N138   N     0.46579   0.60424   0.17539   0.00000  Uiso   1.00
C139   C     0.57574   0.08824   0.08859   0.00000  Uiso   1.00
C140   C     0.62567   0.09775   0.03244   0.00000  Uiso   1.00
C141   C     0.60709   0.06945   0.97596   0.00000  Uiso   1.00
C142   C     0.66049   0.08424   0.93042   0.00000  Uiso   1.00
C143   C     0.72748   0.09265   0.84161   0.00000  Uiso   1.00
C144   C     0.62828   0.04851   0.13476   0.00000  Uiso   1.00
C145   C     0.61189   0.97881   0.16433   0.00000  Uiso   1.00
C146   C     0.66748   0.95216   0.20494   0.00000  Uiso   1.00
C147   C     0.73849   0.88414   0.27503   0.00000  Uiso   1.00
C148   C     0.56090   0.17096   0.11198   0.00000  Uiso   1.00
C149   C     0.48785   0.20422   0.12240   0.00000  Uiso   1.00
C150   C     0.48671   0.28066   0.14384   0.00000  Uiso   1.00
C151   C     0.45310   0.40277   0.17856   0.00000  Uiso   1.00
C152   C     0.70362   0.16486   0.10815   0.00000  Uiso   1.00
C153   C     0.69513   0.13936   0.04306   0.00000  Uiso   1.00
C154   C     0.74857   0.15421   0.99760   0.00000  Uiso   1.00
C155   C     0.73007   0.12594   0.94106   0.00000  Uiso   1.00
C156   C     0.69774   0.09012   0.14539   0.00000  Uiso   1.00
C157   C     0.75337   0.06357   0.18597   0.00000  Uiso   1.00
C158   C     0.73706   0.99385   0.21558   0.00000  Uiso   1.00
C159   C     0.63036   0.21258   0.12260   0.00000  Uiso   1.00
C160   C     0.62933   0.28899   0.14404   0.00000  Uiso   1.00
C161   C     0.55629   0.32235   0.15449   0.00000  Uiso   1.00
H162   H     0.52167   0.05584   0.08032   0.00000  Uiso   1.00
H163   H     0.55334   0.03724   0.96776   0.00000  Uiso   1.00
H164   H     0.55813   0.94662   0.15610   0.00000  Uiso   1.00
H165   H     0.43411   0.17199   0.11418   0.00000  Uiso   1.00
H166   H     0.61910   0.03494   0.84764   0.00000  Uiso   1.00
H167   H     0.62918   0.84388   0.24480   0.00000  Uiso   1.00
H168   H     0.36767   0.31913   0.15639   0.00000  Uiso   1.00
H169   H     0.75769   0.19726   0.11642   0.00000  Uiso   1.00
H170   H     0.80232   0.18642   0.00583   0.00000  Uiso   1.00
H171   H     0.80711   0.09580   0.19418   0.00000  Uiso   1.00
H172   H     0.68309   0.32117   0.15225   0.00000  Uiso   1.00
H173   H     0.82118   0.15602   0.87855   0.00000  Uiso   1.00
H174   H     0.83126   0.96496   0.27571   0.00000  Uiso   1.00
H175   H     0.56975   0.44021   0.18729   0.00000  Uiso   1.00
O176   O     0.74525   0.08577   0.78970   0.00000  Uiso   1.00
O177   O     0.75847   0.83512   0.31076   0.00000  Uiso   1.00
O178   O     0.41537   0.45863   0.19476   0.00000  Uiso   1.00
N179   N     0.66052   0.06494   0.87009   0.00000  Uiso   1.00
N180   N     0.66996   0.88630   0.24140   0.00000  Uiso   1.00
N181   N     0.42547   0.33061   0.15876   0.00000  Uiso   1.00
N182   N     0.76926   0.13009   0.88672   0.00000  Uiso   1.00
N183   N     0.77870   0.95145   0.25803   0.00000  Uiso   1.00
N184   N     0.53421   0.39576   0.17539   0.00000  Uiso   1.00
C185   C     0.08824   0.42426   0.91141   0.00000  Uiso   1.00
C186   C     0.09775   0.37433   0.96756   0.00000  Uiso   1.00
C187   C     0.06945   0.39291   0.02404   0.00000  Uiso   1.00
C188   C     0.08424   0.33951   0.06958   0.00000  Uiso   1.00
C189   C     0.09265   0.27252   0.15839   0.00000  Uiso   1.00
C190   C     0.04851   0.37172   0.86524   0.00000  Uiso   1.00
C191   C     0.97881   0.38811   0.83567   0.00000  Uiso   1.00
C192   C     0.95216   0.33252   0.79506   0.00000  Uiso   1.00
C193   C     0.88414   0.26151   0.72497   0.00000  Uiso   1.00
C194   C     0.17096   0.43910   0.88802   0.00000  Uiso   1.00
C195   C     0.20422   0.51215   0.87760   0.00000  Uiso   1.00
C196   C     0.28066   0.51329   0.85616   0.00000  Uiso   1.00
C197   C     0.40277   0.54690   0.82144   0.00000  Uiso   1.00
C198   C     0.16486   0.29638   0.89185   0.00000  Uiso   1.00
C199   C     0.13936   0.30487   0.95694   0.00000  Uiso   1.00
C200   C     0.15421   0.25143   0.00240   0.00000  Uiso   1.00
C201   C     0.12594   0.26993   0.05894   0.00000  Uiso   1.00
C202   C     0.09012   0.30226   0.85461   0.00000  Uiso   1.00
C203   C     0.06357   0.24663   0.81403   0.00000  Uiso   1.00
C204   C     0.99385   0.26294   0.78442   0.00000  Uiso   1.00
C205   C     0.21258   0.36964   0.87740   0.00000  Uiso   1.00
C206   C     0.28899   0.37067   0.85596   0.00000  Uiso   1.00
C207   C     0.32235   0.44371   0.84551   0.00000  Uiso   1.00
H208   H     0.05584   0.47833   0.91968   0.00000  Uiso   1.00
H209   H     0.03724   0.44666   0.03224   0.00000  Uiso   1.00
H210   H     0.94662   0.44187   0.84390   0.00000  Uiso   1.00
H211   H     0.17199   0.56589   0.88582   0.00000  Uiso   1.00
H212   H     0.03494   0.38090   0.15236   0.00000  Uiso   1.00
H213   H     0.84388   0.37082   0.75520   0.00000  Uiso   1.00
H214   H     0.31913   0.63233   0.84361   0.00000  Uiso   1.00
H215   H     0.19726   0.24231   0.88358   0.00000  Uiso   1.00
H216   H     0.18642   0.19768   0.99417   0.00000  Uiso   1.00
H217   H     0.09580   0.19289   0.80582   0.00000  Uiso   1.00
H218   H     0.32117   0.31691   0.84775   0.00000  Uiso   1.00
H219   H     0.15602   0.17882   0.12145   0.00000  Uiso   1.00
H220   H     0.96496   0.16874   0.72429   0.00000  Uiso   1.00
H221   H     0.44021   0.43025   0.81271   0.00000  Uiso   1.00
O222   O     0.08577   0.25475   0.21030   0.00000  Uiso   1.00
O223   O     0.83512   0.24153   0.68924   0.00000  Uiso   1.00
O224   O     0.45863   0.58463   0.80524   0.00000  Uiso   1.00
N225   N     0.06494   0.33948   0.12991   0.00000  Uiso   1.00
N226   N     0.88630   0.33004   0.75860   0.00000  Uiso   1.00
N227   N     0.33061   0.57453   0.84124   0.00000  Uiso   1.00
N228   N     0.13009   0.23074   0.11328   0.00000  Uiso   1.00
N229   N     0.95145   0.22130   0.74197   0.00000  Uiso   1.00
N230   N     0.39576   0.46579   0.82461   0.00000  Uiso   1.00
C231   C     0.91176   0.57574   0.91141   0.00000  Uiso   1.00
C232   C     0.90225   0.62567   0.96756   0.00000  Uiso   1.00
C233   C     0.93055   0.60709   0.02404   0.00000  Uiso   1.00
C234   C     0.91576   0.66049   0.06958   0.00000  Uiso   1.00
C235   C     0.90735   0.72748   0.15839   0.00000  Uiso   1.00
C236   C     0.95149   0.62828   0.86524   0.00000  Uiso   1.00
C237   C     0.02119   0.61189   0.83567   0.00000  Uiso   1.00
C238   C     0.04784   0.66748   0.79506   0.00000  Uiso   1.00
C239   C     0.11586   0.73849   0.72497   0.00000  Uiso   1.00
C240   C     0.82904   0.56090   0.88802   0.00000  Uiso   1.00
C241   C     0.79578   0.48785   0.87760   0.00000  Uiso   1.00
C242   C     0.71934   0.48671   0.85616   0.00000  Uiso   1.00
C243   C     0.59723   0.45310   0.82144   0.00000  Uiso   1.00
C244   C     0.83514   0.70362   0.89185   0.00000  Uiso   1.00
C245   C     0.86064   0.69513   0.95694   0.00000  Uiso   1.00
C246   C     0.84579   0.74857   0.00240   0.00000  Uiso   1.00
C247   C     0.87406   0.73007   0.05894   0.00000  Uiso   1.00
C248   C     0.90988   0.69774   0.85461   0.00000  Uiso   1.00
C249   C     0.93643   0.75337   0.81403   0.00000  Uiso   1.00
C250   C     0.00615   0.73706   0.78442   0.00000  Uiso   1.00
C251   C     0.78742   0.63036   0.87740   0.00000  Uiso   1.00
C252   C     0.71101   0.62933   0.85596   0.00000  Uiso   1.00
C253   C     0.67765   0.55629   0.84551   0.00000  Uiso   1.00
H254   H     0.94416   0.52167   0.91968   0.00000  Uiso   1.00
H255   H     0.96276   0.55334   0.03224   0.00000  Uiso   1.00
H256   H     0.05338   0.55813   0.84390   0.00000  Uiso   1.00
H257   H     0.82801   0.43411   0.88582   0.00000  Uiso   1.00
H258   H     0.96506   0.61910   0.15236   0.00000  Uiso   1.00
H259   H     0.15612   0.62918   0.75520   0.00000  Uiso   1.00
H260   H     0.68087   0.36767   0.84361   0.00000  Uiso   1.00
H261   H     0.80274   0.75769   0.88358   0.00000  Uiso   1.00
H262   H     0.81358   0.80232   0.99417   0.00000  Uiso   1.00
H263   H     0.90420   0.80711   0.80582   0.00000  Uiso   1.00
H264   H     0.67883   0.68309   0.84775   0.00000  Uiso   1.00
H265   H     0.84398   0.82118   0.12145   0.00000  Uiso   1.00
H266   H     0.03504   0.83126   0.72429   0.00000  Uiso   1.00
H267   H     0.55979   0.56975   0.81271   0.00000  Uiso   1.00
O268   O     0.91423   0.74525   0.21030   0.00000  Uiso   1.00
O269   O     0.16488   0.75847   0.68924   0.00000  Uiso   1.00
O270   O     0.54137   0.41537   0.80524   0.00000  Uiso   1.00
N271   N     0.93506   0.66052   0.12991   0.00000  Uiso   1.00
N272   N     0.11370   0.66996   0.75860   0.00000  Uiso   1.00
N273   N     0.66939   0.42547   0.84124   0.00000  Uiso   1.00
N274   N     0.86991   0.76926   0.11328   0.00000  Uiso   1.00
N275   N     0.04855   0.77870   0.74197   0.00000  Uiso   1.00
N276   N     0.60424   0.53421   0.82461   0.00000  Uiso   1.00
C277   C     0.07574   0.58824   0.41141   0.00000  Uiso   1.00
C278   C     0.12567   0.59775   0.46756   0.00000  Uiso   1.00
C279   C     0.10709   0.56945   0.52404   0.00000  Uiso   1.00
C280   C     0.16049   0.58424   0.56958   0.00000  Uiso   1.00
C281   C     0.22748   0.59265   0.65839   0.00000  Uiso   1.00
C282   C     0.12828   0.54851   0.36524   0.00000  Uiso   1.00
C283   C     0.11189   0.47881   0.33567   0.00000  Uiso   1.00
C284   C     0.16748   0.45216   0.29506   0.00000  Uiso   1.00
C285   C     0.23849   0.38414   0.22497   0.00000  Uiso   1.00
C286   C     0.06090   0.67096   0.38802   0.00000  Uiso   1.00
C287   C     0.98785   0.70422   0.37760   0.00000  Uiso   1.00
C288   C     0.98671   0.78066   0.35616   0.00000  Uiso   1.00
C289   C     0.95310   0.90277   0.32144   0.00000  Uiso   1.00
C290   C     0.20362   0.66486   0.39185   0.00000  Uiso   1.00
C291   C     0.19513   0.63936   0.45694   0.00000  Uiso   1.00
C292   C     0.24857   0.65421   0.50240   0.00000  Uiso   1.00
C293   C     0.23007   0.62594   0.55894   0.00000  Uiso   1.00
C294   C     0.19774   0.59012   0.35461   0.00000  Uiso   1.00
C295   C     0.25337   0.56357   0.31403   0.00000  Uiso   1.00
C296   C     0.23706   0.49385   0.28442   0.00000  Uiso   1.00
C297   C     0.13036   0.71258   0.37740   0.00000  Uiso   1.00
C298   C     0.12933   0.78899   0.35596   0.00000  Uiso   1.00
C299   C     0.05629   0.82235   0.34551   0.00000  Uiso   1.00
H300   H     0.02167   0.55584   0.41968   0.00000  Uiso   1.00
H301   H     0.05334   0.53724   0.53224   0.00000  Uiso   1.00
H302   H     0.05813   0.44662   0.34390   0.00000  Uiso   1.00
H303   H     0.93411   0.67199   0.38582   0.00000  Uiso   1.00
H304   H     0.11910   0.53494   0.65236   0.00000  Uiso   1.00
H305   H     0.12918   0.34388   0.25520   0.00000  Uiso   1.00
H306   H     0.86767   0.81913   0.34361   0.00000  Uiso   1.00
H307   H     0.25769   0.69726   0.38358   0.00000  Uiso   1.00
H308   H     0.30232   0.68642   0.49417   0.00000  Uiso   1.00
H309   H     0.30711   0.59580   0.30582   0.00000  Uiso   1.00
H310   H     0.18309   0.82117   0.34775   0.00000  Uiso   1.00
H311   H     0.32118   0.65602   0.62145   0.00000  Uiso   1.00
H312   H     0.33126   0.46496   0.22429   0.00000  Uiso   1.00
H313   H     0.06975   0.94021   0.31271   0.00000  Uiso   1.00
O314   O     0.24525   0.58577   0.71030   0.00000  Uiso   1.00
O315   O     0.25847   0.33512   0.18924   0.00000  Uiso   1.00
O316   O     0.91537   0.95863   0.30524   0.00000  Uiso   1.00
N317   N     0.16052   0.56494   0.62991   0.00000  Uiso   1.00
N318   N     0.16996   0.38630   0.25860   0.00000  Uiso   1.00
N319   N     0.92547   0.83061   0.34124   0.00000  Uiso   1.00
N320   N     0.26926   0.63009   0.61328   0.00000  Uiso   1.00
N321   N     0.27870   0.45145   0.24197   0.00000  Uiso   1.00
N322   N     0.03421   0.89576   0.32461   0.00000  Uiso   1.00
C323   C     0.92426   0.41176   0.41141   0.00000  Uiso   1.00
C324   C     0.87433   0.40225   0.46756   0.00000  Uiso   1.00
C325   C     0.89291   0.43055   0.52404   0.00000  Uiso   1.00
C326   C     0.83951   0.41576   0.56958   0.00000  Uiso   1.00
C327   C     0.77252   0.40735   0.65839   0.00000  Uiso   1.00
C328   C     0.87172   0.45149   0.36524   0.00000  Uiso   1.00
C329   C     0.88811   0.52119   0.33567   0.00000  Uiso   1.00
C330   C     0.83252   0.54784   0.29506   0.00000  Uiso   1.00
C331   C     0.76151   0.61586   0.22497   0.00000  Uiso   1.00
C332   C     0.93910   0.32904   0.38802   0.00000  Uiso   1.00
C333   C     0.01215   0.29578   0.37760   0.00000  Uiso   1.00
C334   C     0.01329   0.21934   0.35616   0.00000  Uiso   1.00
C335   C     0.04690   0.09723   0.32144   0.00000  Uiso   1.00
C336   C     0.79638   0.33514   0.39185   0.00000  Uiso   1.00
C337   C     0.80487   0.36064   0.45694   0.00000  Uiso   1.00
C338   C     0.75143   0.34579   0.50240   0.00000  Uiso   1.00
C339   C     0.76993   0.37406   0.55894   0.00000  Uiso   1.00
C340   C     0.80226   0.40988   0.35461   0.00000  Uiso   1.00
C341   C     0.74663   0.43643   0.31403   0.00000  Uiso   1.00
C342   C     0.76294   0.50615   0.28442   0.00000  Uiso   1.00
C343   C     0.86964   0.28742   0.37740   0.00000  Uiso   1.00
C344   C     0.87067   0.21101   0.35596   0.00000  Uiso   1.00
C345   C     0.94371   0.17765   0.34551   0.00000  Uiso   1.00
H346   H     0.97833   0.44416   0.41968   0.00000  Uiso   1.00
H347   H     0.94666   0.46276   0.53224   0.00000  Uiso   1.00
H348   H     0.94187   0.55338   0.34390   0.00000  Uiso   1.00
H349   H     0.06589   0.32801   0.38582   0.00000  Uiso   1.00
H350   H     0.88090   0.46506   0.65236   0.00000  Uiso   1.00
H351   H     0.87082   0.65612   0.25520   0.00000  Uiso   1.00
H352   H     0.13233   0.18087   0.34361   0.00000  Uiso   1.00
H353   H     0.74231   0.30274   0.38358   0.00000  Uiso   1.00
H354   H     0.69768   0.31358   0.49417   0.00000  Uiso   1.00
H355   H     0.69289   0.40420   0.30582   0.00000  Uiso   1.00
H356   H     0.81691   0.17883   0.34775   0.00000  Uiso   1.00
H357   H     0.67882   0.34398   0.62145   0.00000  Uiso   1.00
H358   H     0.66874   0.53504   0.22429   0.00000  Uiso   1.00
H359   H     0.93025   0.05979   0.31271   0.00000  Uiso   1.00
O360   O     0.75475   0.41423   0.71030   0.00000  Uiso   1.00
O361   O     0.74153   0.66488   0.18924   0.00000  Uiso   1.00
O362   O     0.08463   0.04137   0.30524   0.00000  Uiso   1.00
N363   N     0.83948   0.43506   0.62991   0.00000  Uiso   1.00
N364   N     0.83004   0.61370   0.25860   0.00000  Uiso   1.00
N365   N     0.07453   0.16939   0.34124   0.00000  Uiso   1.00
N366   N     0.73074   0.36991   0.61328   0.00000  Uiso   1.00
N367   N     0.72130   0.54855   0.24197   0.00000  Uiso   1.00
N368   N     0.96579   0.10424   0.32461   0.00000  Uiso   1.00
