data_job_02058
_audit_creation_date              2018-12-19
_audit_creation_method            'Materials Studio'
_symmetry_space_group_name_H-M    'P1'
_symmetry_Int_Tables_number       1
_symmetry_cell_setting            triclinic
loop_
_symmetry_equiv_pos_as_xyz
  x,y,z
_cell_length_a                    11.2107
_cell_length_b                    22.5370
_cell_length_c                    19.5177
_cell_angle_alpha                 90.0000
_cell_angle_beta                  90.0000
_cell_angle_gamma                 90.0000
loop_
_atom_site_label
_atom_site_type_symbol
_atom_site_fract_x
_atom_site_fract_y
_atom_site_fract_z
_atom_site_U_iso_or_equiv
_atom_site_adp_type
_atom_site_occupancy
C1     C     0.12371   0.38217   0.39453   0.00000  Uiso   1.00
C2     C     0.18303   0.32484   0.37083   0.00000  Uiso   1.00
C3     C     0.27144   0.32038   0.32133   0.00000  Uiso   1.00
C4     C     0.31415   0.26392   0.30691   0.00000  Uiso   1.00
C5     C     0.41294   0.18253   0.26493   0.00000  Uiso   1.00
C6     C     0.99017   0.37340   0.38366   0.00000  Uiso   1.00
C7     C     0.91642   0.40978   0.34496   0.00000  Uiso   1.00
C8     C     0.79676   0.39419   0.34135   0.00000  Uiso   1.00
C9     C     0.59611   0.38822   0.31934   0.00000  Uiso   1.00
C10    C     0.14216   0.38498   0.47186   0.00000  Uiso   1.00
C11    C     0.19618   0.43110   0.50733   0.00000  Uiso   1.00
C12    C     0.20446   0.42527   0.57799   0.00000  Uiso   1.00
C13    C     0.23979   0.43727   0.69292   0.00000  Uiso   1.00
C14    C     0.04233   0.28983   0.45695   0.00000  Uiso   1.00
C15    C     0.13883   0.27469   0.40473   0.00000  Uiso   1.00
C16    C     0.18141   0.21822   0.39039   0.00000  Uiso   1.00
C17    C     0.26987   0.21367   0.34088   0.00000  Uiso   1.00
C18    C     0.94597   0.32325   0.41756   0.00000  Uiso   1.00
C19    C     0.82639   0.30761   0.41402   0.00000  Uiso   1.00
C20    C     0.75248   0.34395   0.37532   0.00000  Uiso   1.00
C21    C     0.09796   0.33482   0.50577   0.00000  Uiso   1.00
C22    C     0.10615   0.32893   0.57639   0.00000  Uiso   1.00
C23    C     0.16017   0.37502   0.61196   0.00000  Uiso   1.00
H24    H     0.15812   0.42122   0.36813   0.00000  Uiso   1.00
H25    H     0.30562   0.35921   0.29510   0.00000  Uiso   1.00
H26    H     0.95065   0.44859   0.31873   0.00000  Uiso   1.00
H27    H     0.23037   0.46990   0.48108   0.00000  Uiso   1.00
H28    H     0.44963   0.26833   0.22906   0.00000  Uiso   1.00
H29    H     0.70115   0.45681   0.27891   0.00000  Uiso   1.00
H30    H     0.29099   0.50176   0.62125   0.00000  Uiso   1.00
H31    H     0.00792   0.25078   0.48335   0.00000  Uiso   1.00
H32    H     0.14719   0.17941   0.41664   0.00000  Uiso   1.00
H33    H     0.79221   0.26879   0.44027   0.00000  Uiso   1.00
H34    H     0.07193   0.29011   0.60261   0.00000  Uiso   1.00
H35    H     0.32104   0.12240   0.32770   0.00000  Uiso   1.00
H36    H     0.57255   0.31089   0.37756   0.00000  Uiso   1.00
H37    H     0.16239   0.35583   0.71989   0.00000  Uiso   1.00
O38    O     0.47963   0.15149   0.23240   0.00000  Uiso   1.00
O39    O     0.49765   0.39878   0.29782   0.00000  Uiso   1.00
O40    O     0.27151   0.45775   0.74695   0.00000  Uiso   1.00
N41    N     0.40027   0.24378   0.26144   0.00000  Uiso   1.00
N42    N     0.70049   0.42000   0.30804   0.00000  Uiso   1.00
N43    N     0.25191   0.46203   0.62810   0.00000  Uiso   1.00
N44    N     0.33108   0.16526   0.31452   0.00000  Uiso   1.00
N45    N     0.63129   0.34147   0.36112   0.00000  Uiso   1.00
N46    N     0.18272   0.38350   0.68118   0.00000  Uiso   1.00
C47    C     0.37629   0.61783   0.89453   0.00000  Uiso   1.00
C48    C     0.31697   0.67516   0.87083   0.00000  Uiso   1.00
C49    C     0.22856   0.67962   0.82133   0.00000  Uiso   1.00
C50    C     0.18585   0.73608   0.80691   0.00000  Uiso   1.00
C51    C     0.08706   0.81747   0.76493   0.00000  Uiso   1.00
C52    C     0.50983   0.62660   0.88366   0.00000  Uiso   1.00
C53    C     0.58358   0.59022   0.84496   0.00000  Uiso   1.00
C54    C     0.70324   0.60581   0.84135   0.00000  Uiso   1.00
C55    C     0.90389   0.61178   0.81934   0.00000  Uiso   1.00
C56    C     0.35784   0.61502   0.97186   0.00000  Uiso   1.00
C57    C     0.30382   0.56890   0.00733   0.00000  Uiso   1.00
C58    C     0.29554   0.57473   0.07799   0.00000  Uiso   1.00
C59    C     0.26021   0.56273   0.19292   0.00000  Uiso   1.00
C60    C     0.45767   0.71017   0.95695   0.00000  Uiso   1.00
C61    C     0.36117   0.72531   0.90473   0.00000  Uiso   1.00
C62    C     0.31859   0.78178   0.89039   0.00000  Uiso   1.00
C63    C     0.23013   0.78633   0.84088   0.00000  Uiso   1.00
C64    C     0.55403   0.67675   0.91756   0.00000  Uiso   1.00
C65    C     0.67361   0.69239   0.91402   0.00000  Uiso   1.00
C66    C     0.74752   0.65605   0.87532   0.00000  Uiso   1.00
C67    C     0.40204   0.66518   0.00577   0.00000  Uiso   1.00
C68    C     0.39385   0.67107   0.07639   0.00000  Uiso   1.00
C69    C     0.33983   0.62498   0.11196   0.00000  Uiso   1.00
H70    H     0.34188   0.57878   0.86813   0.00000  Uiso   1.00
H71    H     0.19438   0.64079   0.79510   0.00000  Uiso   1.00
H72    H     0.54935   0.55141   0.81873   0.00000  Uiso   1.00
H73    H     0.26963   0.53010   0.98108   0.00000  Uiso   1.00
H74    H     0.05037   0.73167   0.72906   0.00000  Uiso   1.00
H75    H     0.79885   0.54319   0.77891   0.00000  Uiso   1.00
H76    H     0.20901   0.49824   0.12125   0.00000  Uiso   1.00
H77    H     0.49208   0.74922   0.98335   0.00000  Uiso   1.00
H78    H     0.35281   0.82059   0.91664   0.00000  Uiso   1.00
H79    H     0.70779   0.73121   0.94027   0.00000  Uiso   1.00
H80    H     0.42807   0.70989   0.10261   0.00000  Uiso   1.00
H81    H     0.17896   0.87760   0.82770   0.00000  Uiso   1.00
H82    H     0.92745   0.68911   0.87756   0.00000  Uiso   1.00
H83    H     0.33761   0.64417   0.21989   0.00000  Uiso   1.00
O84    O     0.02037   0.84851   0.73240   0.00000  Uiso   1.00
O85    O     0.00235   0.60122   0.79782   0.00000  Uiso   1.00
O86    O     0.22849   0.54225   0.24695   0.00000  Uiso   1.00
N87    N     0.09973   0.75622   0.76144   0.00000  Uiso   1.00
N88    N     0.79951   0.58000   0.80804   0.00000  Uiso   1.00
N89    N     0.24809   0.53797   0.12810   0.00000  Uiso   1.00
N90    N     0.16892   0.83474   0.81452   0.00000  Uiso   1.00
N91    N     0.86871   0.65853   0.86112   0.00000  Uiso   1.00
N92    N     0.31728   0.61650   0.18118   0.00000  Uiso   1.00
C93    C     0.87629   0.88217   0.10547   0.00000  Uiso   1.00
C94    C     0.81697   0.82484   0.12917   0.00000  Uiso   1.00
C95    C     0.72856   0.82038   0.17867   0.00000  Uiso   1.00
C96    C     0.68585   0.76392   0.19309   0.00000  Uiso   1.00
C97    C     0.58706   0.68253   0.23507   0.00000  Uiso   1.00
C98    C     0.00983   0.87340   0.11634   0.00000  Uiso   1.00
C99    C     0.08358   0.90978   0.15504   0.00000  Uiso   1.00
C100   C     0.20324   0.89419   0.15865   0.00000  Uiso   1.00
C101   C     0.40389   0.88822   0.18066   0.00000  Uiso   1.00
C102   C     0.85784   0.88498   0.02814   0.00000  Uiso   1.00
C103   C     0.80382   0.93110   0.99267   0.00000  Uiso   1.00
C104   C     0.79554   0.92527   0.92201   0.00000  Uiso   1.00
C105   C     0.76021   0.93727   0.80708   0.00000  Uiso   1.00
C106   C     0.95767   0.78983   0.04305   0.00000  Uiso   1.00
C107   C     0.86117   0.77469   0.09527   0.00000  Uiso   1.00
C108   C     0.81859   0.71822   0.10961   0.00000  Uiso   1.00
C109   C     0.73013   0.71367   0.15912   0.00000  Uiso   1.00
C110   C     0.05403   0.82325   0.08244   0.00000  Uiso   1.00
C111   C     0.17361   0.80761   0.08598   0.00000  Uiso   1.00
C112   C     0.24752   0.84395   0.12468   0.00000  Uiso   1.00
C113   C     0.90204   0.83482   0.99423   0.00000  Uiso   1.00
C114   C     0.89385   0.82893   0.92361   0.00000  Uiso   1.00
C115   C     0.83983   0.87502   0.88804   0.00000  Uiso   1.00
H116   H     0.84188   0.92122   0.13187   0.00000  Uiso   1.00
H117   H     0.69438   0.85921   0.20490   0.00000  Uiso   1.00
H118   H     0.04935   0.94859   0.18127   0.00000  Uiso   1.00
H119   H     0.76963   0.96990   0.01892   0.00000  Uiso   1.00
H120   H     0.55037   0.76833   0.27094   0.00000  Uiso   1.00
H121   H     0.29885   0.95681   0.22109   0.00000  Uiso   1.00
H122   H     0.70901   0.00176   0.87875   0.00000  Uiso   1.00
H123   H     0.99208   0.75078   0.01665   0.00000  Uiso   1.00
H124   H     0.85281   0.67941   0.08336   0.00000  Uiso   1.00
H125   H     0.20779   0.76879   0.05973   0.00000  Uiso   1.00
H126   H     0.92807   0.79011   0.89739   0.00000  Uiso   1.00
H127   H     0.67896   0.62240   0.17230   0.00000  Uiso   1.00
H128   H     0.42745   0.81089   0.12244   0.00000  Uiso   1.00
H129   H     0.83761   0.85583   0.78011   0.00000  Uiso   1.00
O130   O     0.52037   0.65149   0.26760   0.00000  Uiso   1.00
O131   O     0.50235   0.89878   0.20218   0.00000  Uiso   1.00
O132   O     0.72849   0.95775   0.75305   0.00000  Uiso   1.00
N133   N     0.59973   0.74378   0.23856   0.00000  Uiso   1.00
N134   N     0.29951   0.92000   0.19196   0.00000  Uiso   1.00
N135   N     0.74809   0.96203   0.87190   0.00000  Uiso   1.00
N136   N     0.66892   0.66526   0.18548   0.00000  Uiso   1.00
N137   N     0.36871   0.84147   0.13888   0.00000  Uiso   1.00
N138   N     0.81728   0.88350   0.81882   0.00000  Uiso   1.00
C139   C     0.62371   0.11783   0.60547   0.00000  Uiso   1.00
C140   C     0.68303   0.17516   0.62917   0.00000  Uiso   1.00
C141   C     0.77144   0.17962   0.67867   0.00000  Uiso   1.00
C142   C     0.81415   0.23608   0.69309   0.00000  Uiso   1.00
C143   C     0.91294   0.31747   0.73507   0.00000  Uiso   1.00
C144   C     0.49017   0.12660   0.61634   0.00000  Uiso   1.00
C145   C     0.41642   0.09022   0.65504   0.00000  Uiso   1.00
C146   C     0.29676   0.10581   0.65865   0.00000  Uiso   1.00
C147   C     0.09611   0.11178   0.68066   0.00000  Uiso   1.00
C148   C     0.64216   0.11502   0.52814   0.00000  Uiso   1.00
C149   C     0.69618   0.06890   0.49267   0.00000  Uiso   1.00
C150   C     0.70446   0.07473   0.42201   0.00000  Uiso   1.00
C151   C     0.73979   0.06273   0.30708   0.00000  Uiso   1.00
C152   C     0.54233   0.21017   0.54305   0.00000  Uiso   1.00
C153   C     0.63883   0.22531   0.59527   0.00000  Uiso   1.00
C154   C     0.68141   0.28178   0.60961   0.00000  Uiso   1.00
C155   C     0.76987   0.28633   0.65912   0.00000  Uiso   1.00
C156   C     0.44597   0.17675   0.58244   0.00000  Uiso   1.00
C157   C     0.32639   0.19239   0.58598   0.00000  Uiso   1.00
C158   C     0.25248   0.15605   0.62468   0.00000  Uiso   1.00
C159   C     0.59796   0.16518   0.49423   0.00000  Uiso   1.00
C160   C     0.60615   0.17107   0.42361   0.00000  Uiso   1.00
C161   C     0.66017   0.12498   0.38804   0.00000  Uiso   1.00
H162   H     0.65812   0.07878   0.63187   0.00000  Uiso   1.00
H163   H     0.80562   0.14079   0.70490   0.00000  Uiso   1.00
H164   H     0.45065   0.05141   0.68127   0.00000  Uiso   1.00
H165   H     0.73037   0.03010   0.51892   0.00000  Uiso   1.00
H166   H     0.94963   0.23167   0.77094   0.00000  Uiso   1.00
H167   H     0.20115   0.04319   0.72109   0.00000  Uiso   1.00
H168   H     0.79099   0.99824   0.37875   0.00000  Uiso   1.00
H169   H     0.50792   0.24922   0.51665   0.00000  Uiso   1.00
H170   H     0.64719   0.32059   0.58336   0.00000  Uiso   1.00
H171   H     0.29221   0.23121   0.55973   0.00000  Uiso   1.00
H172   H     0.57193   0.20989   0.39739   0.00000  Uiso   1.00
H173   H     0.82104   0.37760   0.67230   0.00000  Uiso   1.00
H174   H     0.07255   0.18911   0.62244   0.00000  Uiso   1.00
H175   H     0.66239   0.14417   0.28011   0.00000  Uiso   1.00
O176   O     0.97963   0.34851   0.76760   0.00000  Uiso   1.00
O177   O     0.99765   0.10122   0.70218   0.00000  Uiso   1.00
O178   O     0.77151   0.04225   0.25305   0.00000  Uiso   1.00
N179   N     0.90027   0.25622   0.73856   0.00000  Uiso   1.00
N180   N     0.20049   0.08000   0.69196   0.00000  Uiso   1.00
N181   N     0.75191   0.03797   0.37190   0.00000  Uiso   1.00
N182   N     0.83108   0.33474   0.68548   0.00000  Uiso   1.00
N183   N     0.13129   0.15853   0.63888   0.00000  Uiso   1.00
N184   N     0.68272   0.11650   0.31882   0.00000  Uiso   1.00
C185   C     0.87629   0.61783   0.60547   0.00000  Uiso   1.00
C186   C     0.81697   0.67516   0.62917   0.00000  Uiso   1.00
C187   C     0.72856   0.67962   0.67867   0.00000  Uiso   1.00
C188   C     0.68585   0.73608   0.69309   0.00000  Uiso   1.00
C189   C     0.58706   0.81747   0.73507   0.00000  Uiso   1.00
C190   C     0.00983   0.62660   0.61634   0.00000  Uiso   1.00
C191   C     0.08358   0.59022   0.65504   0.00000  Uiso   1.00
C192   C     0.20324   0.60581   0.65865   0.00000  Uiso   1.00
C193   C     0.40389   0.61178   0.68066   0.00000  Uiso   1.00
C194   C     0.85784   0.61502   0.52814   0.00000  Uiso   1.00
C195   C     0.80382   0.56890   0.49267   0.00000  Uiso   1.00
C196   C     0.79554   0.57473   0.42201   0.00000  Uiso   1.00
C197   C     0.76021   0.56273   0.30708   0.00000  Uiso   1.00
C198   C     0.95767   0.71017   0.54305   0.00000  Uiso   1.00
C199   C     0.86117   0.72531   0.59527   0.00000  Uiso   1.00
C200   C     0.81859   0.78178   0.60961   0.00000  Uiso   1.00
C201   C     0.73013   0.78633   0.65912   0.00000  Uiso   1.00
C202   C     0.05403   0.67675   0.58244   0.00000  Uiso   1.00
C203   C     0.17361   0.69239   0.58598   0.00000  Uiso   1.00
C204   C     0.24752   0.65605   0.62468   0.00000  Uiso   1.00
C205   C     0.90204   0.66518   0.49423   0.00000  Uiso   1.00
C206   C     0.89385   0.67107   0.42361   0.00000  Uiso   1.00
C207   C     0.83983   0.62498   0.38804   0.00000  Uiso   1.00
H208   H     0.84188   0.57878   0.63187   0.00000  Uiso   1.00
H209   H     0.69438   0.64079   0.70490   0.00000  Uiso   1.00
H210   H     0.04935   0.55141   0.68127   0.00000  Uiso   1.00
H211   H     0.76963   0.53010   0.51892   0.00000  Uiso   1.00
H212   H     0.55037   0.73167   0.77094   0.00000  Uiso   1.00
H213   H     0.29885   0.54319   0.72109   0.00000  Uiso   1.00
H214   H     0.70901   0.49824   0.37875   0.00000  Uiso   1.00
H215   H     0.99208   0.74922   0.51665   0.00000  Uiso   1.00
H216   H     0.85281   0.82059   0.58336   0.00000  Uiso   1.00
H217   H     0.20779   0.73121   0.55973   0.00000  Uiso   1.00
H218   H     0.92807   0.70989   0.39739   0.00000  Uiso   1.00
H219   H     0.67896   0.87760   0.67230   0.00000  Uiso   1.00
H220   H     0.42745   0.68911   0.62244   0.00000  Uiso   1.00
H221   H     0.83761   0.64417   0.28011   0.00000  Uiso   1.00
O222   O     0.52037   0.84851   0.76760   0.00000  Uiso   1.00
O223   O     0.50235   0.60122   0.70218   0.00000  Uiso   1.00
O224   O     0.72849   0.54225   0.25305   0.00000  Uiso   1.00
N225   N     0.59973   0.75622   0.73856   0.00000  Uiso   1.00
N226   N     0.29951   0.58000   0.69196   0.00000  Uiso   1.00
N227   N     0.74809   0.53797   0.37190   0.00000  Uiso   1.00
N228   N     0.66892   0.83474   0.68548   0.00000  Uiso   1.00
N229   N     0.36871   0.65853   0.63888   0.00000  Uiso   1.00
N230   N     0.81728   0.61650   0.31882   0.00000  Uiso   1.00
C231   C     0.62371   0.38217   0.10547   0.00000  Uiso   1.00
C232   C     0.68303   0.32484   0.12917   0.00000  Uiso   1.00
C233   C     0.77144   0.32038   0.17867   0.00000  Uiso   1.00
C234   C     0.81415   0.26392   0.19309   0.00000  Uiso   1.00
C235   C     0.91294   0.18253   0.23507   0.00000  Uiso   1.00
C236   C     0.49017   0.37340   0.11634   0.00000  Uiso   1.00
C237   C     0.41642   0.40978   0.15504   0.00000  Uiso   1.00
C238   C     0.29676   0.39419   0.15865   0.00000  Uiso   1.00
C239   C     0.09611   0.38822   0.18066   0.00000  Uiso   1.00
C240   C     0.64216   0.38498   0.02814   0.00000  Uiso   1.00
C241   C     0.69618   0.43110   0.99267   0.00000  Uiso   1.00
C242   C     0.70446   0.42527   0.92201   0.00000  Uiso   1.00
C243   C     0.73979   0.43727   0.80708   0.00000  Uiso   1.00
C244   C     0.54233   0.28983   0.04305   0.00000  Uiso   1.00
C245   C     0.63883   0.27469   0.09527   0.00000  Uiso   1.00
C246   C     0.68141   0.21822   0.10961   0.00000  Uiso   1.00
C247   C     0.76987   0.21367   0.15912   0.00000  Uiso   1.00
C248   C     0.44597   0.32325   0.08244   0.00000  Uiso   1.00
C249   C     0.32639   0.30761   0.08598   0.00000  Uiso   1.00
C250   C     0.25248   0.34395   0.12468   0.00000  Uiso   1.00
C251   C     0.59796   0.33482   0.99423   0.00000  Uiso   1.00
C252   C     0.60615   0.32893   0.92361   0.00000  Uiso   1.00
C253   C     0.66017   0.37502   0.88804   0.00000  Uiso   1.00
H254   H     0.65812   0.42122   0.13187   0.00000  Uiso   1.00
H255   H     0.80562   0.35921   0.20490   0.00000  Uiso   1.00
H256   H     0.45065   0.44859   0.18127   0.00000  Uiso   1.00
H257   H     0.73037   0.46990   0.01892   0.00000  Uiso   1.00
H258   H     0.94963   0.26833   0.27094   0.00000  Uiso   1.00
H259   H     0.20115   0.45681   0.22109   0.00000  Uiso   1.00
H260   H     0.79099   0.50176   0.87875   0.00000  Uiso   1.00
H261   H     0.50792   0.25078   0.01665   0.00000  Uiso   1.00
H262   H     0.64719   0.17941   0.08336   0.00000  Uiso   1.00
H263   H     0.29221   0.26879   0.05973   0.00000  Uiso   1.00
H264   H     0.57193   0.29011   0.89739   0.00000  Uiso   1.00
H265   H     0.82104   0.12240   0.17230   0.00000  Uiso   1.00
H266   H     0.07255   0.31089   0.12244   0.00000  Uiso   1.00
H267   H     0.66239   0.35583   0.78011   0.00000  Uiso   1.00
O268   O     0.97963   0.15149   0.26760   0.00000  Uiso   1.00
O269   O     0.99765   0.39878   0.20218   0.00000  Uiso   1.00
O270   O     0.77151   0.45775   0.75305   0.00000  Uiso   1.00
N271   N     0.90027   0.24378   0.23856   0.00000  Uiso   1.00
N272   N     0.20049   0.42000   0.19196   0.00000  Uiso   1.00
N273   N     0.75191   0.46203   0.87190   0.00000  Uiso   1.00
N274   N     0.83108   0.16526   0.18548   0.00000  Uiso   1.00
N275   N     0.13129   0.34147   0.13888   0.00000  Uiso   1.00
N276   N     0.68272   0.38350   0.81882   0.00000  Uiso   1.00
C277   C     0.12371   0.11783   0.89453   0.00000  Uiso   1.00
C278   C     0.18303   0.17516   0.87083   0.00000  Uiso   1.00
C279   C     0.27144   0.17962   0.82133   0.00000  Uiso   1.00
C280   C     0.31415   0.23608   0.80691   0.00000  Uiso   1.00
C281   C     0.41294   0.31747   0.76493   0.00000  Uiso   1.00
C282   C     0.99017   0.12660   0.88366   0.00000  Uiso   1.00
C283   C     0.91642   0.09022   0.84496   0.00000  Uiso   1.00
C284   C     0.79676   0.10581   0.84135   0.00000  Uiso   1.00
C285   C     0.59611   0.11178   0.81934   0.00000  Uiso   1.00
C286   C     0.14216   0.11502   0.97186   0.00000  Uiso   1.00
C287   C     0.19618   0.06890   0.00733   0.00000  Uiso   1.00
C288   C     0.20446   0.07473   0.07799   0.00000  Uiso   1.00
C289   C     0.23979   0.06273   0.19292   0.00000  Uiso   1.00
C290   C     0.04233   0.21017   0.95695   0.00000  Uiso   1.00
C291   C     0.13883   0.22531   0.90473   0.00000  Uiso   1.00
C292   C     0.18141   0.28178   0.89039   0.00000  Uiso   1.00
C293   C     0.26987   0.28633   0.84088   0.00000  Uiso   1.00
C294   C     0.94597   0.17675   0.91756   0.00000  Uiso   1.00
C295   C     0.82639   0.19239   0.91402   0.00000  Uiso   1.00
C296   C     0.75248   0.15605   0.87532   0.00000  Uiso   1.00
C297   C     0.09796   0.16518   0.00577   0.00000  Uiso   1.00
C298   C     0.10615   0.17107   0.07639   0.00000  Uiso   1.00
C299   C     0.16017   0.12498   0.11196   0.00000  Uiso   1.00
H300   H     0.15812   0.07878   0.86813   0.00000  Uiso   1.00
H301   H     0.30562   0.14079   0.79510   0.00000  Uiso   1.00
H302   H     0.95065   0.05141   0.81873   0.00000  Uiso   1.00
H303   H     0.23037   0.03010   0.98108   0.00000  Uiso   1.00
H304   H     0.44963   0.23167   0.72906   0.00000  Uiso   1.00
H305   H     0.70115   0.04319   0.77891   0.00000  Uiso   1.00
H306   H     0.29099   0.99824   0.12125   0.00000  Uiso   1.00
H307   H     0.00792   0.24922   0.98335   0.00000  Uiso   1.00
H308   H     0.14719   0.32059   0.91664   0.00000  Uiso   1.00
H309   H     0.79221   0.23121   0.94027   0.00000  Uiso   1.00
H310   H     0.07193   0.20989   0.10261   0.00000  Uiso   1.00
H311   H     0.32104   0.37760   0.82770   0.00000  Uiso   1.00
H312   H     0.57255   0.18911   0.87756   0.00000  Uiso   1.00
H313   H     0.16239   0.14417   0.21989   0.00000  Uiso   1.00
O314   O     0.47963   0.34851   0.73240   0.00000  Uiso   1.00
O315   O     0.49765   0.10122   0.79782   0.00000  Uiso   1.00
O316   O     0.27151   0.04225   0.24695   0.00000  Uiso   1.00
N317   N     0.40027   0.25622   0.76144   0.00000  Uiso   1.00
N318   N     0.70049   0.08000   0.80804   0.00000  Uiso   1.00
N319   N     0.25191   0.03797   0.12810   0.00000  Uiso   1.00
N320   N     0.33108   0.33474   0.81452   0.00000  Uiso   1.00
N321   N     0.63129   0.15853   0.86112   0.00000  Uiso   1.00
N322   N     0.18272   0.11650   0.18118   0.00000  Uiso   1.00
C323   C     0.37629   0.88217   0.39453   0.00000  Uiso   1.00
C324   C     0.31697   0.82484   0.37083   0.00000  Uiso   1.00
C325   C     0.22856   0.82038   0.32133   0.00000  Uiso   1.00
C326   C     0.18585   0.76392   0.30691   0.00000  Uiso   1.00
C327   C     0.08706   0.68253   0.26493   0.00000  Uiso   1.00
C328   C     0.50983   0.87340   0.38366   0.00000  Uiso   1.00
C329   C     0.58358   0.90978   0.34496   0.00000  Uiso   1.00
C330   C     0.70324   0.89419   0.34135   0.00000  Uiso   1.00
C331   C     0.90389   0.88822   0.31934   0.00000  Uiso   1.00
C332   C     0.35784   0.88498   0.47186   0.00000  Uiso   1.00
C333   C     0.30382   0.93110   0.50733   0.00000  Uiso   1.00
C334   C     0.29554   0.92527   0.57799   0.00000  Uiso   1.00
C335   C     0.26021   0.93727   0.69292   0.00000  Uiso   1.00
C336   C     0.45767   0.78983   0.45695   0.00000  Uiso   1.00
C337   C     0.36117   0.77469   0.40473   0.00000  Uiso   1.00
C338   C     0.31859   0.71822   0.39039   0.00000  Uiso   1.00
C339   C     0.23013   0.71367   0.34088   0.00000  Uiso   1.00
C340   C     0.55403   0.82325   0.41756   0.00000  Uiso   1.00
C341   C     0.67361   0.80761   0.41402   0.00000  Uiso   1.00
C342   C     0.74752   0.84395   0.37532   0.00000  Uiso   1.00
C343   C     0.40204   0.83482   0.50577   0.00000  Uiso   1.00
C344   C     0.39385   0.82893   0.57639   0.00000  Uiso   1.00
C345   C     0.33983   0.87502   0.61196   0.00000  Uiso   1.00
H346   H     0.34188   0.92122   0.36813   0.00000  Uiso   1.00
H347   H     0.19438   0.85921   0.29510   0.00000  Uiso   1.00
H348   H     0.54935   0.94859   0.31873   0.00000  Uiso   1.00
H349   H     0.26963   0.96990   0.48108   0.00000  Uiso   1.00
H350   H     0.05037   0.76833   0.22906   0.00000  Uiso   1.00
H351   H     0.79885   0.95681   0.27891   0.00000  Uiso   1.00
H352   H     0.20901   0.00176   0.62125   0.00000  Uiso   1.00
H353   H     0.49208   0.75078   0.48335   0.00000  Uiso   1.00
H354   H     0.35281   0.67941   0.41664   0.00000  Uiso   1.00
H355   H     0.70779   0.76879   0.44027   0.00000  Uiso   1.00
H356   H     0.42807   0.79011   0.60261   0.00000  Uiso   1.00
H357   H     0.17896   0.62240   0.32770   0.00000  Uiso   1.00
H358   H     0.92745   0.81089   0.37756   0.00000  Uiso   1.00
H359   H     0.33761   0.85583   0.71989   0.00000  Uiso   1.00
O360   O     0.02037   0.65149   0.23240   0.00000  Uiso   1.00
O361   O     0.00235   0.89878   0.29782   0.00000  Uiso   1.00
O362   O     0.22849   0.95775   0.74695   0.00000  Uiso   1.00
N363   N     0.09973   0.74378   0.26144   0.00000  Uiso   1.00
N364   N     0.79951   0.92000   0.30804   0.00000  Uiso   1.00
N365   N     0.24809   0.96203   0.62810   0.00000  Uiso   1.00
N366   N     0.16892   0.66526   0.31452   0.00000  Uiso   1.00
N367   N     0.86871   0.84147   0.36112   0.00000  Uiso   1.00
N368   N     0.31728   0.88350   0.68118   0.00000  Uiso   1.00
