data_job_04977
_audit_creation_date              2018-12-19
_audit_creation_method            'Materials Studio'
_symmetry_space_group_name_H-M    'P1'
_symmetry_Int_Tables_number       1
_symmetry_cell_setting            triclinic
loop_
_symmetry_equiv_pos_as_xyz
  x,y,z
_cell_length_a                    13.5096
_cell_length_b                    9.6305
_cell_length_c                    17.1485
_cell_angle_alpha                 90.0000
_cell_angle_beta                  80.5494
_cell_angle_gamma                 90.0000
loop_
_atom_site_label
_atom_site_type_symbol
_atom_site_fract_x
_atom_site_fract_y
_atom_site_fract_z
_atom_site_U_iso_or_equiv
_atom_site_adp_type
_atom_site_occupancy
C1     C     0.67122   0.21693   0.92259   0.00000  Uiso   1.00
C2     C     0.69747   0.31782   0.85376   0.00000  Uiso   1.00
C3     C     0.63944   0.34398   0.79569   0.00000  Uiso   1.00
C4     C     0.67656   0.43989   0.73778   0.00000  Uiso   1.00
C5     C     0.70337   0.58627   0.63085   0.00000  Uiso   1.00
C6     C     0.75912   0.11605   0.91684   0.00000  Uiso   1.00
C7     C     0.75293   0.97257   0.91182   0.00000  Uiso   1.00
C8     C     0.84196   0.89864   0.90702   0.00000  Uiso   1.00
C9     C     0.96448   0.73177   0.89808   0.00000  Uiso   1.00
C10    C     0.67296   0.30175   0.99743   0.00000  Uiso   1.00
C11    C     0.59433   0.31439   0.06019   0.00000  Uiso   1.00
C12    C     0.61082   0.39678   0.12325   0.00000  Uiso   1.00
C13    C     0.59957   0.51824   0.23945   0.00000  Uiso   1.00
C14    C     0.84034   0.34075   0.92299   0.00000  Uiso   1.00
C15    C     0.78933   0.38507   0.85398   0.00000  Uiso   1.00
C16    C     0.82655   0.48098   0.79614   0.00000  Uiso   1.00
C17    C     0.76859   0.50728   0.73800   0.00000  Uiso   1.00
C18    C     0.85098   0.18330   0.91706   0.00000  Uiso   1.00
C19    C     0.94004   0.10957   0.91227   0.00000  Uiso   1.00
C20    C     0.93399   0.96602   0.90724   0.00000  Uiso   1.00
C21    C     0.76482   0.36902   0.99765   0.00000  Uiso   1.00
C22    C     0.78144   0.45140   0.06063   0.00000  Uiso   1.00
C23    C     0.70285   0.46416   0.12347   0.00000  Uiso   1.00
H24    H     0.59970   0.16455   0.92242   0.00000  Uiso   1.00
H25    H     0.56836   0.29189   0.79554   0.00000  Uiso   1.00
H26    H     0.68183   0.92055   0.91166   0.00000  Uiso   1.00
H27    H     0.52325   0.26232   0.06000   0.00000  Uiso   1.00
H28    H     0.57413   0.46270   0.65496   0.00000  Uiso   1.00
H29    H     0.81339   0.67970   0.89983   0.00000  Uiso   1.00
H30    H     0.47900   0.40038   0.21264   0.00000  Uiso   1.00
H31    H     0.91186   0.39312   0.92316   0.00000  Uiso   1.00
H32    H     0.89764   0.53301   0.79632   0.00000  Uiso   1.00
H33    H     0.01112   0.16166   0.91244   0.00000  Uiso   1.00
H34    H     0.85254   0.50343   0.06078   0.00000  Uiso   1.00
H35    H     0.84139   0.65839   0.65559   0.00000  Uiso   1.00
H36    H     0.08065   0.87538   0.90046   0.00000  Uiso   1.00
H37    H     0.74627   0.59608   0.21327   0.00000  Uiso   1.00
O38    O     0.69279   0.64841   0.57181   0.00000  Uiso   1.00
O39    O     0.00669   0.62114   0.89308   0.00000  Uiso   1.00
O40    O     0.56798   0.56667   0.30348   0.00000  Uiso   1.00
N41    N     0.63897   0.48958   0.67252   0.00000  Uiso   1.00
N42    N     0.86267   0.75752   0.90145   0.00000  Uiso   1.00
N43    N     0.55005   0.43127   0.19391   0.00000  Uiso   1.00
N44    N     0.78279   0.59488   0.67286   0.00000  Uiso   1.00
N45    N     0.00648   0.86282   0.90179   0.00000  Uiso   1.00
N46    N     0.69386   0.53657   0.19425   0.00000  Uiso   1.00
C47    C     0.32878   0.71693   0.57741   0.00000  Uiso   1.00
C48    C     0.30253   0.81782   0.64624   0.00000  Uiso   1.00
C49    C     0.36056   0.84398   0.70431   0.00000  Uiso   1.00
C50    C     0.32344   0.93989   0.76222   0.00000  Uiso   1.00
C51    C     0.29663   0.08627   0.86915   0.00000  Uiso   1.00
C52    C     0.24088   0.61605   0.58316   0.00000  Uiso   1.00
C53    C     0.24707   0.47257   0.58818   0.00000  Uiso   1.00
C54    C     0.15804   0.39864   0.59298   0.00000  Uiso   1.00
C55    C     0.03552   0.23177   0.60192   0.00000  Uiso   1.00
C56    C     0.32704   0.80175   0.50257   0.00000  Uiso   1.00
C57    C     0.40567   0.81439   0.43981   0.00000  Uiso   1.00
C58    C     0.38918   0.89678   0.37675   0.00000  Uiso   1.00
C59    C     0.40043   0.01824   0.26055   0.00000  Uiso   1.00
C60    C     0.15966   0.84075   0.57701   0.00000  Uiso   1.00
C61    C     0.21067   0.88507   0.64602   0.00000  Uiso   1.00
C62    C     0.17345   0.98098   0.70386   0.00000  Uiso   1.00
C63    C     0.23141   0.00728   0.76200   0.00000  Uiso   1.00
C64    C     0.14902   0.68330   0.58294   0.00000  Uiso   1.00
C65    C     0.05996   0.60957   0.58773   0.00000  Uiso   1.00
C66    C     0.06601   0.46602   0.59276   0.00000  Uiso   1.00
C67    C     0.23518   0.86902   0.50235   0.00000  Uiso   1.00
C68    C     0.21856   0.95140   0.43937   0.00000  Uiso   1.00
C69    C     0.29715   0.96416   0.37653   0.00000  Uiso   1.00
H70    H     0.40030   0.66455   0.57758   0.00000  Uiso   1.00
H71    H     0.43164   0.79189   0.70446   0.00000  Uiso   1.00
H72    H     0.31817   0.42055   0.58834   0.00000  Uiso   1.00
H73    H     0.47675   0.76232   0.44000   0.00000  Uiso   1.00
H74    H     0.42587   0.96270   0.84504   0.00000  Uiso   1.00
H75    H     0.18661   0.17970   0.60017   0.00000  Uiso   1.00
H76    H     0.52100   0.90038   0.28736   0.00000  Uiso   1.00
H77    H     0.08814   0.89312   0.57684   0.00000  Uiso   1.00
H78    H     0.10236   0.03301   0.70368   0.00000  Uiso   1.00
H79    H     0.98888   0.66166   0.58756   0.00000  Uiso   1.00
H80    H     0.14746   0.00343   0.43922   0.00000  Uiso   1.00
H81    H     0.15861   0.15839   0.84441   0.00000  Uiso   1.00
H82    H     0.91935   0.37538   0.59954   0.00000  Uiso   1.00
H83    H     0.25373   0.09608   0.28673   0.00000  Uiso   1.00
O84    O     0.30721   0.14841   0.92819   0.00000  Uiso   1.00
O85    O     0.99331   0.12114   0.60692   0.00000  Uiso   1.00
O86    O     0.43202   0.06667   0.19652   0.00000  Uiso   1.00
N87    N     0.36103   0.98958   0.82748   0.00000  Uiso   1.00
N88    N     0.13733   0.25752   0.59855   0.00000  Uiso   1.00
N89    N     0.44995   0.93127   0.30609   0.00000  Uiso   1.00
N90    N     0.21721   0.09488   0.82714   0.00000  Uiso   1.00
N91    N     0.99352   0.36282   0.59821   0.00000  Uiso   1.00
N92    N     0.30614   0.03657   0.30575   0.00000  Uiso   1.00
C93    C     0.32878   0.78307   0.07741   0.00000  Uiso   1.00
C94    C     0.30253   0.68218   0.14624   0.00000  Uiso   1.00
C95    C     0.36056   0.65602   0.20431   0.00000  Uiso   1.00
C96    C     0.32344   0.56011   0.26222   0.00000  Uiso   1.00
C97    C     0.29663   0.41373   0.36915   0.00000  Uiso   1.00
C98    C     0.24088   0.88395   0.08316   0.00000  Uiso   1.00
C99    C     0.24707   0.02743   0.08818   0.00000  Uiso   1.00
C100   C     0.15804   0.10136   0.09298   0.00000  Uiso   1.00
C101   C     0.03552   0.26823   0.10192   0.00000  Uiso   1.00
C102   C     0.32704   0.69825   0.00257   0.00000  Uiso   1.00
C103   C     0.40567   0.68561   0.93981   0.00000  Uiso   1.00
C104   C     0.38918   0.60322   0.87675   0.00000  Uiso   1.00
C105   C     0.40043   0.48176   0.76055   0.00000  Uiso   1.00
C106   C     0.15966   0.65925   0.07701   0.00000  Uiso   1.00
C107   C     0.21067   0.61493   0.14602   0.00000  Uiso   1.00
C108   C     0.17345   0.51902   0.20386   0.00000  Uiso   1.00
C109   C     0.23141   0.49272   0.26200   0.00000  Uiso   1.00
C110   C     0.14902   0.81670   0.08294   0.00000  Uiso   1.00
C111   C     0.05996   0.89043   0.08773   0.00000  Uiso   1.00
C112   C     0.06601   0.03398   0.09276   0.00000  Uiso   1.00
C113   C     0.23518   0.63098   0.00235   0.00000  Uiso   1.00
C114   C     0.21856   0.54860   0.93937   0.00000  Uiso   1.00
C115   C     0.29715   0.53584   0.87653   0.00000  Uiso   1.00
H116   H     0.40030   0.83545   0.07758   0.00000  Uiso   1.00
H117   H     0.43164   0.70811   0.20446   0.00000  Uiso   1.00
H118   H     0.31817   0.07945   0.08834   0.00000  Uiso   1.00
H119   H     0.47675   0.73768   0.94000   0.00000  Uiso   1.00
H120   H     0.42587   0.53730   0.34504   0.00000  Uiso   1.00
H121   H     0.18661   0.32030   0.10017   0.00000  Uiso   1.00
H122   H     0.52100   0.59962   0.78736   0.00000  Uiso   1.00
H123   H     0.08814   0.60688   0.07684   0.00000  Uiso   1.00
H124   H     0.10236   0.46699   0.20368   0.00000  Uiso   1.00
H125   H     0.98888   0.83834   0.08756   0.00000  Uiso   1.00
H126   H     0.14746   0.49657   0.93922   0.00000  Uiso   1.00
H127   H     0.15861   0.34161   0.34441   0.00000  Uiso   1.00
H128   H     0.91935   0.12462   0.09954   0.00000  Uiso   1.00
H129   H     0.25373   0.40392   0.78673   0.00000  Uiso   1.00
O130   O     0.30721   0.35159   0.42819   0.00000  Uiso   1.00
O131   O     0.99331   0.37886   0.10692   0.00000  Uiso   1.00
O132   O     0.43202   0.43333   0.69652   0.00000  Uiso   1.00
N133   N     0.36103   0.51042   0.32748   0.00000  Uiso   1.00
N134   N     0.13733   0.24248   0.09855   0.00000  Uiso   1.00
N135   N     0.44995   0.56873   0.80609   0.00000  Uiso   1.00
N136   N     0.21721   0.40512   0.32714   0.00000  Uiso   1.00
N137   N     0.99352   0.13718   0.09821   0.00000  Uiso   1.00
N138   N     0.30614   0.46343   0.80575   0.00000  Uiso   1.00
C139   C     0.67122   0.28307   0.42259   0.00000  Uiso   1.00
C140   C     0.69747   0.18218   0.35376   0.00000  Uiso   1.00
C141   C     0.63944   0.15602   0.29569   0.00000  Uiso   1.00
C142   C     0.67656   0.06011   0.23778   0.00000  Uiso   1.00
C143   C     0.70337   0.91373   0.13085   0.00000  Uiso   1.00
C144   C     0.75912   0.38395   0.41684   0.00000  Uiso   1.00
C145   C     0.75293   0.52743   0.41182   0.00000  Uiso   1.00
C146   C     0.84196   0.60136   0.40702   0.00000  Uiso   1.00
C147   C     0.96448   0.76823   0.39808   0.00000  Uiso   1.00
C148   C     0.67296   0.19825   0.49743   0.00000  Uiso   1.00
C149   C     0.59433   0.18561   0.56019   0.00000  Uiso   1.00
C150   C     0.61082   0.10322   0.62325   0.00000  Uiso   1.00
C151   C     0.59957   0.98176   0.73945   0.00000  Uiso   1.00
C152   C     0.84034   0.15925   0.42299   0.00000  Uiso   1.00
C153   C     0.78933   0.11493   0.35398   0.00000  Uiso   1.00
C154   C     0.82655   0.01902   0.29614   0.00000  Uiso   1.00
C155   C     0.76859   0.99272   0.23800   0.00000  Uiso   1.00
C156   C     0.85098   0.31670   0.41706   0.00000  Uiso   1.00
C157   C     0.94004   0.39043   0.41227   0.00000  Uiso   1.00
C158   C     0.93399   0.53398   0.40724   0.00000  Uiso   1.00
C159   C     0.76482   0.13098   0.49765   0.00000  Uiso   1.00
C160   C     0.78144   0.04860   0.56063   0.00000  Uiso   1.00
C161   C     0.70285   0.03584   0.62347   0.00000  Uiso   1.00
H162   H     0.59970   0.33545   0.42242   0.00000  Uiso   1.00
H163   H     0.56836   0.20811   0.29554   0.00000  Uiso   1.00
H164   H     0.68183   0.57945   0.41166   0.00000  Uiso   1.00
H165   H     0.52325   0.23768   0.56000   0.00000  Uiso   1.00
H166   H     0.57413   0.03730   0.15496   0.00000  Uiso   1.00
H167   H     0.81339   0.82030   0.39983   0.00000  Uiso   1.00
H168   H     0.47900   0.09962   0.71264   0.00000  Uiso   1.00
H169   H     0.91186   0.10688   0.42316   0.00000  Uiso   1.00
H170   H     0.89764   0.96699   0.29632   0.00000  Uiso   1.00
H171   H     0.01112   0.33834   0.41244   0.00000  Uiso   1.00
H172   H     0.85254   0.99657   0.56078   0.00000  Uiso   1.00
H173   H     0.84139   0.84161   0.15559   0.00000  Uiso   1.00
H174   H     0.08065   0.62462   0.40046   0.00000  Uiso   1.00
H175   H     0.74627   0.90392   0.71327   0.00000  Uiso   1.00
O176   O     0.69279   0.85159   0.07181   0.00000  Uiso   1.00
O177   O     0.00669   0.87886   0.39308   0.00000  Uiso   1.00
O178   O     0.56798   0.93333   0.80348   0.00000  Uiso   1.00
N179   N     0.63897   0.01042   0.17252   0.00000  Uiso   1.00
N180   N     0.86267   0.74248   0.40145   0.00000  Uiso   1.00
N181   N     0.55005   0.06873   0.69391   0.00000  Uiso   1.00
N182   N     0.78279   0.90512   0.17286   0.00000  Uiso   1.00
N183   N     0.00648   0.63718   0.40179   0.00000  Uiso   1.00
N184   N     0.69386   0.96343   0.69425   0.00000  Uiso   1.00
