data_job_02641
_audit_creation_date              2018-12-19
_audit_creation_method            'Materials Studio'
_symmetry_space_group_name_H-M    'P1'
_symmetry_Int_Tables_number       1
_symmetry_cell_setting            triclinic
loop_
_symmetry_equiv_pos_as_xyz
  x,y,z
_cell_length_a                    18.6031
_cell_length_b                    9.8017
_cell_length_c                    18.1663
_cell_angle_alpha                 90.0000
_cell_angle_beta                  113.8377
_cell_angle_gamma                 90.0000
loop_
_atom_site_label
_atom_site_type_symbol
_atom_site_fract_x
_atom_site_fract_y
_atom_site_fract_z
_atom_site_U_iso_or_equiv
_atom_site_adp_type
_atom_site_occupancy
C1     C     0.20151   0.88788   0.50952   0.00000  Uiso   1.00
C2     C     0.28670   0.83971   0.54318   0.00000  Uiso   1.00
C3     C     0.31851   0.74789   0.50641   0.00000  Uiso   1.00
C4     C     0.39770   0.71693   0.54696   0.00000  Uiso   1.00
C5     C     0.52303   0.63313   0.58789   0.00000  Uiso   1.00
C6     C     0.17095   0.85504   0.57378   0.00000  Uiso   1.00
C7     C     0.10543   0.77614   0.56272   0.00000  Uiso   1.00
C8     C     0.08718   0.75812   0.62902   0.00000  Uiso   1.00
C9     C     0.03277   0.69821   0.71743   0.00000  Uiso   1.00
C10    C     0.20447   0.04309   0.50577   0.00000  Uiso   1.00
C11    C     0.16712   0.12231   0.43753   0.00000  Uiso   1.00
C12    C     0.17707   0.26261   0.44658   0.00000  Uiso   1.00
C13    C     0.17471   0.49468   0.42940   0.00000  Uiso   1.00
C14    C     0.28557   0.99618   0.64692   0.00000  Uiso   1.00
C15    C     0.33236   0.89853   0.61782   0.00000  Uiso   1.00
C16    C     0.41152   0.86771   0.65843   0.00000  Uiso   1.00
C17    C     0.44344   0.77587   0.62172   0.00000  Uiso   1.00
C18    C     0.21661   0.91387   0.64841   0.00000  Uiso   1.00
C19    C     0.19844   0.89596   0.71473   0.00000  Uiso   1.00
C20    C     0.13292   0.81705   0.70378   0.00000  Uiso   1.00
C21    C     0.25013   0.10192   0.58040   0.00000  Uiso   1.00
C22    C     0.26013   0.24213   0.58955   0.00000  Uiso   1.00
C23    C     0.22281   0.32154   0.52134   0.00000  Uiso   1.00
H24    H     0.16595   0.84208   0.45142   0.00000  Uiso   1.00
H25    H     0.28315   0.70238   0.44866   0.00000  Uiso   1.00
H26    H     0.07011   0.73064   0.50496   0.00000  Uiso   1.00
H27    H     0.13179   0.07675   0.37979   0.00000  Uiso   1.00
H28    H     0.43322   0.57339   0.47852   0.00000  Uiso   1.00
H29    H     0.98398   0.63303   0.59722   0.00000  Uiso   1.00
H30    H     0.11405   0.36287   0.33329   0.00000  Uiso   1.00
H31    H     0.32112   0.04198   0.70503   0.00000  Uiso   1.00
H32    H     0.44684   0.91325   0.71618   0.00000  Uiso   1.00
H33    H     0.23379   0.94151   0.77248   0.00000  Uiso   1.00
H34    H     0.29547   0.28762   0.64731   0.00000  Uiso   1.00
H35    H     0.56607   0.74454   0.69565   0.00000  Uiso   1.00
H36    H     0.11683   0.80418   0.81435   0.00000  Uiso   1.00
H37    H     0.24690   0.53402   0.55042   0.00000  Uiso   1.00
O38    O     0.57954   0.57064   0.58986   0.00000  Uiso   1.00
O39    O     0.99015   0.64890   0.74558   0.00000  Uiso   1.00
O40    O     0.16080   0.60643   0.39931   0.00000  Uiso   1.00
N41    N     0.44724   0.63136   0.52809   0.00000  Uiso   1.00
N42    N     0.02723   0.68710   0.63906   0.00000  Uiso   1.00
N43    N     0.14882   0.36944   0.39231   0.00000  Uiso   1.00
N44    N     0.51873   0.72345   0.64492   0.00000  Uiso   1.00
N45    N     0.09872   0.77919   0.75590   0.00000  Uiso   1.00
N46    N     0.22031   0.46153   0.50915   0.00000  Uiso   1.00
C47    C     0.79849   0.38788   0.99048   0.00000  Uiso   1.00
C48    C     0.71330   0.33971   0.95682   0.00000  Uiso   1.00
C49    C     0.68149   0.24789   0.99359   0.00000  Uiso   1.00
C50    C     0.60230   0.21693   0.95304   0.00000  Uiso   1.00
C51    C     0.47697   0.13313   0.91211   0.00000  Uiso   1.00
C52    C     0.82905   0.35504   0.92622   0.00000  Uiso   1.00
C53    C     0.89457   0.27614   0.93728   0.00000  Uiso   1.00
C54    C     0.91282   0.25812   0.87098   0.00000  Uiso   1.00
C55    C     0.96723   0.19821   0.78257   0.00000  Uiso   1.00
C56    C     0.79553   0.54309   0.99423   0.00000  Uiso   1.00
C57    C     0.83288   0.62231   0.06247   0.00000  Uiso   1.00
C58    C     0.82293   0.76261   0.05342   0.00000  Uiso   1.00
C59    C     0.82529   0.99468   0.07060   0.00000  Uiso   1.00
C60    C     0.71443   0.49618   0.85308   0.00000  Uiso   1.00
C61    C     0.66764   0.39853   0.88218   0.00000  Uiso   1.00
C62    C     0.58848   0.36771   0.84157   0.00000  Uiso   1.00
C63    C     0.55656   0.27587   0.87828   0.00000  Uiso   1.00
C64    C     0.78339   0.41387   0.85159   0.00000  Uiso   1.00
C65    C     0.80156   0.39596   0.78527   0.00000  Uiso   1.00
C66    C     0.86708   0.31705   0.79622   0.00000  Uiso   1.00
C67    C     0.74987   0.60192   0.91960   0.00000  Uiso   1.00
C68    C     0.73987   0.74213   0.91045   0.00000  Uiso   1.00
C69    C     0.77719   0.82154   0.97866   0.00000  Uiso   1.00
H70    H     0.83405   0.34208   0.04858   0.00000  Uiso   1.00
H71    H     0.71685   0.20238   0.05134   0.00000  Uiso   1.00
H72    H     0.92989   0.23064   0.99504   0.00000  Uiso   1.00
H73    H     0.86821   0.57675   0.12021   0.00000  Uiso   1.00
H74    H     0.56678   0.07339   0.02148   0.00000  Uiso   1.00
H75    H     0.01602   0.13303   0.90278   0.00000  Uiso   1.00
H76    H     0.88595   0.86287   0.16671   0.00000  Uiso   1.00
H77    H     0.67888   0.54198   0.79497   0.00000  Uiso   1.00
H78    H     0.55316   0.41325   0.78382   0.00000  Uiso   1.00
H79    H     0.76621   0.44151   0.72752   0.00000  Uiso   1.00
H80    H     0.70453   0.78762   0.85269   0.00000  Uiso   1.00
H81    H     0.43393   0.24454   0.80435   0.00000  Uiso   1.00
H82    H     0.88317   0.30418   0.68565   0.00000  Uiso   1.00
H83    H     0.75310   0.03402   0.94958   0.00000  Uiso   1.00
O84    O     0.42046   0.07064   0.91014   0.00000  Uiso   1.00
O85    O     0.00985   0.14890   0.75442   0.00000  Uiso   1.00
O86    O     0.83920   0.10643   0.10069   0.00000  Uiso   1.00
N87    N     0.55276   0.13136   0.97191   0.00000  Uiso   1.00
N88    N     0.97277   0.18710   0.86094   0.00000  Uiso   1.00
N89    N     0.85118   0.86944   0.10769   0.00000  Uiso   1.00
N90    N     0.48127   0.22345   0.85508   0.00000  Uiso   1.00
N91    N     0.90128   0.27919   0.74410   0.00000  Uiso   1.00
N92    N     0.77969   0.96153   0.99085   0.00000  Uiso   1.00
C93    C     0.79849   0.11212   0.49048   0.00000  Uiso   1.00
C94    C     0.71330   0.16029   0.45682   0.00000  Uiso   1.00
C95    C     0.68149   0.25211   0.49359   0.00000  Uiso   1.00
C96    C     0.60230   0.28307   0.45304   0.00000  Uiso   1.00
C97    C     0.47697   0.36687   0.41211   0.00000  Uiso   1.00
C98    C     0.82905   0.14496   0.42622   0.00000  Uiso   1.00
C99    C     0.89457   0.22386   0.43728   0.00000  Uiso   1.00
C100   C     0.91282   0.24188   0.37098   0.00000  Uiso   1.00
C101   C     0.96723   0.30179   0.28257   0.00000  Uiso   1.00
C102   C     0.79553   0.95691   0.49423   0.00000  Uiso   1.00
C103   C     0.83288   0.87769   0.56247   0.00000  Uiso   1.00
C104   C     0.82293   0.73739   0.55342   0.00000  Uiso   1.00
C105   C     0.82529   0.50532   0.57060   0.00000  Uiso   1.00
C106   C     0.71443   0.00382   0.35308   0.00000  Uiso   1.00
C107   C     0.66764   0.10147   0.38218   0.00000  Uiso   1.00
C108   C     0.58848   0.13229   0.34157   0.00000  Uiso   1.00
C109   C     0.55656   0.22413   0.37828   0.00000  Uiso   1.00
C110   C     0.78339   0.08613   0.35159   0.00000  Uiso   1.00
C111   C     0.80156   0.10404   0.28527   0.00000  Uiso   1.00
C112   C     0.86708   0.18295   0.29622   0.00000  Uiso   1.00
C113   C     0.74987   0.89808   0.41960   0.00000  Uiso   1.00
C114   C     0.73987   0.75787   0.41045   0.00000  Uiso   1.00
C115   C     0.77719   0.67846   0.47866   0.00000  Uiso   1.00
H116   H     0.83405   0.15792   0.54858   0.00000  Uiso   1.00
H117   H     0.71685   0.29762   0.55134   0.00000  Uiso   1.00
H118   H     0.92989   0.26936   0.49504   0.00000  Uiso   1.00
H119   H     0.86821   0.92325   0.62021   0.00000  Uiso   1.00
H120   H     0.56678   0.42661   0.52148   0.00000  Uiso   1.00
H121   H     0.01602   0.36697   0.40278   0.00000  Uiso   1.00
H122   H     0.88595   0.63713   0.66671   0.00000  Uiso   1.00
H123   H     0.67888   0.95802   0.29497   0.00000  Uiso   1.00
H124   H     0.55316   0.08675   0.28382   0.00000  Uiso   1.00
H125   H     0.76621   0.05849   0.22752   0.00000  Uiso   1.00
H126   H     0.70453   0.71238   0.35269   0.00000  Uiso   1.00
H127   H     0.43393   0.25546   0.30435   0.00000  Uiso   1.00
H128   H     0.88317   0.19582   0.18565   0.00000  Uiso   1.00
H129   H     0.75310   0.46598   0.44958   0.00000  Uiso   1.00
O130   O     0.42046   0.42936   0.41014   0.00000  Uiso   1.00
O131   O     0.00985   0.35110   0.25442   0.00000  Uiso   1.00
O132   O     0.83920   0.39357   0.60069   0.00000  Uiso   1.00
N133   N     0.55276   0.36864   0.47191   0.00000  Uiso   1.00
N134   N     0.97277   0.31290   0.36094   0.00000  Uiso   1.00
N135   N     0.85118   0.63056   0.60769   0.00000  Uiso   1.00
N136   N     0.48127   0.27655   0.35508   0.00000  Uiso   1.00
N137   N     0.90128   0.22081   0.24410   0.00000  Uiso   1.00
N138   N     0.77969   0.53847   0.49085   0.00000  Uiso   1.00
C139   C     0.20151   0.61212   0.00952   0.00000  Uiso   1.00
C140   C     0.28670   0.66029   0.04318   0.00000  Uiso   1.00
C141   C     0.31851   0.75211   0.00641   0.00000  Uiso   1.00
C142   C     0.39770   0.78307   0.04696   0.00000  Uiso   1.00
C143   C     0.52303   0.86687   0.08789   0.00000  Uiso   1.00
C144   C     0.17095   0.64496   0.07378   0.00000  Uiso   1.00
C145   C     0.10543   0.72386   0.06272   0.00000  Uiso   1.00
C146   C     0.08718   0.74188   0.12902   0.00000  Uiso   1.00
C147   C     0.03277   0.80179   0.21743   0.00000  Uiso   1.00
C148   C     0.20447   0.45691   0.00577   0.00000  Uiso   1.00
C149   C     0.16712   0.37769   0.93753   0.00000  Uiso   1.00
C150   C     0.17707   0.23739   0.94658   0.00000  Uiso   1.00
C151   C     0.17471   0.00532   0.92940   0.00000  Uiso   1.00
C152   C     0.28557   0.50382   0.14692   0.00000  Uiso   1.00
C153   C     0.33236   0.60147   0.11782   0.00000  Uiso   1.00
C154   C     0.41152   0.63229   0.15843   0.00000  Uiso   1.00
C155   C     0.44344   0.72413   0.12172   0.00000  Uiso   1.00
C156   C     0.21661   0.58613   0.14841   0.00000  Uiso   1.00
C157   C     0.19844   0.60404   0.21473   0.00000  Uiso   1.00
C158   C     0.13292   0.68295   0.20378   0.00000  Uiso   1.00
C159   C     0.25013   0.39808   0.08040   0.00000  Uiso   1.00
C160   C     0.26013   0.25787   0.08955   0.00000  Uiso   1.00
C161   C     0.22281   0.17846   0.02134   0.00000  Uiso   1.00
H162   H     0.16595   0.65792   0.95142   0.00000  Uiso   1.00
H163   H     0.28315   0.79762   0.94866   0.00000  Uiso   1.00
H164   H     0.07011   0.76936   0.00496   0.00000  Uiso   1.00
H165   H     0.13179   0.42325   0.87979   0.00000  Uiso   1.00
H166   H     0.43322   0.92661   0.97852   0.00000  Uiso   1.00
H167   H     0.98398   0.86697   0.09722   0.00000  Uiso   1.00
H168   H     0.11405   0.13713   0.83329   0.00000  Uiso   1.00
H169   H     0.32112   0.45802   0.20503   0.00000  Uiso   1.00
H170   H     0.44684   0.58675   0.21618   0.00000  Uiso   1.00
H171   H     0.23379   0.55849   0.27248   0.00000  Uiso   1.00
H172   H     0.29547   0.21238   0.14731   0.00000  Uiso   1.00
H173   H     0.56607   0.75546   0.19565   0.00000  Uiso   1.00
H174   H     0.11683   0.69582   0.31435   0.00000  Uiso   1.00
H175   H     0.24690   0.96598   0.05042   0.00000  Uiso   1.00
O176   O     0.57954   0.92936   0.08986   0.00000  Uiso   1.00
O177   O     0.99015   0.85110   0.24558   0.00000  Uiso   1.00
O178   O     0.16080   0.89357   0.89931   0.00000  Uiso   1.00
N179   N     0.44724   0.86864   0.02809   0.00000  Uiso   1.00
N180   N     0.02723   0.81290   0.13906   0.00000  Uiso   1.00
N181   N     0.14882   0.13056   0.89231   0.00000  Uiso   1.00
N182   N     0.51873   0.77655   0.14492   0.00000  Uiso   1.00
N183   N     0.09872   0.72081   0.25590   0.00000  Uiso   1.00
N184   N     0.22031   0.03847   0.00915   0.00000  Uiso   1.00
