data_job_02635
_audit_creation_date              2018-12-19
_audit_creation_method            'Materials Studio'
_symmetry_space_group_name_H-M    'P1'
_symmetry_Int_Tables_number       1
_symmetry_cell_setting            triclinic
loop_
_symmetry_equiv_pos_as_xyz
  x,y,z
_cell_length_a                    20.2783
_cell_length_b                    10.5007
_cell_length_c                    27.5267
_cell_angle_alpha                 90.0000
_cell_angle_beta                  114.4032
_cell_angle_gamma                 90.0000
loop_
_atom_site_label
_atom_site_type_symbol
_atom_site_fract_x
_atom_site_fract_y
_atom_site_fract_z
_atom_site_U_iso_or_equiv
_atom_site_adp_type
_atom_site_occupancy
C1     C     0.11881   0.66710   0.17990   0.00000  Uiso   1.00
C2     C     0.11804   0.52720   0.19452   0.00000  Uiso   1.00
C3     C     0.13660   0.47988   0.24557   0.00000  Uiso   1.00
C4     C     0.13237   0.34892   0.25061   0.00000  Uiso   1.00
C5     C     0.13457   0.14395   0.28007   0.00000  Uiso   1.00
C6     C     0.16800   0.67553   0.15050   0.00000  Uiso   1.00
C7     C     0.22856   0.75294   0.16453   0.00000  Uiso   1.00
C8     C     0.26638   0.74685   0.13251   0.00000  Uiso   1.00
C9     C     0.34611   0.77224   0.09360   0.00000  Uiso   1.00
C10    C     0.04262   0.69685   0.13862   0.00000  Uiso   1.00
C11    C     0.99775   0.79220   0.14266   0.00000  Uiso   1.00
C12    C     0.93001   0.80408   0.10063   0.00000  Uiso   1.00
C13    C     0.81506   0.86257   0.04328   0.00000  Uiso   1.00
C14    C     0.07828   0.51867   0.09808   0.00000  Uiso   1.00
C15    C     0.09603   0.44658   0.15008   0.00000  Uiso   1.00
C16    C     0.09177   0.31565   0.15505   0.00000  Uiso   1.00
C17    C     0.11032   0.26815   0.20609   0.00000  Uiso   1.00
C18    C     0.14600   0.59491   0.10606   0.00000  Uiso   1.00
C19    C     0.18373   0.58872   0.07401   0.00000  Uiso   1.00
C20    C     0.24433   0.66609   0.08798   0.00000  Uiso   1.00
C21    C     0.02060   0.61622   0.09418   0.00000  Uiso   1.00
C22    C     0.95292   0.62797   0.05214   0.00000  Uiso   1.00
C23    C     0.90796   0.72332   0.05611   0.00000  Uiso   1.00
H24    H     0.13595   0.72987   0.21450   0.00000  Uiso   1.00
H25    H     0.15364   0.54230   0.27995   0.00000  Uiso   1.00
H26    H     0.24558   0.81533   0.19892   0.00000  Uiso   1.00
H27    H     0.01481   0.85457   0.17705   0.00000  Uiso   1.00
H28    H     0.16357   0.29879   0.33292   0.00000  Uiso   1.00
H29    H     0.35742   0.87452   0.16205   0.00000  Uiso   1.00
H30    H     0.87079   0.95728   0.11594   0.00000  Uiso   1.00
H31    H     0.06115   0.45590   0.06348   0.00000  Uiso   1.00
H32    H     0.07473   0.25329   0.12065   0.00000  Uiso   1.00
H33    H     0.16668   0.52632   0.03962   0.00000  Uiso   1.00
H34    H     0.93590   0.56556   0.01775   0.00000  Uiso   1.00
H35    H     0.09954   0.06421   0.20362   0.00000  Uiso   1.00
H36    H     0.29338   0.63995   0.03275   0.00000  Uiso   1.00
H37    H     0.80675   0.72270   0.98664   0.00000  Uiso   1.00
O38    O     0.14187   0.05316   0.30860   0.00000  Uiso   1.00
O39    O     0.39617   0.80851   0.08442   0.00000  Uiso   1.00
O40    O     0.75773   0.91708   0.02393   0.00000  Uiso   1.00
N41    N     0.14662   0.27139   0.29464   0.00000  Uiso   1.00
N42    N     0.32787   0.80965   0.13489   0.00000  Uiso   1.00
N43    N     0.87291   0.88704   0.09178   0.00000  Uiso   1.00
N44    N     0.11217   0.14517   0.22507   0.00000  Uiso   1.00
N45    N     0.29341   0.68342   0.06532   0.00000  Uiso   1.00
N46    N     0.83845   0.76082   0.02221   0.00000  Uiso   1.00
C47    C     0.64479   0.15215   0.19551   0.00000  Uiso   1.00
C48    C     0.65835   0.01210   0.21113   0.00000  Uiso   1.00
C49    C     0.69112   0.96542   0.26284   0.00000  Uiso   1.00
C50    C     0.69855   0.83420   0.26876   0.00000  Uiso   1.00
C51    C     0.72337   0.62915   0.29975   0.00000  Uiso   1.00
C52    C     0.68148   0.17727   0.15798   0.00000  Uiso   1.00
C53    C     0.73368   0.26946   0.16499   0.00000  Uiso   1.00
C54    C     0.76057   0.27729   0.12617   0.00000  Uiso   1.00
C55    C     0.82126   0.32872   0.07462   0.00000  Uiso   1.00
C56    C     0.56365   0.16426   0.16162   0.00000  Uiso   1.00
C57    C     0.51678   0.24555   0.17167   0.00000  Uiso   1.00
C58    C     0.44447   0.24244   0.13590   0.00000  Uiso   1.00
C59    C     0.32221   0.27368   0.08998   0.00000  Uiso   1.00
C60    C     0.59972   0.00212   0.11409   0.00000  Uiso   1.00
C61    C     0.63388   0.93062   0.16691   0.00000  Uiso   1.00
C62    C     0.64126   0.79943   0.17275   0.00000  Uiso   1.00
C63    C     0.67402   0.75256   0.22446   0.00000  Uiso   1.00
C64    C     0.65701   0.09578   0.11376   0.00000  Uiso   1.00
C65    C     0.68382   0.10348   0.07491   0.00000  Uiso   1.00
C66    C     0.73605   0.19565   0.08186   0.00000  Uiso   1.00
C67    C     0.53917   0.08277   0.11739   0.00000  Uiso   1.00
C68    C     0.46692   0.07955   0.08159   0.00000  Uiso   1.00
C69    C     0.41995   0.16081   0.09159   0.00000  Uiso   1.00
H70    H     0.66385   0.21559   0.22994   0.00000  Uiso   1.00
H71    H     0.71006   0.02851   0.29705   0.00000  Uiso   1.00
H72    H     0.75261   0.33252   0.19922   0.00000  Uiso   1.00
H73    H     0.53574   0.30859   0.20590   0.00000  Uiso   1.00
H74    H     0.75052   0.78517   0.35196   0.00000  Uiso   1.00
H75    H     0.84022   0.42621   0.14566   0.00000  Uiso   1.00
H76    H     0.38292   0.37576   0.15974   0.00000  Uiso   1.00
H77    H     0.58066   0.93868   0.07966   0.00000  Uiso   1.00
H78    H     0.62231   0.73640   0.13852   0.00000  Uiso   1.00
H79    H     0.66486   0.04041   0.04069   0.00000  Uiso   1.00
H80    H     0.44800   0.01648   0.04737   0.00000  Uiso   1.00
H81    H     0.67931   0.54808   0.22329   0.00000  Uiso   1.00
H82    H     0.76900   0.18912   0.01699   0.00000  Uiso   1.00
H83    H     0.31170   0.13867   0.03108   0.00000  Uiso   1.00
O84    O     0.74383   0.53856   0.32906   0.00000  Uiso   1.00
O85    O     0.86150   0.37959   0.05841   0.00000  Uiso   1.00
O86    O     0.26153   0.31340   0.07688   0.00000  Uiso   1.00
N87    N     0.72803   0.75713   0.31360   0.00000  Uiso   1.00
N88    N     0.81190   0.35645   0.12073   0.00000  Uiso   1.00
N89    N     0.38437   0.30931   0.13388   0.00000  Uiso   1.00
N90    N     0.68971   0.62955   0.24436   0.00000  Uiso   1.00
N91    N     0.77358   0.22887   0.05149   0.00000  Uiso   1.00
N92    N     0.34604   0.18173   0.06465   0.00000  Uiso   1.00
C93    C     0.88119   0.16710   0.32010   0.00000  Uiso   1.00
C94    C     0.88196   0.02720   0.30548   0.00000  Uiso   1.00
C95    C     0.86340   0.97988   0.25443   0.00000  Uiso   1.00
C96    C     0.86763   0.84892   0.24939   0.00000  Uiso   1.00
C97    C     0.86543   0.64395   0.21993   0.00000  Uiso   1.00
C98    C     0.83200   0.17553   0.34950   0.00000  Uiso   1.00
C99    C     0.77144   0.25294   0.33547   0.00000  Uiso   1.00
C100   C     0.73362   0.24685   0.36749   0.00000  Uiso   1.00
C101   C     0.65389   0.27224   0.40640   0.00000  Uiso   1.00
C102   C     0.95738   0.19685   0.36138   0.00000  Uiso   1.00
C103   C     0.00225   0.29220   0.35734   0.00000  Uiso   1.00
C104   C     0.06999   0.30408   0.39937   0.00000  Uiso   1.00
C105   C     0.18494   0.36257   0.45672   0.00000  Uiso   1.00
C106   C     0.92172   0.01867   0.40192   0.00000  Uiso   1.00
C107   C     0.90397   0.94658   0.34992   0.00000  Uiso   1.00
C108   C     0.90823   0.81565   0.34495   0.00000  Uiso   1.00
C109   C     0.88968   0.76815   0.29391   0.00000  Uiso   1.00
C110   C     0.85400   0.09491   0.39394   0.00000  Uiso   1.00
C111   C     0.81627   0.08872   0.42599   0.00000  Uiso   1.00
C112   C     0.75567   0.16609   0.41202   0.00000  Uiso   1.00
C113   C     0.97940   0.11622   0.40582   0.00000  Uiso   1.00
C114   C     0.04708   0.12797   0.44786   0.00000  Uiso   1.00
C115   C     0.09204   0.22332   0.44389   0.00000  Uiso   1.00
H116   H     0.86405   0.22987   0.28550   0.00000  Uiso   1.00
H117   H     0.84636   0.04230   0.22005   0.00000  Uiso   1.00
H118   H     0.75442   0.31533   0.30108   0.00000  Uiso   1.00
H119   H     0.98519   0.35457   0.32295   0.00000  Uiso   1.00
H120   H     0.83643   0.79879   0.16708   0.00000  Uiso   1.00
H121   H     0.64258   0.37452   0.33795   0.00000  Uiso   1.00
H122   H     0.12921   0.45728   0.38406   0.00000  Uiso   1.00
H123   H     0.93885   0.95590   0.43652   0.00000  Uiso   1.00
H124   H     0.92527   0.75329   0.37935   0.00000  Uiso   1.00
H125   H     0.83332   0.02632   0.46038   0.00000  Uiso   1.00
H126   H     0.06410   0.06556   0.48225   0.00000  Uiso   1.00
H127   H     0.90046   0.56421   0.29638   0.00000  Uiso   1.00
H128   H     0.70662   0.13995   0.46725   0.00000  Uiso   1.00
H129   H     0.19325   0.22270   0.51336   0.00000  Uiso   1.00
O130   O     0.85813   0.55316   0.19140   0.00000  Uiso   1.00
O131   O     0.60383   0.30851   0.41558   0.00000  Uiso   1.00
O132   O     0.24227   0.41708   0.47607   0.00000  Uiso   1.00
N133   N     0.85338   0.77139   0.20536   0.00000  Uiso   1.00
N134   N     0.67213   0.30965   0.36511   0.00000  Uiso   1.00
N135   N     0.12709   0.38704   0.40822   0.00000  Uiso   1.00
N136   N     0.88783   0.64517   0.27493   0.00000  Uiso   1.00
N137   N     0.70659   0.18342   0.43468   0.00000  Uiso   1.00
N138   N     0.16155   0.26082   0.47779   0.00000  Uiso   1.00
C139   C     0.35521   0.65215   0.30449   0.00000  Uiso   1.00
C140   C     0.34165   0.51210   0.28887   0.00000  Uiso   1.00
C141   C     0.30888   0.46542   0.23716   0.00000  Uiso   1.00
C142   C     0.30145   0.33420   0.23124   0.00000  Uiso   1.00
C143   C     0.27663   0.12915   0.20025   0.00000  Uiso   1.00
C144   C     0.31852   0.67727   0.34202   0.00000  Uiso   1.00
C145   C     0.26632   0.76946   0.33501   0.00000  Uiso   1.00
C146   C     0.23943   0.77729   0.37383   0.00000  Uiso   1.00
C147   C     0.17874   0.82872   0.42538   0.00000  Uiso   1.00
C148   C     0.43635   0.66426   0.33838   0.00000  Uiso   1.00
C149   C     0.48322   0.74555   0.32833   0.00000  Uiso   1.00
C150   C     0.55553   0.74244   0.36410   0.00000  Uiso   1.00
C151   C     0.67779   0.77368   0.41002   0.00000  Uiso   1.00
C152   C     0.40028   0.50212   0.38591   0.00000  Uiso   1.00
C153   C     0.36612   0.43062   0.33309   0.00000  Uiso   1.00
C154   C     0.35874   0.29943   0.32725   0.00000  Uiso   1.00
C155   C     0.32598   0.25256   0.27554   0.00000  Uiso   1.00
C156   C     0.34299   0.59578   0.38624   0.00000  Uiso   1.00
C157   C     0.31618   0.60348   0.42509   0.00000  Uiso   1.00
C158   C     0.26395   0.69565   0.41814   0.00000  Uiso   1.00
C159   C     0.46083   0.58277   0.38261   0.00000  Uiso   1.00
C160   C     0.53308   0.57955   0.41841   0.00000  Uiso   1.00
C161   C     0.58005   0.66081   0.40841   0.00000  Uiso   1.00
H162   H     0.33615   0.71559   0.27006   0.00000  Uiso   1.00
H163   H     0.28994   0.52851   0.20295   0.00000  Uiso   1.00
H164   H     0.24739   0.83252   0.30078   0.00000  Uiso   1.00
H165   H     0.46426   0.80859   0.29410   0.00000  Uiso   1.00
H166   H     0.24948   0.28517   0.14804   0.00000  Uiso   1.00
H167   H     0.15978   0.92621   0.35434   0.00000  Uiso   1.00
H168   H     0.61708   0.87576   0.34026   0.00000  Uiso   1.00
H169   H     0.41934   0.43868   0.42034   0.00000  Uiso   1.00
H170   H     0.37769   0.23640   0.36148   0.00000  Uiso   1.00
H171   H     0.33514   0.54041   0.45931   0.00000  Uiso   1.00
H172   H     0.55200   0.51648   0.45263   0.00000  Uiso   1.00
H173   H     0.32069   0.04808   0.27671   0.00000  Uiso   1.00
H174   H     0.23100   0.68912   0.48301   0.00000  Uiso   1.00
H175   H     0.68830   0.63867   0.46892   0.00000  Uiso   1.00
O176   O     0.25617   0.03856   0.17094   0.00000  Uiso   1.00
O177   O     0.13850   0.87959   0.44159   0.00000  Uiso   1.00
O178   O     0.73847   0.81340   0.42312   0.00000  Uiso   1.00
N179   N     0.27197   0.25713   0.18640   0.00000  Uiso   1.00
N180   N     0.18810   0.85645   0.37927   0.00000  Uiso   1.00
N181   N     0.61563   0.80931   0.36612   0.00000  Uiso   1.00
N182   N     0.31029   0.12955   0.25564   0.00000  Uiso   1.00
N183   N     0.22642   0.72887   0.44851   0.00000  Uiso   1.00
N184   N     0.65396   0.68173   0.43535   0.00000  Uiso   1.00
C185   C     0.88119   0.33290   0.82010   0.00000  Uiso   1.00
C186   C     0.88196   0.47280   0.80548   0.00000  Uiso   1.00
C187   C     0.86340   0.52012   0.75443   0.00000  Uiso   1.00
C188   C     0.86763   0.65108   0.74939   0.00000  Uiso   1.00
C189   C     0.86543   0.85605   0.71993   0.00000  Uiso   1.00
C190   C     0.83200   0.32447   0.84950   0.00000  Uiso   1.00
C191   C     0.77144   0.24706   0.83547   0.00000  Uiso   1.00
C192   C     0.73362   0.25315   0.86749   0.00000  Uiso   1.00
C193   C     0.65389   0.22776   0.90640   0.00000  Uiso   1.00
C194   C     0.95738   0.30315   0.86138   0.00000  Uiso   1.00
C195   C     0.00225   0.20780   0.85734   0.00000  Uiso   1.00
C196   C     0.06999   0.19592   0.89937   0.00000  Uiso   1.00
C197   C     0.18494   0.13743   0.95672   0.00000  Uiso   1.00
C198   C     0.92172   0.48133   0.90192   0.00000  Uiso   1.00
C199   C     0.90397   0.55342   0.84992   0.00000  Uiso   1.00
C200   C     0.90823   0.68435   0.84495   0.00000  Uiso   1.00
C201   C     0.88968   0.73185   0.79391   0.00000  Uiso   1.00
C202   C     0.85400   0.40509   0.89394   0.00000  Uiso   1.00
C203   C     0.81627   0.41128   0.92599   0.00000  Uiso   1.00
C204   C     0.75567   0.33391   0.91202   0.00000  Uiso   1.00
C205   C     0.97940   0.38378   0.90582   0.00000  Uiso   1.00
C206   C     0.04708   0.37203   0.94786   0.00000  Uiso   1.00
C207   C     0.09204   0.27668   0.94389   0.00000  Uiso   1.00
H208   H     0.86405   0.27013   0.78550   0.00000  Uiso   1.00
H209   H     0.84636   0.45770   0.72005   0.00000  Uiso   1.00
H210   H     0.75442   0.18467   0.80108   0.00000  Uiso   1.00
H211   H     0.98519   0.14543   0.82295   0.00000  Uiso   1.00
H212   H     0.83643   0.70121   0.66708   0.00000  Uiso   1.00
H213   H     0.64258   0.12548   0.83795   0.00000  Uiso   1.00
H214   H     0.12921   0.04272   0.88406   0.00000  Uiso   1.00
H215   H     0.93885   0.54410   0.93652   0.00000  Uiso   1.00
H216   H     0.92527   0.74671   0.87935   0.00000  Uiso   1.00
H217   H     0.83332   0.47368   0.96038   0.00000  Uiso   1.00
H218   H     0.06410   0.43444   0.98225   0.00000  Uiso   1.00
H219   H     0.90046   0.93579   0.79638   0.00000  Uiso   1.00
H220   H     0.70662   0.36005   0.96725   0.00000  Uiso   1.00
H221   H     0.19325   0.27730   0.01336   0.00000  Uiso   1.00
O222   O     0.85813   0.94684   0.69140   0.00000  Uiso   1.00
O223   O     0.60383   0.19149   0.91558   0.00000  Uiso   1.00
O224   O     0.24227   0.08292   0.97607   0.00000  Uiso   1.00
N225   N     0.85338   0.72861   0.70536   0.00000  Uiso   1.00
N226   N     0.67213   0.19035   0.86511   0.00000  Uiso   1.00
N227   N     0.12709   0.11296   0.90822   0.00000  Uiso   1.00
N228   N     0.88783   0.85483   0.77493   0.00000  Uiso   1.00
N229   N     0.70659   0.31658   0.93468   0.00000  Uiso   1.00
N230   N     0.16155   0.23918   0.97779   0.00000  Uiso   1.00
C231   C     0.35521   0.84785   0.80449   0.00000  Uiso   1.00
C232   C     0.34165   0.98790   0.78887   0.00000  Uiso   1.00
C233   C     0.30888   0.03458   0.73716   0.00000  Uiso   1.00
C234   C     0.30145   0.16580   0.73124   0.00000  Uiso   1.00
C235   C     0.27663   0.37085   0.70025   0.00000  Uiso   1.00
C236   C     0.31852   0.82273   0.84202   0.00000  Uiso   1.00
C237   C     0.26632   0.73054   0.83501   0.00000  Uiso   1.00
C238   C     0.23943   0.72271   0.87383   0.00000  Uiso   1.00
C239   C     0.17874   0.67128   0.92538   0.00000  Uiso   1.00
C240   C     0.43635   0.83574   0.83838   0.00000  Uiso   1.00
C241   C     0.48322   0.75445   0.82833   0.00000  Uiso   1.00
C242   C     0.55553   0.75756   0.86410   0.00000  Uiso   1.00
C243   C     0.67779   0.72632   0.91002   0.00000  Uiso   1.00
C244   C     0.40028   0.99788   0.88591   0.00000  Uiso   1.00
C245   C     0.36612   0.06938   0.83309   0.00000  Uiso   1.00
C246   C     0.35874   0.20057   0.82725   0.00000  Uiso   1.00
C247   C     0.32598   0.24744   0.77554   0.00000  Uiso   1.00
C248   C     0.34299   0.90422   0.88624   0.00000  Uiso   1.00
C249   C     0.31618   0.89652   0.92509   0.00000  Uiso   1.00
C250   C     0.26395   0.80435   0.91814   0.00000  Uiso   1.00
C251   C     0.46083   0.91723   0.88261   0.00000  Uiso   1.00
C252   C     0.53308   0.92045   0.91841   0.00000  Uiso   1.00
C253   C     0.58005   0.83919   0.90841   0.00000  Uiso   1.00
H254   H     0.33615   0.78441   0.77006   0.00000  Uiso   1.00
H255   H     0.28994   0.97149   0.70295   0.00000  Uiso   1.00
H256   H     0.24739   0.66748   0.80078   0.00000  Uiso   1.00
H257   H     0.46426   0.69141   0.79410   0.00000  Uiso   1.00
H258   H     0.24948   0.21483   0.64804   0.00000  Uiso   1.00
H259   H     0.15978   0.57379   0.85434   0.00000  Uiso   1.00
H260   H     0.61708   0.62424   0.84026   0.00000  Uiso   1.00
H261   H     0.41934   0.06132   0.92034   0.00000  Uiso   1.00
H262   H     0.37769   0.26360   0.86148   0.00000  Uiso   1.00
H263   H     0.33514   0.95959   0.95931   0.00000  Uiso   1.00
H264   H     0.55200   0.98352   0.95263   0.00000  Uiso   1.00
H265   H     0.32069   0.45192   0.77671   0.00000  Uiso   1.00
H266   H     0.23100   0.81088   0.98301   0.00000  Uiso   1.00
H267   H     0.68830   0.86133   0.96892   0.00000  Uiso   1.00
O268   O     0.25617   0.46144   0.67094   0.00000  Uiso   1.00
O269   O     0.13850   0.62041   0.94159   0.00000  Uiso   1.00
O270   O     0.73847   0.68660   0.92312   0.00000  Uiso   1.00
N271   N     0.27197   0.24287   0.68640   0.00000  Uiso   1.00
N272   N     0.18810   0.64355   0.87927   0.00000  Uiso   1.00
N273   N     0.61563   0.69069   0.86612   0.00000  Uiso   1.00
N274   N     0.31029   0.37045   0.75564   0.00000  Uiso   1.00
N275   N     0.22642   0.77113   0.94851   0.00000  Uiso   1.00
N276   N     0.65396   0.81827   0.93535   0.00000  Uiso   1.00
C277   C     0.11881   0.83290   0.67990   0.00000  Uiso   1.00
C278   C     0.11804   0.97280   0.69452   0.00000  Uiso   1.00
C279   C     0.13660   0.02012   0.74557   0.00000  Uiso   1.00
C280   C     0.13237   0.15108   0.75061   0.00000  Uiso   1.00
C281   C     0.13457   0.35605   0.78007   0.00000  Uiso   1.00
C282   C     0.16800   0.82447   0.65050   0.00000  Uiso   1.00
C283   C     0.22856   0.74706   0.66453   0.00000  Uiso   1.00
C284   C     0.26638   0.75315   0.63251   0.00000  Uiso   1.00
C285   C     0.34611   0.72776   0.59360   0.00000  Uiso   1.00
C286   C     0.04262   0.80315   0.63862   0.00000  Uiso   1.00
C287   C     0.99775   0.70780   0.64266   0.00000  Uiso   1.00
C288   C     0.93001   0.69592   0.60063   0.00000  Uiso   1.00
C289   C     0.81506   0.63743   0.54328   0.00000  Uiso   1.00
C290   C     0.07828   0.98133   0.59808   0.00000  Uiso   1.00
C291   C     0.09603   0.05342   0.65008   0.00000  Uiso   1.00
C292   C     0.09177   0.18435   0.65505   0.00000  Uiso   1.00
C293   C     0.11032   0.23185   0.70609   0.00000  Uiso   1.00
C294   C     0.14600   0.90509   0.60606   0.00000  Uiso   1.00
C295   C     0.18373   0.91128   0.57401   0.00000  Uiso   1.00
C296   C     0.24433   0.83391   0.58798   0.00000  Uiso   1.00
C297   C     0.02060   0.88378   0.59418   0.00000  Uiso   1.00
C298   C     0.95292   0.87203   0.55214   0.00000  Uiso   1.00
C299   C     0.90796   0.77668   0.55611   0.00000  Uiso   1.00
H300   H     0.13595   0.77013   0.71450   0.00000  Uiso   1.00
H301   H     0.15364   0.95770   0.77995   0.00000  Uiso   1.00
H302   H     0.24558   0.68467   0.69892   0.00000  Uiso   1.00
H303   H     0.01481   0.64543   0.67705   0.00000  Uiso   1.00
H304   H     0.16357   0.20121   0.83292   0.00000  Uiso   1.00
H305   H     0.35742   0.62548   0.66205   0.00000  Uiso   1.00
H306   H     0.87079   0.54272   0.61594   0.00000  Uiso   1.00
H307   H     0.06115   0.04410   0.56348   0.00000  Uiso   1.00
H308   H     0.07473   0.24671   0.62065   0.00000  Uiso   1.00
H309   H     0.16668   0.97368   0.53962   0.00000  Uiso   1.00
H310   H     0.93590   0.93444   0.51775   0.00000  Uiso   1.00
H311   H     0.09954   0.43579   0.70362   0.00000  Uiso   1.00
H312   H     0.29338   0.86005   0.53275   0.00000  Uiso   1.00
H313   H     0.80675   0.77730   0.48664   0.00000  Uiso   1.00
O314   O     0.14187   0.44684   0.80860   0.00000  Uiso   1.00
O315   O     0.39617   0.69149   0.58442   0.00000  Uiso   1.00
O316   O     0.75773   0.58292   0.52393   0.00000  Uiso   1.00
N317   N     0.14662   0.22861   0.79464   0.00000  Uiso   1.00
N318   N     0.32787   0.69035   0.63489   0.00000  Uiso   1.00
N319   N     0.87291   0.61296   0.59178   0.00000  Uiso   1.00
N320   N     0.11217   0.35483   0.72507   0.00000  Uiso   1.00
N321   N     0.29341   0.81658   0.56532   0.00000  Uiso   1.00
N322   N     0.83845   0.73918   0.52221   0.00000  Uiso   1.00
C323   C     0.64479   0.34785   0.69551   0.00000  Uiso   1.00
C324   C     0.65835   0.48790   0.71113   0.00000  Uiso   1.00
C325   C     0.69112   0.53458   0.76284   0.00000  Uiso   1.00
C326   C     0.69855   0.66580   0.76876   0.00000  Uiso   1.00
C327   C     0.72337   0.87085   0.79975   0.00000  Uiso   1.00
C328   C     0.68148   0.32273   0.65798   0.00000  Uiso   1.00
C329   C     0.73368   0.23054   0.66499   0.00000  Uiso   1.00
C330   C     0.76057   0.22271   0.62617   0.00000  Uiso   1.00
C331   C     0.82126   0.17128   0.57462   0.00000  Uiso   1.00
C332   C     0.56365   0.33574   0.66162   0.00000  Uiso   1.00
C333   C     0.51678   0.25445   0.67167   0.00000  Uiso   1.00
C334   C     0.44447   0.25756   0.63590   0.00000  Uiso   1.00
C335   C     0.32221   0.22632   0.58998   0.00000  Uiso   1.00
C336   C     0.59972   0.49788   0.61409   0.00000  Uiso   1.00
C337   C     0.63388   0.56938   0.66691   0.00000  Uiso   1.00
C338   C     0.64126   0.70057   0.67275   0.00000  Uiso   1.00
C339   C     0.67402   0.74744   0.72446   0.00000  Uiso   1.00
C340   C     0.65701   0.40422   0.61376   0.00000  Uiso   1.00
C341   C     0.68382   0.39652   0.57491   0.00000  Uiso   1.00
C342   C     0.73605   0.30435   0.58186   0.00000  Uiso   1.00
C343   C     0.53917   0.41723   0.61739   0.00000  Uiso   1.00
C344   C     0.46692   0.42045   0.58159   0.00000  Uiso   1.00
C345   C     0.41995   0.33919   0.59159   0.00000  Uiso   1.00
H346   H     0.66385   0.28441   0.72994   0.00000  Uiso   1.00
H347   H     0.71006   0.47149   0.79705   0.00000  Uiso   1.00
H348   H     0.75261   0.16748   0.69922   0.00000  Uiso   1.00
H349   H     0.53574   0.19141   0.70590   0.00000  Uiso   1.00
H350   H     0.75052   0.71483   0.85196   0.00000  Uiso   1.00
H351   H     0.84022   0.07379   0.64566   0.00000  Uiso   1.00
H352   H     0.38292   0.12424   0.65974   0.00000  Uiso   1.00
H353   H     0.58066   0.56132   0.57966   0.00000  Uiso   1.00
H354   H     0.62231   0.76360   0.63852   0.00000  Uiso   1.00
H355   H     0.66486   0.45959   0.54069   0.00000  Uiso   1.00
H356   H     0.44800   0.48352   0.54737   0.00000  Uiso   1.00
H357   H     0.67931   0.95192   0.72329   0.00000  Uiso   1.00
H358   H     0.76900   0.31088   0.51699   0.00000  Uiso   1.00
H359   H     0.31170   0.36133   0.53108   0.00000  Uiso   1.00
O360   O     0.74383   0.96144   0.82906   0.00000  Uiso   1.00
O361   O     0.86150   0.12041   0.55841   0.00000  Uiso   1.00
O362   O     0.26153   0.18660   0.57688   0.00000  Uiso   1.00
N363   N     0.72803   0.74287   0.81360   0.00000  Uiso   1.00
N364   N     0.81190   0.14355   0.62073   0.00000  Uiso   1.00
N365   N     0.38437   0.19069   0.63388   0.00000  Uiso   1.00
N366   N     0.68971   0.87045   0.74436   0.00000  Uiso   1.00
N367   N     0.77358   0.27113   0.55149   0.00000  Uiso   1.00
N368   N     0.34604   0.31827   0.56465   0.00000  Uiso   1.00
