data_job_03281
_audit_creation_date              2018-12-19
_audit_creation_method            'Materials Studio'
_symmetry_space_group_name_H-M    'P1'
_symmetry_Int_Tables_number       1
_symmetry_cell_setting            triclinic
loop_
_symmetry_equiv_pos_as_xyz
  x,y,z
_cell_length_a                    12.0567
_cell_length_b                    14.9163
_cell_length_c                    16.2343
_cell_angle_alpha                 90.0000
_cell_angle_beta                  118.8814
_cell_angle_gamma                 90.0000
loop_
_atom_site_label
_atom_site_type_symbol
_atom_site_fract_x
_atom_site_fract_y
_atom_site_fract_z
_atom_site_U_iso_or_equiv
_atom_site_adp_type
_atom_site_occupancy
C1     C     0.79228   0.29716   0.41814   0.00000  Uiso   1.00
C2     C     0.75131   0.19924   0.39922   0.00000  Uiso   1.00
C3     C     0.65755   0.15973   0.41325   0.00000  Uiso   1.00
C4     C     0.63416   0.06926   0.39168   0.00000  Uiso   1.00
C5     C     0.56015   0.92469   0.36748   0.00000  Uiso   1.00
C6     C     0.77700   0.33429   0.32571   0.00000  Uiso   1.00
C7     C     0.70486   0.40834   0.27795   0.00000  Uiso   1.00
C8     C     0.70311   0.43157   0.19451   0.00000  Uiso   1.00
C9     C     0.66908   0.49671   0.05622   0.00000  Uiso   1.00
C10    C     0.93431   0.29602   0.48615   0.00000  Uiso   1.00
C11    C     0.99444   0.33790   0.57327   0.00000  Uiso   1.00
C12    C     0.12514   0.32892   0.62491   0.00000  Uiso   1.00
C13    C     0.33534   0.33463   0.73572   0.00000  Uiso   1.00
C14    C     0.91747   0.20677   0.35489   0.00000  Uiso   1.00
C15    C     0.81930   0.15014   0.36486   0.00000  Uiso   1.00
C16    C     0.79605   0.05971   0.34327   0.00000  Uiso   1.00
C17    C     0.70228   0.02007   0.35727   0.00000  Uiso   1.00
C18    C     0.84499   0.28520   0.29135   0.00000  Uiso   1.00
C19    C     0.84337   0.30832   0.20797   0.00000  Uiso   1.00
C20    C     0.77123   0.38238   0.16009   0.00000  Uiso   1.00
C21    C     0.00231   0.24692   0.45180   0.00000  Uiso   1.00
C22    C     0.13294   0.23788   0.50330   0.00000  Uiso   1.00
C23    C     0.19326   0.27974   0.59049   0.00000  Uiso   1.00
H24    H     0.73934   0.33540   0.44488   0.00000  Uiso   1.00
H25    H     0.60494   0.19775   0.43982   0.00000  Uiso   1.00
H26    H     0.65226   0.44633   0.30455   0.00000  Uiso   1.00
H27    H     0.94179   0.37589   0.59983   0.00000  Uiso   1.00
H28    H     0.48589   0.02350   0.41904   0.00000  Uiso   1.00
H29    H     0.58569   0.54765   0.13382   0.00000  Uiso   1.00
H30    H     0.19623   0.39914   0.75648   0.00000  Uiso   1.00
H31    H     0.97041   0.16854   0.32815   0.00000  Uiso   1.00
H32    H     0.84869   0.02173   0.31669   0.00000  Uiso   1.00
H33    H     0.89600   0.27031   0.18141   0.00000  Uiso   1.00
H34    H     0.18553   0.19988   0.47670   0.00000  Uiso   1.00
H35    H     0.68372   0.88064   0.31909   0.00000  Uiso   1.00
H36    H     0.78353   0.40480   0.03388   0.00000  Uiso   1.00
H37    H     0.39407   0.25628   0.65654   0.00000  Uiso   1.00
O38    O     0.50053   0.85851   0.36361   0.00000  Uiso   1.00
O39    O     0.63150   0.54620   0.98943   0.00000  Uiso   1.00
O40    O     0.43250   0.35134   0.80634   0.00000  Uiso   1.00
N41    N     0.54917   0.01002   0.39711   0.00000  Uiso   1.00
N42    N     0.64247   0.50007   0.13044   0.00000  Uiso   1.00
N43    N     0.21327   0.36123   0.71256   0.00000  Uiso   1.00
N44    N     0.65562   0.93315   0.34333   0.00000  Uiso   1.00
N45    N     0.74892   0.42319   0.07666   0.00000  Uiso   1.00
N46    N     0.31972   0.28436   0.65879   0.00000  Uiso   1.00
C47    C     0.20772   0.29716   0.08186   0.00000  Uiso   1.00
C48    C     0.24869   0.19924   0.10078   0.00000  Uiso   1.00
C49    C     0.34245   0.15973   0.08675   0.00000  Uiso   1.00
C50    C     0.36584   0.06926   0.10832   0.00000  Uiso   1.00
C51    C     0.43985   0.92469   0.13252   0.00000  Uiso   1.00
C52    C     0.22300   0.33429   0.17429   0.00000  Uiso   1.00
C53    C     0.29514   0.40834   0.22205   0.00000  Uiso   1.00
C54    C     0.29689   0.43157   0.30549   0.00000  Uiso   1.00
C55    C     0.33092   0.49671   0.44378   0.00000  Uiso   1.00
C56    C     0.06569   0.29602   0.01385   0.00000  Uiso   1.00
C57    C     0.00556   0.33790   0.92673   0.00000  Uiso   1.00
C58    C     0.87486   0.32892   0.87509   0.00000  Uiso   1.00
C59    C     0.66466   0.33463   0.76428   0.00000  Uiso   1.00
C60    C     0.08253   0.20677   0.14511   0.00000  Uiso   1.00
C61    C     0.18070   0.15014   0.13514   0.00000  Uiso   1.00
C62    C     0.20395   0.05971   0.15673   0.00000  Uiso   1.00
C63    C     0.29772   0.02007   0.14273   0.00000  Uiso   1.00
C64    C     0.15501   0.28520   0.20865   0.00000  Uiso   1.00
C65    C     0.15663   0.30832   0.29203   0.00000  Uiso   1.00
C66    C     0.22877   0.38238   0.33991   0.00000  Uiso   1.00
C67    C     0.99769   0.24692   0.04820   0.00000  Uiso   1.00
C68    C     0.86706   0.23788   0.99670   0.00000  Uiso   1.00
C69    C     0.80674   0.27974   0.90951   0.00000  Uiso   1.00
H70    H     0.26066   0.33540   0.05512   0.00000  Uiso   1.00
H71    H     0.39506   0.19775   0.06018   0.00000  Uiso   1.00
H72    H     0.34774   0.44633   0.19545   0.00000  Uiso   1.00
H73    H     0.05821   0.37589   0.90017   0.00000  Uiso   1.00
H74    H     0.51411   0.02350   0.08096   0.00000  Uiso   1.00
H75    H     0.41431   0.54765   0.36618   0.00000  Uiso   1.00
H76    H     0.80377   0.39914   0.74352   0.00000  Uiso   1.00
H77    H     0.02959   0.16854   0.17185   0.00000  Uiso   1.00
H78    H     0.15131   0.02173   0.18331   0.00000  Uiso   1.00
H79    H     0.10400   0.27031   0.31859   0.00000  Uiso   1.00
H80    H     0.81447   0.19988   0.02330   0.00000  Uiso   1.00
H81    H     0.31628   0.88064   0.18091   0.00000  Uiso   1.00
H82    H     0.21647   0.40480   0.46612   0.00000  Uiso   1.00
H83    H     0.60593   0.25628   0.84346   0.00000  Uiso   1.00
O84    O     0.49947   0.85851   0.13639   0.00000  Uiso   1.00
O85    O     0.36850   0.54620   0.51057   0.00000  Uiso   1.00
O86    O     0.56750   0.35134   0.69366   0.00000  Uiso   1.00
N87    N     0.45083   0.01002   0.10289   0.00000  Uiso   1.00
N88    N     0.35753   0.50007   0.36956   0.00000  Uiso   1.00
N89    N     0.78673   0.36123   0.78744   0.00000  Uiso   1.00
N90    N     0.34438   0.93315   0.15667   0.00000  Uiso   1.00
N91    N     0.25108   0.42319   0.42334   0.00000  Uiso   1.00
N92    N     0.68028   0.28436   0.84121   0.00000  Uiso   1.00
C93    C     0.20772   0.70284   0.58186   0.00000  Uiso   1.00
C94    C     0.24869   0.80076   0.60078   0.00000  Uiso   1.00
C95    C     0.34245   0.84027   0.58675   0.00000  Uiso   1.00
C96    C     0.36584   0.93074   0.60832   0.00000  Uiso   1.00
C97    C     0.43985   0.07531   0.63252   0.00000  Uiso   1.00
C98    C     0.22300   0.66571   0.67429   0.00000  Uiso   1.00
C99    C     0.29514   0.59166   0.72205   0.00000  Uiso   1.00
C100   C     0.29689   0.56843   0.80549   0.00000  Uiso   1.00
C101   C     0.33092   0.50329   0.94378   0.00000  Uiso   1.00
C102   C     0.06569   0.70398   0.51385   0.00000  Uiso   1.00
C103   C     0.00556   0.66210   0.42673   0.00000  Uiso   1.00
C104   C     0.87486   0.67108   0.37509   0.00000  Uiso   1.00
C105   C     0.66466   0.66537   0.26428   0.00000  Uiso   1.00
C106   C     0.08253   0.79323   0.64511   0.00000  Uiso   1.00
C107   C     0.18070   0.84986   0.63514   0.00000  Uiso   1.00
C108   C     0.20395   0.94029   0.65673   0.00000  Uiso   1.00
C109   C     0.29772   0.97993   0.64273   0.00000  Uiso   1.00
C110   C     0.15501   0.71480   0.70865   0.00000  Uiso   1.00
C111   C     0.15663   0.69168   0.79203   0.00000  Uiso   1.00
C112   C     0.22877   0.61762   0.83991   0.00000  Uiso   1.00
C113   C     0.99769   0.75308   0.54820   0.00000  Uiso   1.00
C114   C     0.86706   0.76212   0.49670   0.00000  Uiso   1.00
C115   C     0.80674   0.72026   0.40951   0.00000  Uiso   1.00
H116   H     0.26066   0.66460   0.55512   0.00000  Uiso   1.00
H117   H     0.39506   0.80225   0.56018   0.00000  Uiso   1.00
H118   H     0.34774   0.55367   0.69545   0.00000  Uiso   1.00
H119   H     0.05821   0.62411   0.40017   0.00000  Uiso   1.00
H120   H     0.51411   0.97650   0.58096   0.00000  Uiso   1.00
H121   H     0.41431   0.45235   0.86618   0.00000  Uiso   1.00
H122   H     0.80377   0.60086   0.24352   0.00000  Uiso   1.00
H123   H     0.02959   0.83146   0.67185   0.00000  Uiso   1.00
H124   H     0.15131   0.97827   0.68331   0.00000  Uiso   1.00
H125   H     0.10400   0.72969   0.81859   0.00000  Uiso   1.00
H126   H     0.81447   0.80012   0.52330   0.00000  Uiso   1.00
H127   H     0.31628   0.11936   0.68091   0.00000  Uiso   1.00
H128   H     0.21647   0.59520   0.96612   0.00000  Uiso   1.00
H129   H     0.60593   0.74372   0.34346   0.00000  Uiso   1.00
O130   O     0.49947   0.14149   0.63639   0.00000  Uiso   1.00
O131   O     0.36850   0.45380   0.01057   0.00000  Uiso   1.00
O132   O     0.56750   0.64866   0.19366   0.00000  Uiso   1.00
N133   N     0.45083   0.98998   0.60289   0.00000  Uiso   1.00
N134   N     0.35753   0.49993   0.86956   0.00000  Uiso   1.00
N135   N     0.78673   0.63877   0.28744   0.00000  Uiso   1.00
N136   N     0.34438   0.06685   0.65667   0.00000  Uiso   1.00
N137   N     0.25108   0.57681   0.92334   0.00000  Uiso   1.00
N138   N     0.68028   0.71564   0.34121   0.00000  Uiso   1.00
C139   C     0.79228   0.70284   0.91814   0.00000  Uiso   1.00
C140   C     0.75131   0.80076   0.89922   0.00000  Uiso   1.00
C141   C     0.65755   0.84027   0.91325   0.00000  Uiso   1.00
C142   C     0.63416   0.93074   0.89168   0.00000  Uiso   1.00
C143   C     0.56015   0.07531   0.86748   0.00000  Uiso   1.00
C144   C     0.77700   0.66571   0.82571   0.00000  Uiso   1.00
C145   C     0.70486   0.59166   0.77795   0.00000  Uiso   1.00
C146   C     0.70311   0.56843   0.69451   0.00000  Uiso   1.00
C147   C     0.66908   0.50329   0.55622   0.00000  Uiso   1.00
C148   C     0.93431   0.70398   0.98615   0.00000  Uiso   1.00
C149   C     0.99444   0.66210   0.07327   0.00000  Uiso   1.00
C150   C     0.12514   0.67108   0.12491   0.00000  Uiso   1.00
C151   C     0.33534   0.66537   0.23572   0.00000  Uiso   1.00
C152   C     0.91747   0.79323   0.85489   0.00000  Uiso   1.00
C153   C     0.81930   0.84986   0.86486   0.00000  Uiso   1.00
C154   C     0.79605   0.94029   0.84327   0.00000  Uiso   1.00
C155   C     0.70228   0.97993   0.85727   0.00000  Uiso   1.00
C156   C     0.84499   0.71480   0.79135   0.00000  Uiso   1.00
C157   C     0.84337   0.69168   0.70797   0.00000  Uiso   1.00
C158   C     0.77123   0.61762   0.66009   0.00000  Uiso   1.00
C159   C     0.00231   0.75308   0.95180   0.00000  Uiso   1.00
C160   C     0.13294   0.76212   0.00330   0.00000  Uiso   1.00
C161   C     0.19326   0.72026   0.09049   0.00000  Uiso   1.00
H162   H     0.73934   0.66460   0.94488   0.00000  Uiso   1.00
H163   H     0.60494   0.80225   0.93982   0.00000  Uiso   1.00
H164   H     0.65226   0.55367   0.80455   0.00000  Uiso   1.00
H165   H     0.94179   0.62411   0.09983   0.00000  Uiso   1.00
H166   H     0.48589   0.97650   0.91904   0.00000  Uiso   1.00
H167   H     0.58569   0.45235   0.63382   0.00000  Uiso   1.00
H168   H     0.19623   0.60086   0.25648   0.00000  Uiso   1.00
H169   H     0.97041   0.83146   0.82815   0.00000  Uiso   1.00
H170   H     0.84869   0.97827   0.81669   0.00000  Uiso   1.00
H171   H     0.89600   0.72969   0.68141   0.00000  Uiso   1.00
H172   H     0.18553   0.80012   0.97670   0.00000  Uiso   1.00
H173   H     0.68372   0.11936   0.81909   0.00000  Uiso   1.00
H174   H     0.78353   0.59520   0.53388   0.00000  Uiso   1.00
H175   H     0.39407   0.74372   0.15654   0.00000  Uiso   1.00
O176   O     0.50053   0.14149   0.86361   0.00000  Uiso   1.00
O177   O     0.63150   0.45380   0.48943   0.00000  Uiso   1.00
O178   O     0.43250   0.64866   0.30634   0.00000  Uiso   1.00
N179   N     0.54917   0.98998   0.89711   0.00000  Uiso   1.00
N180   N     0.64247   0.49993   0.63044   0.00000  Uiso   1.00
N181   N     0.21327   0.63877   0.21256   0.00000  Uiso   1.00
N182   N     0.65562   0.06685   0.84333   0.00000  Uiso   1.00
N183   N     0.74892   0.57681   0.57666   0.00000  Uiso   1.00
N184   N     0.31972   0.71564   0.15879   0.00000  Uiso   1.00
