data_job_02586
_audit_creation_date              2018-12-19
_audit_creation_method            'Materials Studio'
_symmetry_space_group_name_H-M    'P1'
_symmetry_Int_Tables_number       1
_symmetry_cell_setting            triclinic
loop_
_symmetry_equiv_pos_as_xyz
  x,y,z
_cell_length_a                    11.8569
_cell_length_b                    14.9653
_cell_length_c                    15.2307
_cell_angle_alpha                 101.2060
_cell_angle_beta                  69.4980
_cell_angle_gamma                 70.1070
loop_
_atom_site_label
_atom_site_type_symbol
_atom_site_fract_x
_atom_site_fract_y
_atom_site_fract_z
_atom_site_U_iso_or_equiv
_atom_site_adp_type
_atom_site_occupancy
C1     C     0.91566   0.00692   0.77031   0.00000  Uiso   1.00
C2     C     0.82786   0.00884   0.71698   0.00000  Uiso   1.00
C3     C     0.78365   0.08122   0.67657   0.00000  Uiso   1.00
C4     C     0.70416   0.06958   0.63086   0.00000  Uiso   1.00
C5     C     0.57294   0.08492   0.54886   0.00000  Uiso   1.00
C6     C     0.83780   0.00599   0.87355   0.00000  Uiso   1.00
C7     C     0.80196   0.07598   0.96478   0.00000  Uiso   1.00
C8     C     0.73085   0.06193   0.05087   0.00000  Uiso   1.00
C9     C     0.61515   0.07282   0.21196   0.00000  Uiso   1.00
C10    C     0.03846   0.90356   0.71402   0.00000  Uiso   1.00
C11    C     0.17134   0.88741   0.67114   0.00000  Uiso   1.00
C12    C     0.26918   0.78711   0.62294   0.00000  Uiso   1.00
C13    C     0.46502   0.63895   0.53633   0.00000  Uiso   1.00
C14    C     0.85313   0.85752   0.76099   0.00000  Uiso   1.00
C15    C     0.79390   0.92768   0.71192   0.00000  Uiso   1.00
C16    C     0.71446   0.91592   0.66625   0.00000  Uiso   1.00
C17    C     0.67014   0.98828   0.62578   0.00000  Uiso   1.00
C18    C     0.80384   0.92484   0.86849   0.00000  Uiso   1.00
C19    C     0.73278   0.91068   0.95447   0.00000  Uiso   1.00
C20    C     0.69683   0.98063   0.04580   0.00000  Uiso   1.00
C21    C     0.00450   0.82240   0.70896   0.00000  Uiso   1.00
C22    C     0.10215   0.72211   0.66082   0.00000  Uiso   1.00
C23    C     0.23515   0.70581   0.61787   0.00000  Uiso   1.00
H24    H     0.94210   0.07010   0.77426   0.00000  Uiso   1.00
H25    H     0.80994   0.14402   0.68051   0.00000  Uiso   1.00
H26    H     0.82827   0.13877   0.96867   0.00000  Uiso   1.00
H27    H     0.19758   0.95023   0.67507   0.00000  Uiso   1.00
H28    H     0.64840   0.19020   0.57437   0.00000  Uiso   1.00
H29    H     0.68708   0.17911   0.18198   0.00000  Uiso   1.00
H30    H     0.46586   0.78154   0.56287   0.00000  Uiso   1.00
H31    H     0.82669   0.79433   0.75705   0.00000  Uiso   1.00
H32    H     0.68820   0.85312   0.66235   0.00000  Uiso   1.00
H33    H     0.70652   0.84787   0.95052   0.00000  Uiso   1.00
H34    H     0.07583   0.65933   0.65692   0.00000  Uiso   1.00
H35    H     0.54958   0.95410   0.55963   0.00000  Uiso   1.00
H36    H     0.58826   0.94301   0.16725   0.00000  Uiso   1.00
H37    H     0.36703   0.54543   0.54814   0.00000  Uiso   1.00
O38    O     0.50993   0.11581   0.50505   0.00000  Uiso   1.00
O39    O     0.56070   0.10125   0.30221   0.00000  Uiso   1.00
O40    O     0.58243   0.57965   0.48994   0.00000  Uiso   1.00
N41    N     0.64417   0.12656   0.58388   0.00000  Uiso   1.00
N42    N     0.68031   0.11620   0.15196   0.00000  Uiso   1.00
N43    N     0.40841   0.74450   0.57317   0.00000  Uiso   1.00
N44    N     0.59100   0.99951   0.57595   0.00000  Uiso   1.00
N45    N     0.62714   0.98915   0.14403   0.00000  Uiso   1.00
N46    N     0.35523   0.61745   0.56524   0.00000  Uiso   1.00
C47    C     0.08434   0.99308   0.22969   0.00000  Uiso   1.00
C48    C     0.17214   0.99116   0.28302   0.00000  Uiso   1.00
C49    C     0.21635   0.91878   0.32343   0.00000  Uiso   1.00
C50    C     0.29584   0.93042   0.36914   0.00000  Uiso   1.00
C51    C     0.42706   0.91508   0.45114   0.00000  Uiso   1.00
C52    C     0.16220   0.99401   0.12645   0.00000  Uiso   1.00
C53    C     0.19804   0.92402   0.03522   0.00000  Uiso   1.00
C54    C     0.26915   0.93807   0.94913   0.00000  Uiso   1.00
C55    C     0.38485   0.92718   0.78804   0.00000  Uiso   1.00
C56    C     0.96154   0.09644   0.28598   0.00000  Uiso   1.00
C57    C     0.82866   0.11259   0.32886   0.00000  Uiso   1.00
C58    C     0.73082   0.21289   0.37706   0.00000  Uiso   1.00
C59    C     0.53498   0.36105   0.46367   0.00000  Uiso   1.00
C60    C     0.14687   0.14248   0.23901   0.00000  Uiso   1.00
C61    C     0.20610   0.07232   0.28808   0.00000  Uiso   1.00
C62    C     0.28554   0.08408   0.33375   0.00000  Uiso   1.00
C63    C     0.32986   0.01172   0.37422   0.00000  Uiso   1.00
C64    C     0.19616   0.07516   0.13151   0.00000  Uiso   1.00
C65    C     0.26722   0.08932   0.04553   0.00000  Uiso   1.00
C66    C     0.30317   0.01937   0.95420   0.00000  Uiso   1.00
C67    C     0.99550   0.17760   0.29104   0.00000  Uiso   1.00
C68    C     0.89785   0.27789   0.33918   0.00000  Uiso   1.00
C69    C     0.76485   0.29419   0.38213   0.00000  Uiso   1.00
H70    H     0.05790   0.92990   0.22574   0.00000  Uiso   1.00
H71    H     0.19006   0.85598   0.31949   0.00000  Uiso   1.00
H72    H     0.17173   0.86123   0.03133   0.00000  Uiso   1.00
H73    H     0.80242   0.04977   0.32493   0.00000  Uiso   1.00
H74    H     0.35160   0.80980   0.42563   0.00000  Uiso   1.00
H75    H     0.31292   0.82089   0.81802   0.00000  Uiso   1.00
H76    H     0.53414   0.21846   0.43713   0.00000  Uiso   1.00
H77    H     0.17331   0.20567   0.24295   0.00000  Uiso   1.00
H78    H     0.31180   0.14688   0.33765   0.00000  Uiso   1.00
H79    H     0.29348   0.15213   0.04948   0.00000  Uiso   1.00
H80    H     0.92417   0.34067   0.34308   0.00000  Uiso   1.00
H81    H     0.45042   0.04590   0.44037   0.00000  Uiso   1.00
H82    H     0.41174   0.05699   0.83275   0.00000  Uiso   1.00
H83    H     0.63297   0.45457   0.45186   0.00000  Uiso   1.00
O84    O     0.49007   0.88419   0.49495   0.00000  Uiso   1.00
O85    O     0.43930   0.89875   0.69779   0.00000  Uiso   1.00
O86    O     0.41757   0.42035   0.51006   0.00000  Uiso   1.00
N87    N     0.35583   0.87344   0.41612   0.00000  Uiso   1.00
N88    N     0.31969   0.88380   0.84804   0.00000  Uiso   1.00
N89    N     0.59159   0.25550   0.42683   0.00000  Uiso   1.00
N90    N     0.40900   0.00049   0.42405   0.00000  Uiso   1.00
N91    N     0.37286   0.01085   0.85597   0.00000  Uiso   1.00
N92    N     0.64477   0.38255   0.43476   0.00000  Uiso   1.00
