data_job_03704
_audit_creation_date              2018-12-19
_audit_creation_method            'Materials Studio'
_symmetry_space_group_name_H-M    'P1'
_symmetry_Int_Tables_number       1
_symmetry_cell_setting            triclinic
loop_
_symmetry_equiv_pos_as_xyz
  x,y,z
_cell_length_a                    24.1199
_cell_length_b                    29.1135
_cell_length_c                    12.5026
_cell_angle_alpha                 90.0000
_cell_angle_beta                  90.0000
_cell_angle_gamma                 90.0000
loop_
_atom_site_label
_atom_site_type_symbol
_atom_site_fract_x
_atom_site_fract_y
_atom_site_fract_z
_atom_site_U_iso_or_equiv
_atom_site_adp_type
_atom_site_occupancy
C1     C     0.67039   0.18124   0.24682   0.00000  Uiso   1.00
C2     C     0.66512   0.17306   0.36686   0.00000  Uiso   1.00
C3     C     0.64785   0.20519   0.44178   0.00000  Uiso   1.00
C4     C     0.64583   0.19099   0.54772   0.00000  Uiso   1.00
C5     C     0.63543   0.18510   0.72959   0.00000  Uiso   1.00
C6     C     0.73015   0.16945   0.21800   0.00000  Uiso   1.00
C7     C     0.76755   0.19854   0.16774   0.00000  Uiso   1.00
C8     C     0.82027   0.18129   0.14836   0.00000  Uiso   1.00
C9     C     0.91082   0.16978   0.09904   0.00000  Uiso   1.00
C10    C     0.63449   0.14479   0.19324   0.00000  Uiso   1.00
C11    C     0.59147   0.15314   0.12213   0.00000  Uiso   1.00
C12    C     0.56366   0.11513   0.08187   0.00000  Uiso   1.00
C13    C     0.50568   0.06532   0.99410   0.00000  Uiso   1.00
C14    C     0.69750   0.09889   0.30174   0.00000  Uiso   1.00
C15    C     0.67984   0.12833   0.39669   0.00000  Uiso   1.00
C16    C     0.67785   0.11407   0.50254   0.00000  Uiso   1.00
C17    C     0.66058   0.14618   0.57761   0.00000  Uiso   1.00
C18    C     0.74488   0.12472   0.24783   0.00000  Uiso   1.00
C19    C     0.79755   0.10742   0.22850   0.00000  Uiso   1.00
C20    C     0.83503   0.13648   0.17824   0.00000  Uiso   1.00
C21    C     0.64921   0.10005   0.22306   0.00000  Uiso   1.00
C22    C     0.62146   0.06202   0.18290   0.00000  Uiso   1.00
C23    C     0.57841   0.07032   0.11175   0.00000  Uiso   1.00
H24    H     0.65893   0.21607   0.22360   0.00000  Uiso   1.00
H25    H     0.63646   0.23981   0.41867   0.00000  Uiso   1.00
H26    H     0.75614   0.23315   0.14466   0.00000  Uiso   1.00
H27    H     0.58008   0.18776   0.09907   0.00000  Uiso   1.00
H28    H     0.61807   0.24640   0.64810   0.00000  Uiso   1.00
H29    H     0.87042   0.23236   0.07031   0.00000  Uiso   1.00
H30    H     0.49916   0.13665   0.97416   0.00000  Uiso   1.00
H31    H     0.70897   0.06406   0.32496   0.00000  Uiso   1.00
H32    H     0.68925   0.07946   0.52560   0.00000  Uiso   1.00
H33    H     0.80893   0.07280   0.25159   0.00000  Uiso   1.00
H34    H     0.63287   0.02741   0.20600   0.00000  Uiso   1.00
H35    H     0.66091   0.11626   0.73489   0.00000  Uiso   1.00
H36    H     0.91327   0.10222   0.15710   0.00000  Uiso   1.00
H37    H     0.54201   0.00650   0.06095   0.00000  Uiso   1.00
O38    O     0.62563   0.19421   0.82166   0.00000  Uiso   1.00
O39    O     0.95670   0.17579   0.06360   0.00000  Uiso   1.00
O40    O     0.46963   0.05021   0.93746   0.00000  Uiso   1.00
N41    N     0.63084   0.21366   0.64099   0.00000  Uiso   1.00
N42    N     0.86678   0.20054   0.10081   0.00000  Uiso   1.00
N43    N     0.51970   0.11105   0.01089   0.00000  Uiso   1.00
N44    N     0.65390   0.14363   0.68769   0.00000  Uiso   1.00
N45    N     0.88984   0.13051   0.14751   0.00000  Uiso   1.00
N46    N     0.54276   0.04102   0.05759   0.00000  Uiso   1.00
C47    C     0.82961   0.81876   0.24682   0.00000  Uiso   1.00
C48    C     0.83488   0.82694   0.36686   0.00000  Uiso   1.00
C49    C     0.85215   0.79481   0.44178   0.00000  Uiso   1.00
C50    C     0.85417   0.80901   0.54772   0.00000  Uiso   1.00
C51    C     0.86457   0.81490   0.72959   0.00000  Uiso   1.00
C52    C     0.76985   0.83055   0.21800   0.00000  Uiso   1.00
C53    C     0.73245   0.80146   0.16774   0.00000  Uiso   1.00
C54    C     0.67973   0.81871   0.14836   0.00000  Uiso   1.00
C55    C     0.58918   0.83022   0.09904   0.00000  Uiso   1.00
C56    C     0.86551   0.85521   0.19324   0.00000  Uiso   1.00
C57    C     0.90853   0.84686   0.12213   0.00000  Uiso   1.00
C58    C     0.93634   0.88487   0.08187   0.00000  Uiso   1.00
C59    C     0.99432   0.93468   0.99410   0.00000  Uiso   1.00
C60    C     0.80250   0.90111   0.30174   0.00000  Uiso   1.00
C61    C     0.82016   0.87167   0.39669   0.00000  Uiso   1.00
C62    C     0.82215   0.88593   0.50254   0.00000  Uiso   1.00
C63    C     0.83942   0.85382   0.57761   0.00000  Uiso   1.00
C64    C     0.75512   0.87528   0.24783   0.00000  Uiso   1.00
C65    C     0.70245   0.89258   0.22850   0.00000  Uiso   1.00
C66    C     0.66497   0.86352   0.17824   0.00000  Uiso   1.00
C67    C     0.85079   0.89995   0.22306   0.00000  Uiso   1.00
C68    C     0.87854   0.93798   0.18290   0.00000  Uiso   1.00
C69    C     0.92159   0.92968   0.11175   0.00000  Uiso   1.00
H70    H     0.84107   0.78393   0.22360   0.00000  Uiso   1.00
H71    H     0.86354   0.76019   0.41867   0.00000  Uiso   1.00
H72    H     0.74386   0.76685   0.14466   0.00000  Uiso   1.00
H73    H     0.91992   0.81224   0.09907   0.00000  Uiso   1.00
H74    H     0.88193   0.75360   0.64810   0.00000  Uiso   1.00
H75    H     0.62958   0.76764   0.07031   0.00000  Uiso   1.00
H76    H     0.00084   0.86335   0.97416   0.00000  Uiso   1.00
H77    H     0.79103   0.93594   0.32496   0.00000  Uiso   1.00
H78    H     0.81075   0.92054   0.52560   0.00000  Uiso   1.00
H79    H     0.69107   0.92720   0.25159   0.00000  Uiso   1.00
H80    H     0.86713   0.97259   0.20600   0.00000  Uiso   1.00
H81    H     0.83909   0.88374   0.73489   0.00000  Uiso   1.00
H82    H     0.58673   0.89778   0.15710   0.00000  Uiso   1.00
H83    H     0.95799   0.99350   0.06095   0.00000  Uiso   1.00
O84    O     0.87437   0.80579   0.82166   0.00000  Uiso   1.00
O85    O     0.54330   0.82421   0.06360   0.00000  Uiso   1.00
O86    O     0.03037   0.94979   0.93746   0.00000  Uiso   1.00
N87    N     0.86916   0.78634   0.64099   0.00000  Uiso   1.00
N88    N     0.63322   0.79946   0.10081   0.00000  Uiso   1.00
N89    N     0.98030   0.88895   0.01089   0.00000  Uiso   1.00
N90    N     0.84610   0.85637   0.68769   0.00000  Uiso   1.00
N91    N     0.61016   0.86949   0.14751   0.00000  Uiso   1.00
N92    N     0.95724   0.95898   0.05759   0.00000  Uiso   1.00
C93    C     0.82961   0.68124   0.25318   0.00000  Uiso   1.00
C94    C     0.83488   0.67306   0.13314   0.00000  Uiso   1.00
C95    C     0.85215   0.70519   0.05822   0.00000  Uiso   1.00
C96    C     0.85417   0.69099   0.95228   0.00000  Uiso   1.00
C97    C     0.86457   0.68510   0.77041   0.00000  Uiso   1.00
C98    C     0.76985   0.66945   0.28200   0.00000  Uiso   1.00
C99    C     0.73245   0.69854   0.33226   0.00000  Uiso   1.00
C100   C     0.67973   0.68129   0.35164   0.00000  Uiso   1.00
C101   C     0.58918   0.66978   0.40096   0.00000  Uiso   1.00
C102   C     0.86551   0.64479   0.30676   0.00000  Uiso   1.00
C103   C     0.90853   0.65314   0.37787   0.00000  Uiso   1.00
C104   C     0.93634   0.61513   0.41813   0.00000  Uiso   1.00
C105   C     0.99432   0.56532   0.50590   0.00000  Uiso   1.00
C106   C     0.80250   0.59889   0.19826   0.00000  Uiso   1.00
C107   C     0.82016   0.62833   0.10331   0.00000  Uiso   1.00
C108   C     0.82215   0.61407   0.99746   0.00000  Uiso   1.00
C109   C     0.83942   0.64618   0.92239   0.00000  Uiso   1.00
C110   C     0.75512   0.62472   0.25217   0.00000  Uiso   1.00
C111   C     0.70245   0.60742   0.27150   0.00000  Uiso   1.00
C112   C     0.66497   0.63648   0.32176   0.00000  Uiso   1.00
C113   C     0.85079   0.60005   0.27694   0.00000  Uiso   1.00
C114   C     0.87854   0.56202   0.31710   0.00000  Uiso   1.00
C115   C     0.92159   0.57032   0.38825   0.00000  Uiso   1.00
H116   H     0.84107   0.71607   0.27640   0.00000  Uiso   1.00
H117   H     0.86354   0.73981   0.08133   0.00000  Uiso   1.00
H118   H     0.74386   0.73315   0.35534   0.00000  Uiso   1.00
H119   H     0.91992   0.68776   0.40093   0.00000  Uiso   1.00
H120   H     0.88193   0.74640   0.85190   0.00000  Uiso   1.00
H121   H     0.62958   0.73236   0.42969   0.00000  Uiso   1.00
H122   H     0.00084   0.63665   0.52584   0.00000  Uiso   1.00
H123   H     0.79103   0.56406   0.17504   0.00000  Uiso   1.00
H124   H     0.81075   0.57946   0.97440   0.00000  Uiso   1.00
H125   H     0.69107   0.57280   0.24841   0.00000  Uiso   1.00
H126   H     0.86713   0.52741   0.29400   0.00000  Uiso   1.00
H127   H     0.83909   0.61626   0.76511   0.00000  Uiso   1.00
H128   H     0.58673   0.60222   0.34290   0.00000  Uiso   1.00
H129   H     0.95799   0.50650   0.43905   0.00000  Uiso   1.00
O130   O     0.87437   0.69421   0.67834   0.00000  Uiso   1.00
O131   O     0.54330   0.67579   0.43640   0.00000  Uiso   1.00
O132   O     0.03037   0.55021   0.56254   0.00000  Uiso   1.00
N133   N     0.86916   0.71366   0.85901   0.00000  Uiso   1.00
N134   N     0.63322   0.70054   0.39919   0.00000  Uiso   1.00
N135   N     0.98030   0.61105   0.48911   0.00000  Uiso   1.00
N136   N     0.84610   0.64363   0.81231   0.00000  Uiso   1.00
N137   N     0.61016   0.63051   0.35249   0.00000  Uiso   1.00
N138   N     0.95724   0.54102   0.44241   0.00000  Uiso   1.00
C139   C     0.67039   0.31876   0.25318   0.00000  Uiso   1.00
C140   C     0.66512   0.32694   0.13314   0.00000  Uiso   1.00
C141   C     0.64785   0.29481   0.05822   0.00000  Uiso   1.00
C142   C     0.64583   0.30901   0.95228   0.00000  Uiso   1.00
C143   C     0.63543   0.31490   0.77041   0.00000  Uiso   1.00
C144   C     0.73015   0.33055   0.28200   0.00000  Uiso   1.00
C145   C     0.76755   0.30146   0.33226   0.00000  Uiso   1.00
C146   C     0.82027   0.31871   0.35164   0.00000  Uiso   1.00
C147   C     0.91082   0.33022   0.40096   0.00000  Uiso   1.00
C148   C     0.63449   0.35521   0.30676   0.00000  Uiso   1.00
C149   C     0.59147   0.34686   0.37787   0.00000  Uiso   1.00
C150   C     0.56366   0.38487   0.41813   0.00000  Uiso   1.00
C151   C     0.50568   0.43468   0.50590   0.00000  Uiso   1.00
C152   C     0.69750   0.40111   0.19826   0.00000  Uiso   1.00
C153   C     0.67984   0.37167   0.10331   0.00000  Uiso   1.00
C154   C     0.67785   0.38593   0.99746   0.00000  Uiso   1.00
C155   C     0.66058   0.35382   0.92239   0.00000  Uiso   1.00
C156   C     0.74488   0.37528   0.25217   0.00000  Uiso   1.00
C157   C     0.79755   0.39258   0.27150   0.00000  Uiso   1.00
C158   C     0.83503   0.36352   0.32176   0.00000  Uiso   1.00
C159   C     0.64921   0.39995   0.27694   0.00000  Uiso   1.00
C160   C     0.62146   0.43798   0.31710   0.00000  Uiso   1.00
C161   C     0.57841   0.42968   0.38825   0.00000  Uiso   1.00
H162   H     0.65893   0.28393   0.27640   0.00000  Uiso   1.00
H163   H     0.63646   0.26019   0.08133   0.00000  Uiso   1.00
H164   H     0.75614   0.26685   0.35534   0.00000  Uiso   1.00
H165   H     0.58008   0.31224   0.40093   0.00000  Uiso   1.00
H166   H     0.61807   0.25360   0.85190   0.00000  Uiso   1.00
H167   H     0.87042   0.26764   0.42969   0.00000  Uiso   1.00
H168   H     0.49916   0.36335   0.52584   0.00000  Uiso   1.00
H169   H     0.70897   0.43594   0.17504   0.00000  Uiso   1.00
H170   H     0.68925   0.42054   0.97440   0.00000  Uiso   1.00
H171   H     0.80893   0.42720   0.24841   0.00000  Uiso   1.00
H172   H     0.63287   0.47259   0.29400   0.00000  Uiso   1.00
H173   H     0.66091   0.38374   0.76511   0.00000  Uiso   1.00
H174   H     0.91327   0.39778   0.34290   0.00000  Uiso   1.00
H175   H     0.54201   0.49350   0.43905   0.00000  Uiso   1.00
O176   O     0.62563   0.30579   0.67834   0.00000  Uiso   1.00
O177   O     0.95670   0.32421   0.43640   0.00000  Uiso   1.00
O178   O     0.46963   0.44979   0.56254   0.00000  Uiso   1.00
N179   N     0.63084   0.28634   0.85901   0.00000  Uiso   1.00
N180   N     0.86678   0.29946   0.39919   0.00000  Uiso   1.00
N181   N     0.51970   0.38895   0.48911   0.00000  Uiso   1.00
N182   N     0.65390   0.35637   0.81231   0.00000  Uiso   1.00
N183   N     0.88984   0.36949   0.35249   0.00000  Uiso   1.00
N184   N     0.54276   0.45898   0.44241   0.00000  Uiso   1.00
C185   C     0.32961   0.81876   0.75318   0.00000  Uiso   1.00
C186   C     0.33488   0.82694   0.63314   0.00000  Uiso   1.00
C187   C     0.35215   0.79481   0.55822   0.00000  Uiso   1.00
C188   C     0.35417   0.80901   0.45228   0.00000  Uiso   1.00
C189   C     0.36457   0.81490   0.27041   0.00000  Uiso   1.00
C190   C     0.26985   0.83055   0.78200   0.00000  Uiso   1.00
C191   C     0.23245   0.80146   0.83226   0.00000  Uiso   1.00
C192   C     0.17973   0.81871   0.85164   0.00000  Uiso   1.00
C193   C     0.08918   0.83022   0.90096   0.00000  Uiso   1.00
C194   C     0.36551   0.85521   0.80676   0.00000  Uiso   1.00
C195   C     0.40853   0.84686   0.87787   0.00000  Uiso   1.00
C196   C     0.43634   0.88487   0.91813   0.00000  Uiso   1.00
C197   C     0.49432   0.93468   0.00590   0.00000  Uiso   1.00
C198   C     0.30250   0.90111   0.69826   0.00000  Uiso   1.00
C199   C     0.32016   0.87167   0.60331   0.00000  Uiso   1.00
C200   C     0.32215   0.88593   0.49746   0.00000  Uiso   1.00
C201   C     0.33942   0.85382   0.42239   0.00000  Uiso   1.00
C202   C     0.25512   0.87528   0.75217   0.00000  Uiso   1.00
C203   C     0.20245   0.89258   0.77150   0.00000  Uiso   1.00
C204   C     0.16497   0.86352   0.82176   0.00000  Uiso   1.00
C205   C     0.35079   0.89995   0.77694   0.00000  Uiso   1.00
C206   C     0.37854   0.93798   0.81710   0.00000  Uiso   1.00
C207   C     0.42159   0.92968   0.88825   0.00000  Uiso   1.00
H208   H     0.34107   0.78393   0.77640   0.00000  Uiso   1.00
H209   H     0.36354   0.76019   0.58133   0.00000  Uiso   1.00
H210   H     0.24386   0.76685   0.85534   0.00000  Uiso   1.00
H211   H     0.41992   0.81224   0.90093   0.00000  Uiso   1.00
H212   H     0.38193   0.75360   0.35190   0.00000  Uiso   1.00
H213   H     0.12958   0.76764   0.92969   0.00000  Uiso   1.00
H214   H     0.50084   0.86335   0.02584   0.00000  Uiso   1.00
H215   H     0.29103   0.93594   0.67504   0.00000  Uiso   1.00
H216   H     0.31075   0.92054   0.47440   0.00000  Uiso   1.00
H217   H     0.19107   0.92720   0.74841   0.00000  Uiso   1.00
H218   H     0.36713   0.97259   0.79400   0.00000  Uiso   1.00
H219   H     0.33909   0.88374   0.26511   0.00000  Uiso   1.00
H220   H     0.08673   0.89778   0.84290   0.00000  Uiso   1.00
H221   H     0.45799   0.99350   0.93905   0.00000  Uiso   1.00
O222   O     0.37437   0.80579   0.17834   0.00000  Uiso   1.00
O223   O     0.04330   0.82421   0.93640   0.00000  Uiso   1.00
O224   O     0.53037   0.94979   0.06254   0.00000  Uiso   1.00
N225   N     0.36916   0.78634   0.35901   0.00000  Uiso   1.00
N226   N     0.13322   0.79946   0.89919   0.00000  Uiso   1.00
N227   N     0.48030   0.88895   0.98911   0.00000  Uiso   1.00
N228   N     0.34610   0.85637   0.31231   0.00000  Uiso   1.00
N229   N     0.11016   0.86949   0.85249   0.00000  Uiso   1.00
N230   N     0.45724   0.95898   0.94241   0.00000  Uiso   1.00
C231   C     0.17039   0.18124   0.75318   0.00000  Uiso   1.00
C232   C     0.16512   0.17306   0.63314   0.00000  Uiso   1.00
C233   C     0.14785   0.20519   0.55822   0.00000  Uiso   1.00
C234   C     0.14583   0.19099   0.45228   0.00000  Uiso   1.00
C235   C     0.13543   0.18510   0.27041   0.00000  Uiso   1.00
C236   C     0.23015   0.16945   0.78200   0.00000  Uiso   1.00
C237   C     0.26755   0.19854   0.83226   0.00000  Uiso   1.00
C238   C     0.32027   0.18129   0.85164   0.00000  Uiso   1.00
C239   C     0.41082   0.16978   0.90096   0.00000  Uiso   1.00
C240   C     0.13449   0.14479   0.80676   0.00000  Uiso   1.00
C241   C     0.09147   0.15314   0.87787   0.00000  Uiso   1.00
C242   C     0.06366   0.11513   0.91813   0.00000  Uiso   1.00
C243   C     0.00568   0.06532   0.00590   0.00000  Uiso   1.00
C244   C     0.19750   0.09889   0.69826   0.00000  Uiso   1.00
C245   C     0.17984   0.12833   0.60331   0.00000  Uiso   1.00
C246   C     0.17785   0.11407   0.49746   0.00000  Uiso   1.00
C247   C     0.16058   0.14618   0.42239   0.00000  Uiso   1.00
C248   C     0.24488   0.12472   0.75217   0.00000  Uiso   1.00
C249   C     0.29755   0.10742   0.77150   0.00000  Uiso   1.00
C250   C     0.33503   0.13648   0.82176   0.00000  Uiso   1.00
C251   C     0.14921   0.10005   0.77694   0.00000  Uiso   1.00
C252   C     0.12146   0.06202   0.81710   0.00000  Uiso   1.00
C253   C     0.07841   0.07032   0.88825   0.00000  Uiso   1.00
H254   H     0.15893   0.21607   0.77640   0.00000  Uiso   1.00
H255   H     0.13646   0.23981   0.58133   0.00000  Uiso   1.00
H256   H     0.25614   0.23315   0.85534   0.00000  Uiso   1.00
H257   H     0.08008   0.18776   0.90093   0.00000  Uiso   1.00
H258   H     0.11807   0.24640   0.35190   0.00000  Uiso   1.00
H259   H     0.37042   0.23236   0.92969   0.00000  Uiso   1.00
H260   H     0.99916   0.13665   0.02584   0.00000  Uiso   1.00
H261   H     0.20897   0.06406   0.67504   0.00000  Uiso   1.00
H262   H     0.18925   0.07946   0.47440   0.00000  Uiso   1.00
H263   H     0.30893   0.07280   0.74841   0.00000  Uiso   1.00
H264   H     0.13287   0.02741   0.79400   0.00000  Uiso   1.00
H265   H     0.16091   0.11626   0.26511   0.00000  Uiso   1.00
H266   H     0.41327   0.10222   0.84290   0.00000  Uiso   1.00
H267   H     0.04201   0.00650   0.93905   0.00000  Uiso   1.00
O268   O     0.12563   0.19421   0.17834   0.00000  Uiso   1.00
O269   O     0.45670   0.17579   0.93640   0.00000  Uiso   1.00
O270   O     0.96963   0.05021   0.06254   0.00000  Uiso   1.00
N271   N     0.13084   0.21366   0.35901   0.00000  Uiso   1.00
N272   N     0.36678   0.20054   0.89919   0.00000  Uiso   1.00
N273   N     0.01970   0.11105   0.98911   0.00000  Uiso   1.00
N274   N     0.15390   0.14363   0.31231   0.00000  Uiso   1.00
N275   N     0.38984   0.13051   0.85249   0.00000  Uiso   1.00
N276   N     0.04276   0.04102   0.94241   0.00000  Uiso   1.00
C277   C     0.17039   0.31876   0.74682   0.00000  Uiso   1.00
C278   C     0.16512   0.32694   0.86686   0.00000  Uiso   1.00
C279   C     0.14785   0.29481   0.94178   0.00000  Uiso   1.00
C280   C     0.14583   0.30901   0.04772   0.00000  Uiso   1.00
C281   C     0.13543   0.31490   0.22959   0.00000  Uiso   1.00
C282   C     0.23015   0.33055   0.71800   0.00000  Uiso   1.00
C283   C     0.26755   0.30146   0.66774   0.00000  Uiso   1.00
C284   C     0.32027   0.31871   0.64836   0.00000  Uiso   1.00
C285   C     0.41082   0.33022   0.59904   0.00000  Uiso   1.00
C286   C     0.13449   0.35521   0.69324   0.00000  Uiso   1.00
C287   C     0.09147   0.34686   0.62213   0.00000  Uiso   1.00
C288   C     0.06366   0.38487   0.58187   0.00000  Uiso   1.00
C289   C     0.00568   0.43468   0.49410   0.00000  Uiso   1.00
C290   C     0.19750   0.40111   0.80174   0.00000  Uiso   1.00
C291   C     0.17984   0.37167   0.89669   0.00000  Uiso   1.00
C292   C     0.17785   0.38593   0.00254   0.00000  Uiso   1.00
C293   C     0.16058   0.35382   0.07761   0.00000  Uiso   1.00
C294   C     0.24488   0.37528   0.74783   0.00000  Uiso   1.00
C295   C     0.29755   0.39258   0.72850   0.00000  Uiso   1.00
C296   C     0.33503   0.36352   0.67824   0.00000  Uiso   1.00
C297   C     0.14921   0.39995   0.72306   0.00000  Uiso   1.00
C298   C     0.12146   0.43798   0.68290   0.00000  Uiso   1.00
C299   C     0.07841   0.42968   0.61175   0.00000  Uiso   1.00
H300   H     0.15893   0.28393   0.72360   0.00000  Uiso   1.00
H301   H     0.13646   0.26019   0.91867   0.00000  Uiso   1.00
H302   H     0.25614   0.26685   0.64466   0.00000  Uiso   1.00
H303   H     0.08008   0.31224   0.59907   0.00000  Uiso   1.00
H304   H     0.11807   0.25360   0.14810   0.00000  Uiso   1.00
H305   H     0.37042   0.26764   0.57031   0.00000  Uiso   1.00
H306   H     0.99916   0.36335   0.47416   0.00000  Uiso   1.00
H307   H     0.20897   0.43594   0.82496   0.00000  Uiso   1.00
H308   H     0.18925   0.42054   0.02560   0.00000  Uiso   1.00
H309   H     0.30893   0.42720   0.75159   0.00000  Uiso   1.00
H310   H     0.13287   0.47259   0.70600   0.00000  Uiso   1.00
H311   H     0.16091   0.38374   0.23489   0.00000  Uiso   1.00
H312   H     0.41327   0.39778   0.65710   0.00000  Uiso   1.00
H313   H     0.04201   0.49350   0.56095   0.00000  Uiso   1.00
O314   O     0.12563   0.30579   0.32166   0.00000  Uiso   1.00
O315   O     0.45670   0.32421   0.56360   0.00000  Uiso   1.00
O316   O     0.96963   0.44979   0.43746   0.00000  Uiso   1.00
N317   N     0.13084   0.28634   0.14099   0.00000  Uiso   1.00
N318   N     0.36678   0.29946   0.60081   0.00000  Uiso   1.00
N319   N     0.01970   0.38895   0.51089   0.00000  Uiso   1.00
N320   N     0.15390   0.35637   0.18769   0.00000  Uiso   1.00
N321   N     0.38984   0.36949   0.64751   0.00000  Uiso   1.00
N322   N     0.04276   0.45898   0.55759   0.00000  Uiso   1.00
C323   C     0.32961   0.68124   0.74682   0.00000  Uiso   1.00
C324   C     0.33488   0.67306   0.86686   0.00000  Uiso   1.00
C325   C     0.35215   0.70519   0.94178   0.00000  Uiso   1.00
C326   C     0.35417   0.69099   0.04772   0.00000  Uiso   1.00
C327   C     0.36457   0.68510   0.22959   0.00000  Uiso   1.00
C328   C     0.26985   0.66945   0.71800   0.00000  Uiso   1.00
C329   C     0.23245   0.69854   0.66774   0.00000  Uiso   1.00
C330   C     0.17973   0.68129   0.64836   0.00000  Uiso   1.00
C331   C     0.08918   0.66978   0.59904   0.00000  Uiso   1.00
C332   C     0.36551   0.64479   0.69324   0.00000  Uiso   1.00
C333   C     0.40853   0.65314   0.62213   0.00000  Uiso   1.00
C334   C     0.43634   0.61513   0.58187   0.00000  Uiso   1.00
C335   C     0.49432   0.56532   0.49410   0.00000  Uiso   1.00
C336   C     0.30250   0.59889   0.80174   0.00000  Uiso   1.00
C337   C     0.32016   0.62833   0.89669   0.00000  Uiso   1.00
C338   C     0.32215   0.61407   0.00254   0.00000  Uiso   1.00
C339   C     0.33942   0.64618   0.07761   0.00000  Uiso   1.00
C340   C     0.25512   0.62472   0.74783   0.00000  Uiso   1.00
C341   C     0.20245   0.60742   0.72850   0.00000  Uiso   1.00
C342   C     0.16497   0.63648   0.67824   0.00000  Uiso   1.00
C343   C     0.35079   0.60005   0.72306   0.00000  Uiso   1.00
C344   C     0.37854   0.56202   0.68290   0.00000  Uiso   1.00
C345   C     0.42159   0.57032   0.61175   0.00000  Uiso   1.00
H346   H     0.34107   0.71607   0.72360   0.00000  Uiso   1.00
H347   H     0.36354   0.73981   0.91867   0.00000  Uiso   1.00
H348   H     0.24386   0.73315   0.64466   0.00000  Uiso   1.00
H349   H     0.41992   0.68776   0.59907   0.00000  Uiso   1.00
H350   H     0.38193   0.74640   0.14810   0.00000  Uiso   1.00
H351   H     0.12958   0.73236   0.57031   0.00000  Uiso   1.00
H352   H     0.50084   0.63665   0.47416   0.00000  Uiso   1.00
H353   H     0.29103   0.56406   0.82496   0.00000  Uiso   1.00
H354   H     0.31075   0.57946   0.02560   0.00000  Uiso   1.00
H355   H     0.19107   0.57280   0.75159   0.00000  Uiso   1.00
H356   H     0.36713   0.52741   0.70600   0.00000  Uiso   1.00
H357   H     0.33909   0.61626   0.23489   0.00000  Uiso   1.00
H358   H     0.08673   0.60222   0.65710   0.00000  Uiso   1.00
H359   H     0.45799   0.50650   0.56095   0.00000  Uiso   1.00
O360   O     0.37437   0.69421   0.32166   0.00000  Uiso   1.00
O361   O     0.04330   0.67579   0.56360   0.00000  Uiso   1.00
O362   O     0.53037   0.55021   0.43746   0.00000  Uiso   1.00
N363   N     0.36916   0.71366   0.14099   0.00000  Uiso   1.00
N364   N     0.13322   0.70054   0.60081   0.00000  Uiso   1.00
N365   N     0.48030   0.61105   0.51089   0.00000  Uiso   1.00
N366   N     0.34610   0.64363   0.18769   0.00000  Uiso   1.00
N367   N     0.11016   0.63051   0.64751   0.00000  Uiso   1.00
N368   N     0.45724   0.54102   0.55759   0.00000  Uiso   1.00
