data_job_00987
_audit_creation_date              2018-12-19
_audit_creation_method            'Materials Studio'
_symmetry_space_group_name_H-M    'P1'
_symmetry_Int_Tables_number       1
_symmetry_cell_setting            triclinic
loop_
_symmetry_equiv_pos_as_xyz
  x,y,z
_cell_length_a                    16.1505
_cell_length_b                    17.0394
_cell_length_c                    16.8423
_cell_angle_alpha                 90.0000
_cell_angle_beta                  90.0000
_cell_angle_gamma                 90.0000
loop_
_atom_site_label
_atom_site_type_symbol
_atom_site_fract_x
_atom_site_fract_y
_atom_site_fract_z
_atom_site_U_iso_or_equiv
_atom_site_adp_type
_atom_site_occupancy
C1     C     0.31213   0.63618   0.53413   0.00000  Uiso   1.00
C2     C     0.31632   0.62743   0.44411   0.00000  Uiso   1.00
C3     C     0.29253   0.56163   0.40125   0.00000  Uiso   1.00
C4     C     0.30119   0.56521   0.31931   0.00000  Uiso   1.00
C5     C     0.30296   0.54140   0.18526   0.00000  Uiso   1.00
C6     C     0.39970   0.65654   0.56100   0.00000  Uiso   1.00
C7     C     0.44601   0.61522   0.61643   0.00000  Uiso   1.00
C8     C     0.52486   0.64331   0.63289   0.00000  Uiso   1.00
C9     C     0.65607   0.66474   0.68037   0.00000  Uiso   1.00
C10    C     0.25992   0.70912   0.54980   0.00000  Uiso   1.00
C11    C     0.18870   0.71202   0.59582   0.00000  Uiso   1.00
C12    C     0.14987   0.78439   0.60287   0.00000  Uiso   1.00
C13    C     0.06404   0.88745   0.63295   0.00000  Uiso   1.00
C14    C     0.36982   0.75954   0.46485   0.00000  Uiso   1.00
C15    C     0.34766   0.69443   0.40649   0.00000  Uiso   1.00
C16    C     0.35635   0.69811   0.32459   0.00000  Uiso   1.00
C17    C     0.33257   0.63233   0.28161   0.00000  Uiso   1.00
C18    C     0.43104   0.72354   0.52338   0.00000  Uiso   1.00
C19    C     0.50984   0.75170   0.53977   0.00000  Uiso   1.00
C20    C     0.55625   0.71043   0.59520   0.00000  Uiso   1.00
C21    C     0.29125   0.77612   0.51217   0.00000  Uiso   1.00
C22    C     0.25253   0.84850   0.51916   0.00000  Uiso   1.00
C23    C     0.18126   0.85151   0.56518   0.00000  Uiso   1.00
H24    H     0.28774   0.58402   0.56343   0.00000  Uiso   1.00
H25    H     0.26829   0.50979   0.43039   0.00000  Uiso   1.00
H26    H     0.42174   0.56338   0.64554   0.00000  Uiso   1.00
H27    H     0.16447   0.66016   0.62493   0.00000  Uiso   1.00
H28    H     0.26056   0.45702   0.26630   0.00000  Uiso   1.00
H29    H     0.58412   0.57004   0.71997   0.00000  Uiso   1.00
H30    H     0.04162   0.77412   0.67652   0.00000  Uiso   1.00
H31    H     0.39422   0.81170   0.43556   0.00000  Uiso   1.00
H32    H     0.38060   0.74997   0.29549   0.00000  Uiso   1.00
H33    H     0.53406   0.80355   0.51064   0.00000  Uiso   1.00
H34    H     0.27679   0.90033   0.49003   0.00000  Uiso   1.00
H35    H     0.35173   0.65196   0.15680   0.00000  Uiso   1.00
H36    H     0.67529   0.76497   0.61049   0.00000  Uiso   1.00
H37    H     0.13278   0.96905   0.56703   0.00000  Uiso   1.00
O38    O     0.29529   0.50976   0.12172   0.00000  Uiso   1.00
O39    O     0.71978   0.65803   0.71694   0.00000  Uiso   1.00
O40    O     0.00803   0.92578   0.65992   0.00000  Uiso   1.00
N41    N     0.28387   0.51138   0.25975   0.00000  Uiso   1.00
N42    N     0.58639   0.61703   0.68390   0.00000  Uiso   1.00
N43    N     0.07920   0.80784   0.64329   0.00000  Uiso   1.00
N44    N     0.33292   0.61627   0.20083   0.00000  Uiso   1.00
N45    N     0.63544   0.72193   0.62498   0.00000  Uiso   1.00
N46    N     0.12826   0.91273   0.58438   0.00000  Uiso   1.00
C47    C     0.18787   0.36382   0.03413   0.00000  Uiso   1.00
C48    C     0.18368   0.37257   0.94411   0.00000  Uiso   1.00
C49    C     0.20747   0.43837   0.90125   0.00000  Uiso   1.00
C50    C     0.19881   0.43479   0.81931   0.00000  Uiso   1.00
C51    C     0.19704   0.45860   0.68526   0.00000  Uiso   1.00
C52    C     0.10030   0.34346   0.06100   0.00000  Uiso   1.00
C53    C     0.05399   0.38478   0.11643   0.00000  Uiso   1.00
C54    C     0.97514   0.35669   0.13289   0.00000  Uiso   1.00
C55    C     0.84393   0.33526   0.18037   0.00000  Uiso   1.00
C56    C     0.24008   0.29088   0.04980   0.00000  Uiso   1.00
C57    C     0.31130   0.28798   0.09582   0.00000  Uiso   1.00
C58    C     0.35013   0.21561   0.10287   0.00000  Uiso   1.00
C59    C     0.43596   0.11255   0.13295   0.00000  Uiso   1.00
C60    C     0.13018   0.24046   0.96485   0.00000  Uiso   1.00
C61    C     0.15234   0.30557   0.90649   0.00000  Uiso   1.00
C62    C     0.14365   0.30189   0.82459   0.00000  Uiso   1.00
C63    C     0.16743   0.36767   0.78161   0.00000  Uiso   1.00
C64    C     0.06896   0.27646   0.02338   0.00000  Uiso   1.00
C65    C     0.99016   0.24830   0.03977   0.00000  Uiso   1.00
C66    C     0.94375   0.28957   0.09520   0.00000  Uiso   1.00
C67    C     0.20875   0.22388   0.01217   0.00000  Uiso   1.00
C68    C     0.24747   0.15150   0.01916   0.00000  Uiso   1.00
C69    C     0.31874   0.14849   0.06518   0.00000  Uiso   1.00
H70    H     0.21226   0.41598   0.06343   0.00000  Uiso   1.00
H71    H     0.23171   0.49021   0.93039   0.00000  Uiso   1.00
H72    H     0.07826   0.43662   0.14554   0.00000  Uiso   1.00
H73    H     0.33553   0.33984   0.12493   0.00000  Uiso   1.00
H74    H     0.23944   0.54298   0.76630   0.00000  Uiso   1.00
H75    H     0.91588   0.42996   0.21997   0.00000  Uiso   1.00
H76    H     0.45838   0.22588   0.17652   0.00000  Uiso   1.00
H77    H     0.10578   0.18830   0.93556   0.00000  Uiso   1.00
H78    H     0.11940   0.25003   0.79549   0.00000  Uiso   1.00
H79    H     0.96594   0.19645   0.01064   0.00000  Uiso   1.00
H80    H     0.22321   0.09967   0.99003   0.00000  Uiso   1.00
H81    H     0.14827   0.34804   0.65680   0.00000  Uiso   1.00
H82    H     0.82471   0.23503   0.11049   0.00000  Uiso   1.00
H83    H     0.36722   0.03095   0.06703   0.00000  Uiso   1.00
O84    O     0.20471   0.49024   0.62172   0.00000  Uiso   1.00
O85    O     0.78022   0.34197   0.21694   0.00000  Uiso   1.00
O86    O     0.49197   0.07422   0.15992   0.00000  Uiso   1.00
N87    N     0.21613   0.48862   0.75975   0.00000  Uiso   1.00
N88    N     0.91361   0.38297   0.18390   0.00000  Uiso   1.00
N89    N     0.42080   0.19216   0.14329   0.00000  Uiso   1.00
N90    N     0.16708   0.38373   0.70083   0.00000  Uiso   1.00
N91    N     0.86456   0.27807   0.12498   0.00000  Uiso   1.00
N92    N     0.37174   0.08727   0.08438   0.00000  Uiso   1.00
C93    C     0.68787   0.13618   0.96587   0.00000  Uiso   1.00
C94    C     0.68368   0.12743   0.05589   0.00000  Uiso   1.00
C95    C     0.70747   0.06163   0.09875   0.00000  Uiso   1.00
C96    C     0.69881   0.06521   0.18069   0.00000  Uiso   1.00
C97    C     0.69704   0.04140   0.31474   0.00000  Uiso   1.00
C98    C     0.60030   0.15654   0.93900   0.00000  Uiso   1.00
C99    C     0.55399   0.11522   0.88357   0.00000  Uiso   1.00
C100   C     0.47514   0.14331   0.86711   0.00000  Uiso   1.00
C101   C     0.34393   0.16474   0.81963   0.00000  Uiso   1.00
C102   C     0.74008   0.20912   0.95020   0.00000  Uiso   1.00
C103   C     0.81130   0.21202   0.90418   0.00000  Uiso   1.00
C104   C     0.85013   0.28439   0.89713   0.00000  Uiso   1.00
C105   C     0.93596   0.38745   0.86705   0.00000  Uiso   1.00
C106   C     0.63018   0.25954   0.03515   0.00000  Uiso   1.00
C107   C     0.65234   0.19443   0.09351   0.00000  Uiso   1.00
C108   C     0.64365   0.19811   0.17541   0.00000  Uiso   1.00
C109   C     0.66743   0.13233   0.21839   0.00000  Uiso   1.00
C110   C     0.56896   0.22354   0.97662   0.00000  Uiso   1.00
C111   C     0.49016   0.25170   0.96023   0.00000  Uiso   1.00
C112   C     0.44375   0.21043   0.90480   0.00000  Uiso   1.00
C113   C     0.70875   0.27612   0.98783   0.00000  Uiso   1.00
C114   C     0.74747   0.34850   0.98084   0.00000  Uiso   1.00
C115   C     0.81874   0.35151   0.93482   0.00000  Uiso   1.00
H116   H     0.71226   0.08402   0.93657   0.00000  Uiso   1.00
H117   H     0.73171   0.00979   0.06961   0.00000  Uiso   1.00
H118   H     0.57826   0.06338   0.85446   0.00000  Uiso   1.00
H119   H     0.83553   0.16016   0.87507   0.00000  Uiso   1.00
H120   H     0.73944   0.95702   0.23370   0.00000  Uiso   1.00
H121   H     0.41588   0.07004   0.78003   0.00000  Uiso   1.00
H122   H     0.95838   0.27412   0.82348   0.00000  Uiso   1.00
H123   H     0.60578   0.31170   0.06444   0.00000  Uiso   1.00
H124   H     0.61940   0.24997   0.20451   0.00000  Uiso   1.00
H125   H     0.46594   0.30355   0.98936   0.00000  Uiso   1.00
H126   H     0.72321   0.40033   0.00997   0.00000  Uiso   1.00
H127   H     0.64827   0.15196   0.34320   0.00000  Uiso   1.00
H128   H     0.32471   0.26497   0.88951   0.00000  Uiso   1.00
H129   H     0.86722   0.46905   0.93297   0.00000  Uiso   1.00
O130   O     0.70471   0.00976   0.37828   0.00000  Uiso   1.00
O131   O     0.28022   0.15803   0.78306   0.00000  Uiso   1.00
O132   O     0.99197   0.42578   0.84008   0.00000  Uiso   1.00
N133   N     0.71613   0.01138   0.24025   0.00000  Uiso   1.00
N134   N     0.41361   0.11703   0.81610   0.00000  Uiso   1.00
N135   N     0.92080   0.30784   0.85671   0.00000  Uiso   1.00
N136   N     0.66708   0.11627   0.29917   0.00000  Uiso   1.00
N137   N     0.36456   0.22193   0.87502   0.00000  Uiso   1.00
N138   N     0.87174   0.41273   0.91562   0.00000  Uiso   1.00
C139   C     0.81213   0.86382   0.46587   0.00000  Uiso   1.00
C140   C     0.81632   0.87257   0.55589   0.00000  Uiso   1.00
C141   C     0.79253   0.93837   0.59875   0.00000  Uiso   1.00
C142   C     0.80119   0.93479   0.68069   0.00000  Uiso   1.00
C143   C     0.80296   0.95860   0.81474   0.00000  Uiso   1.00
C144   C     0.89970   0.84346   0.43900   0.00000  Uiso   1.00
C145   C     0.94601   0.88478   0.38357   0.00000  Uiso   1.00
C146   C     0.02486   0.85669   0.36711   0.00000  Uiso   1.00
C147   C     0.15607   0.83526   0.31963   0.00000  Uiso   1.00
C148   C     0.75992   0.79088   0.45020   0.00000  Uiso   1.00
C149   C     0.68870   0.78798   0.40418   0.00000  Uiso   1.00
C150   C     0.64987   0.71561   0.39713   0.00000  Uiso   1.00
C151   C     0.56404   0.61255   0.36705   0.00000  Uiso   1.00
C152   C     0.86982   0.74046   0.53515   0.00000  Uiso   1.00
C153   C     0.84766   0.80557   0.59351   0.00000  Uiso   1.00
C154   C     0.85635   0.80189   0.67541   0.00000  Uiso   1.00
C155   C     0.83257   0.86767   0.71839   0.00000  Uiso   1.00
C156   C     0.93104   0.77646   0.47662   0.00000  Uiso   1.00
C157   C     0.00984   0.74830   0.46023   0.00000  Uiso   1.00
C158   C     0.05625   0.78957   0.40480   0.00000  Uiso   1.00
C159   C     0.79125   0.72388   0.48783   0.00000  Uiso   1.00
C160   C     0.75253   0.65150   0.48084   0.00000  Uiso   1.00
C161   C     0.68126   0.64849   0.43482   0.00000  Uiso   1.00
H162   H     0.78774   0.91598   0.43657   0.00000  Uiso   1.00
H163   H     0.76829   0.99021   0.56961   0.00000  Uiso   1.00
H164   H     0.92174   0.93662   0.35446   0.00000  Uiso   1.00
H165   H     0.66447   0.83984   0.37507   0.00000  Uiso   1.00
H166   H     0.76056   0.04298   0.73370   0.00000  Uiso   1.00
H167   H     0.08412   0.92996   0.28003   0.00000  Uiso   1.00
H168   H     0.54162   0.72588   0.32348   0.00000  Uiso   1.00
H169   H     0.89422   0.68830   0.56444   0.00000  Uiso   1.00
H170   H     0.88060   0.75003   0.70451   0.00000  Uiso   1.00
H171   H     0.03406   0.69645   0.48936   0.00000  Uiso   1.00
H172   H     0.77679   0.59967   0.50997   0.00000  Uiso   1.00
H173   H     0.85173   0.84804   0.84320   0.00000  Uiso   1.00
H174   H     0.17529   0.73503   0.38951   0.00000  Uiso   1.00
H175   H     0.63278   0.53095   0.43297   0.00000  Uiso   1.00
O176   O     0.79529   0.99024   0.87828   0.00000  Uiso   1.00
O177   O     0.21978   0.84197   0.28306   0.00000  Uiso   1.00
O178   O     0.50803   0.57422   0.34008   0.00000  Uiso   1.00
N179   N     0.78387   0.98862   0.74025   0.00000  Uiso   1.00
N180   N     0.08639   0.88297   0.31610   0.00000  Uiso   1.00
N181   N     0.57920   0.69216   0.35671   0.00000  Uiso   1.00
N182   N     0.83292   0.88373   0.79917   0.00000  Uiso   1.00
N183   N     0.13544   0.77807   0.37502   0.00000  Uiso   1.00
N184   N     0.62826   0.58727   0.41562   0.00000  Uiso   1.00
C185   C     0.68787   0.36382   0.46587   0.00000  Uiso   1.00
C186   C     0.68368   0.37257   0.55589   0.00000  Uiso   1.00
C187   C     0.70747   0.43837   0.59875   0.00000  Uiso   1.00
C188   C     0.69881   0.43479   0.68069   0.00000  Uiso   1.00
C189   C     0.69704   0.45860   0.81474   0.00000  Uiso   1.00
C190   C     0.60030   0.34346   0.43900   0.00000  Uiso   1.00
C191   C     0.55399   0.38478   0.38357   0.00000  Uiso   1.00
C192   C     0.47514   0.35669   0.36711   0.00000  Uiso   1.00
C193   C     0.34393   0.33526   0.31963   0.00000  Uiso   1.00
C194   C     0.74008   0.29088   0.45020   0.00000  Uiso   1.00
C195   C     0.81130   0.28798   0.40418   0.00000  Uiso   1.00
C196   C     0.85013   0.21561   0.39713   0.00000  Uiso   1.00
C197   C     0.93596   0.11255   0.36705   0.00000  Uiso   1.00
C198   C     0.63018   0.24046   0.53515   0.00000  Uiso   1.00
C199   C     0.65234   0.30557   0.59351   0.00000  Uiso   1.00
C200   C     0.64365   0.30189   0.67541   0.00000  Uiso   1.00
C201   C     0.66743   0.36767   0.71839   0.00000  Uiso   1.00
C202   C     0.56896   0.27646   0.47662   0.00000  Uiso   1.00
C203   C     0.49016   0.24830   0.46023   0.00000  Uiso   1.00
C204   C     0.44375   0.28957   0.40480   0.00000  Uiso   1.00
C205   C     0.70875   0.22388   0.48783   0.00000  Uiso   1.00
C206   C     0.74747   0.15150   0.48084   0.00000  Uiso   1.00
C207   C     0.81874   0.14849   0.43482   0.00000  Uiso   1.00
H208   H     0.71226   0.41598   0.43657   0.00000  Uiso   1.00
H209   H     0.73171   0.49021   0.56961   0.00000  Uiso   1.00
H210   H     0.57826   0.43662   0.35446   0.00000  Uiso   1.00
H211   H     0.83553   0.33984   0.37507   0.00000  Uiso   1.00
H212   H     0.73944   0.54298   0.73370   0.00000  Uiso   1.00
H213   H     0.41588   0.42996   0.28003   0.00000  Uiso   1.00
H214   H     0.95838   0.22588   0.32348   0.00000  Uiso   1.00
H215   H     0.60578   0.18830   0.56444   0.00000  Uiso   1.00
H216   H     0.61940   0.25003   0.70451   0.00000  Uiso   1.00
H217   H     0.46594   0.19645   0.48936   0.00000  Uiso   1.00
H218   H     0.72321   0.09967   0.50997   0.00000  Uiso   1.00
H219   H     0.64827   0.34804   0.84320   0.00000  Uiso   1.00
H220   H     0.32471   0.23503   0.38951   0.00000  Uiso   1.00
H221   H     0.86722   0.03095   0.43297   0.00000  Uiso   1.00
O222   O     0.70471   0.49024   0.87828   0.00000  Uiso   1.00
O223   O     0.28022   0.34197   0.28306   0.00000  Uiso   1.00
O224   O     0.99197   0.07422   0.34008   0.00000  Uiso   1.00
N225   N     0.71613   0.48862   0.74025   0.00000  Uiso   1.00
N226   N     0.41361   0.38297   0.31610   0.00000  Uiso   1.00
N227   N     0.92080   0.19216   0.35671   0.00000  Uiso   1.00
N228   N     0.66708   0.38373   0.79917   0.00000  Uiso   1.00
N229   N     0.36456   0.27807   0.37502   0.00000  Uiso   1.00
N230   N     0.87174   0.08727   0.41562   0.00000  Uiso   1.00
C231   C     0.81213   0.63618   0.96587   0.00000  Uiso   1.00
C232   C     0.81632   0.62743   0.05589   0.00000  Uiso   1.00
C233   C     0.79253   0.56163   0.09875   0.00000  Uiso   1.00
C234   C     0.80119   0.56521   0.18069   0.00000  Uiso   1.00
C235   C     0.80296   0.54140   0.31474   0.00000  Uiso   1.00
C236   C     0.89970   0.65654   0.93900   0.00000  Uiso   1.00
C237   C     0.94601   0.61522   0.88357   0.00000  Uiso   1.00
C238   C     0.02486   0.64331   0.86711   0.00000  Uiso   1.00
C239   C     0.15607   0.66474   0.81963   0.00000  Uiso   1.00
C240   C     0.75992   0.70912   0.95020   0.00000  Uiso   1.00
C241   C     0.68870   0.71202   0.90418   0.00000  Uiso   1.00
C242   C     0.64987   0.78439   0.89713   0.00000  Uiso   1.00
C243   C     0.56404   0.88745   0.86705   0.00000  Uiso   1.00
C244   C     0.86982   0.75954   0.03515   0.00000  Uiso   1.00
C245   C     0.84766   0.69443   0.09351   0.00000  Uiso   1.00
C246   C     0.85635   0.69811   0.17541   0.00000  Uiso   1.00
C247   C     0.83257   0.63233   0.21839   0.00000  Uiso   1.00
C248   C     0.93104   0.72354   0.97662   0.00000  Uiso   1.00
C249   C     0.00984   0.75170   0.96023   0.00000  Uiso   1.00
C250   C     0.05625   0.71043   0.90480   0.00000  Uiso   1.00
C251   C     0.79125   0.77612   0.98783   0.00000  Uiso   1.00
C252   C     0.75253   0.84850   0.98084   0.00000  Uiso   1.00
C253   C     0.68126   0.85151   0.93482   0.00000  Uiso   1.00
H254   H     0.78774   0.58402   0.93657   0.00000  Uiso   1.00
H255   H     0.76829   0.50979   0.06961   0.00000  Uiso   1.00
H256   H     0.92174   0.56338   0.85446   0.00000  Uiso   1.00
H257   H     0.66447   0.66016   0.87507   0.00000  Uiso   1.00
H258   H     0.76056   0.45702   0.23370   0.00000  Uiso   1.00
H259   H     0.08412   0.57004   0.78003   0.00000  Uiso   1.00
H260   H     0.54162   0.77412   0.82348   0.00000  Uiso   1.00
H261   H     0.89422   0.81170   0.06444   0.00000  Uiso   1.00
H262   H     0.88060   0.74997   0.20451   0.00000  Uiso   1.00
H263   H     0.03406   0.80355   0.98936   0.00000  Uiso   1.00
H264   H     0.77679   0.90033   0.00997   0.00000  Uiso   1.00
H265   H     0.85173   0.65196   0.34320   0.00000  Uiso   1.00
H266   H     0.17529   0.76497   0.88951   0.00000  Uiso   1.00
H267   H     0.63278   0.96905   0.93297   0.00000  Uiso   1.00
O268   O     0.79529   0.50976   0.37828   0.00000  Uiso   1.00
O269   O     0.21978   0.65803   0.78306   0.00000  Uiso   1.00
O270   O     0.50803   0.92578   0.84008   0.00000  Uiso   1.00
N271   N     0.78387   0.51138   0.24025   0.00000  Uiso   1.00
N272   N     0.08639   0.61703   0.81610   0.00000  Uiso   1.00
N273   N     0.57920   0.80784   0.85671   0.00000  Uiso   1.00
N274   N     0.83292   0.61627   0.29917   0.00000  Uiso   1.00
N275   N     0.13544   0.72193   0.87502   0.00000  Uiso   1.00
N276   N     0.62826   0.91273   0.91562   0.00000  Uiso   1.00
C277   C     0.31213   0.86382   0.03413   0.00000  Uiso   1.00
C278   C     0.31632   0.87257   0.94411   0.00000  Uiso   1.00
C279   C     0.29253   0.93837   0.90125   0.00000  Uiso   1.00
C280   C     0.30119   0.93479   0.81931   0.00000  Uiso   1.00
C281   C     0.30296   0.95860   0.68526   0.00000  Uiso   1.00
C282   C     0.39970   0.84346   0.06100   0.00000  Uiso   1.00
C283   C     0.44601   0.88478   0.11643   0.00000  Uiso   1.00
C284   C     0.52486   0.85669   0.13289   0.00000  Uiso   1.00
C285   C     0.65607   0.83526   0.18037   0.00000  Uiso   1.00
C286   C     0.25992   0.79088   0.04980   0.00000  Uiso   1.00
C287   C     0.18870   0.78798   0.09582   0.00000  Uiso   1.00
C288   C     0.14987   0.71561   0.10287   0.00000  Uiso   1.00
C289   C     0.06404   0.61255   0.13295   0.00000  Uiso   1.00
C290   C     0.36982   0.74046   0.96485   0.00000  Uiso   1.00
C291   C     0.34766   0.80557   0.90649   0.00000  Uiso   1.00
C292   C     0.35635   0.80189   0.82459   0.00000  Uiso   1.00
C293   C     0.33257   0.86767   0.78161   0.00000  Uiso   1.00
C294   C     0.43104   0.77646   0.02338   0.00000  Uiso   1.00
C295   C     0.50984   0.74830   0.03977   0.00000  Uiso   1.00
C296   C     0.55625   0.78957   0.09520   0.00000  Uiso   1.00
C297   C     0.29125   0.72388   0.01217   0.00000  Uiso   1.00
C298   C     0.25253   0.65150   0.01916   0.00000  Uiso   1.00
C299   C     0.18126   0.64849   0.06518   0.00000  Uiso   1.00
H300   H     0.28774   0.91598   0.06343   0.00000  Uiso   1.00
H301   H     0.26829   0.99021   0.93039   0.00000  Uiso   1.00
H302   H     0.42174   0.93662   0.14554   0.00000  Uiso   1.00
H303   H     0.16447   0.83984   0.12493   0.00000  Uiso   1.00
H304   H     0.26056   0.04298   0.76630   0.00000  Uiso   1.00
H305   H     0.58412   0.92996   0.21997   0.00000  Uiso   1.00
H306   H     0.04162   0.72588   0.17652   0.00000  Uiso   1.00
H307   H     0.39422   0.68830   0.93556   0.00000  Uiso   1.00
H308   H     0.38060   0.75003   0.79549   0.00000  Uiso   1.00
H309   H     0.53406   0.69645   0.01064   0.00000  Uiso   1.00
H310   H     0.27679   0.59967   0.99003   0.00000  Uiso   1.00
H311   H     0.35173   0.84804   0.65680   0.00000  Uiso   1.00
H312   H     0.67529   0.73503   0.11049   0.00000  Uiso   1.00
H313   H     0.13278   0.53095   0.06703   0.00000  Uiso   1.00
O314   O     0.29529   0.99024   0.62172   0.00000  Uiso   1.00
O315   O     0.71978   0.84197   0.21694   0.00000  Uiso   1.00
O316   O     0.00803   0.57422   0.15992   0.00000  Uiso   1.00
N317   N     0.28387   0.98862   0.75975   0.00000  Uiso   1.00
N318   N     0.58639   0.88297   0.18390   0.00000  Uiso   1.00
N319   N     0.07920   0.69216   0.14329   0.00000  Uiso   1.00
N320   N     0.33292   0.88373   0.70083   0.00000  Uiso   1.00
N321   N     0.63544   0.77807   0.12498   0.00000  Uiso   1.00
N322   N     0.12826   0.58727   0.08438   0.00000  Uiso   1.00
C323   C     0.18787   0.13618   0.53413   0.00000  Uiso   1.00
C324   C     0.18368   0.12743   0.44411   0.00000  Uiso   1.00
C325   C     0.20747   0.06163   0.40125   0.00000  Uiso   1.00
C326   C     0.19881   0.06521   0.31931   0.00000  Uiso   1.00
C327   C     0.19704   0.04140   0.18526   0.00000  Uiso   1.00
C328   C     0.10030   0.15654   0.56100   0.00000  Uiso   1.00
C329   C     0.05399   0.11522   0.61643   0.00000  Uiso   1.00
C330   C     0.97514   0.14331   0.63289   0.00000  Uiso   1.00
C331   C     0.84393   0.16474   0.68037   0.00000  Uiso   1.00
C332   C     0.24008   0.20912   0.54980   0.00000  Uiso   1.00
C333   C     0.31130   0.21202   0.59582   0.00000  Uiso   1.00
C334   C     0.35013   0.28439   0.60287   0.00000  Uiso   1.00
C335   C     0.43596   0.38745   0.63295   0.00000  Uiso   1.00
C336   C     0.13018   0.25954   0.46485   0.00000  Uiso   1.00
C337   C     0.15234   0.19443   0.40649   0.00000  Uiso   1.00
C338   C     0.14365   0.19811   0.32459   0.00000  Uiso   1.00
C339   C     0.16743   0.13233   0.28161   0.00000  Uiso   1.00
C340   C     0.06896   0.22354   0.52338   0.00000  Uiso   1.00
C341   C     0.99016   0.25170   0.53977   0.00000  Uiso   1.00
C342   C     0.94375   0.21043   0.59520   0.00000  Uiso   1.00
C343   C     0.20875   0.27612   0.51217   0.00000  Uiso   1.00
C344   C     0.24747   0.34850   0.51916   0.00000  Uiso   1.00
C345   C     0.31874   0.35151   0.56518   0.00000  Uiso   1.00
H346   H     0.21226   0.08402   0.56343   0.00000  Uiso   1.00
H347   H     0.23171   0.00979   0.43039   0.00000  Uiso   1.00
H348   H     0.07826   0.06338   0.64554   0.00000  Uiso   1.00
H349   H     0.33553   0.16016   0.62493   0.00000  Uiso   1.00
H350   H     0.23944   0.95702   0.26630   0.00000  Uiso   1.00
H351   H     0.91588   0.07004   0.71997   0.00000  Uiso   1.00
H352   H     0.45838   0.27412   0.67652   0.00000  Uiso   1.00
H353   H     0.10578   0.31170   0.43556   0.00000  Uiso   1.00
H354   H     0.11940   0.24997   0.29549   0.00000  Uiso   1.00
H355   H     0.96594   0.30355   0.51064   0.00000  Uiso   1.00
H356   H     0.22321   0.40033   0.49003   0.00000  Uiso   1.00
H357   H     0.14827   0.15196   0.15680   0.00000  Uiso   1.00
H358   H     0.82471   0.26497   0.61049   0.00000  Uiso   1.00
H359   H     0.36722   0.46905   0.56703   0.00000  Uiso   1.00
O360   O     0.20471   0.00976   0.12172   0.00000  Uiso   1.00
O361   O     0.78022   0.15803   0.71694   0.00000  Uiso   1.00
O362   O     0.49197   0.42578   0.65992   0.00000  Uiso   1.00
N363   N     0.21613   0.01138   0.25975   0.00000  Uiso   1.00
N364   N     0.91361   0.11703   0.68390   0.00000  Uiso   1.00
N365   N     0.42080   0.30784   0.64329   0.00000  Uiso   1.00
N366   N     0.16708   0.11627   0.20083   0.00000  Uiso   1.00
N367   N     0.86456   0.22193   0.62498   0.00000  Uiso   1.00
N368   N     0.37174   0.41273   0.58438   0.00000  Uiso   1.00
