data_job_06607
_audit_creation_date              2018-12-19
_audit_creation_method            'Materials Studio'
_symmetry_space_group_name_H-M    'P1'
_symmetry_Int_Tables_number       1
_symmetry_cell_setting            triclinic
loop_
_symmetry_equiv_pos_as_xyz
  x,y,z
_cell_length_a                    23.9157
_cell_length_b                    14.6664
_cell_length_c                    25.4277
_cell_angle_alpha                 94.8337
_cell_angle_beta                  72.7628
_cell_angle_gamma                 93.7917
loop_
_atom_site_label
_atom_site_type_symbol
_atom_site_fract_x
_atom_site_fract_y
_atom_site_fract_z
_atom_site_U_iso_or_equiv
_atom_site_adp_type
_atom_site_occupancy
C1     C     0.11876   0.55689   0.65475   0.00000  Uiso   1.00
C2     C     0.07086   0.62082   0.68729   0.00000  Uiso   1.00
C3     C     0.01977   0.59529   0.72703   0.00000  Uiso   1.00
C4     C     0.98147   0.66397   0.75211   0.00000  Uiso   1.00
C5     C     0.90520   0.74939   0.80478   0.00000  Uiso   1.00
C6     C     0.12569   0.56768   0.59399   0.00000  Uiso   1.00
C7     C     0.12070   0.49748   0.55527   0.00000  Uiso   1.00
C8     C     0.12856   0.52143   0.50180   0.00000  Uiso   1.00
C9     C     0.13745   0.52436   0.40961   0.00000  Uiso   1.00
C10    C     0.17538   0.59686   0.66505   0.00000  Uiso   1.00
C11    C     0.21217   0.55118   0.68607   0.00000  Uiso   1.00
C12    C     0.26188   0.59969   0.69241   0.00000  Uiso   1.00
C13    C     0.34792   0.64792   0.71055   0.00000  Uiso   1.00
C14    C     0.14161   0.72426   0.62862   0.00000  Uiso   1.00
C15    C     0.08328   0.71172   0.67310   0.00000  Uiso   1.00
C16    C     0.04505   0.78046   0.69812   0.00000  Uiso   1.00
C17    C     0.99390   0.75504   0.73789   0.00000  Uiso   1.00
C18    C     0.13810   0.65859   0.57979   0.00000  Uiso   1.00
C19    C     0.14598   0.68265   0.52637   0.00000  Uiso   1.00
C20    C     0.14099   0.61250   0.48758   0.00000  Uiso   1.00
C21    C     0.18779   0.68777   0.65086   0.00000  Uiso   1.00
C22    C     0.23745   0.73635   0.65716   0.00000  Uiso   1.00
C23    C     0.27432   0.69076   0.67819   0.00000  Uiso   1.00
H24    H     0.10909   0.48612   0.66579   0.00000  Uiso   1.00
H25    H     0.01017   0.52493   0.73800   0.00000  Uiso   1.00
H26    H     0.11109   0.42714   0.56627   0.00000  Uiso   1.00
H27    H     0.20255   0.48083   0.69704   0.00000  Uiso   1.00
H28    H     0.90597   0.60804   0.81178   0.00000  Uiso   1.00
H29    H     0.11878   0.40184   0.44967   0.00000  Uiso   1.00
H30    H     0.31165   0.51506   0.72544   0.00000  Uiso   1.00
H31    H     0.15127   0.79503   0.61757   0.00000  Uiso   1.00
H32    H     0.05467   0.85080   0.68713   0.00000  Uiso   1.00
H33    H     0.15559   0.75300   0.51540   0.00000  Uiso   1.00
H34    H     0.24705   0.80670   0.64617   0.00000  Uiso   1.00
H35    H     0.94208   0.87253   0.77049   0.00000  Uiso   1.00
H36    H     0.15490   0.66632   0.40838   0.00000  Uiso   1.00
H37    H     0.34776   0.77955   0.68415   0.00000  Uiso   1.00
O38    O     0.85970   0.77140   0.83775   0.00000  Uiso   1.00
O39    O     0.13892   0.50085   0.36268   0.00000  Uiso   1.00
O40    O     0.39195   0.64941   0.72448   0.00000  Uiso   1.00
N41    N     0.92773   0.66264   0.79252   0.00000  Uiso   1.00
N42    N     0.12669   0.46985   0.45398   0.00000  Uiso   1.00
N43    N     0.30701   0.57570   0.71178   0.00000  Uiso   1.00
N44    N     0.94716   0.80496   0.77031   0.00000  Uiso   1.00
N45    N     0.14612   0.61217   0.43176   0.00000  Uiso   1.00
N46    N     0.32644   0.71802   0.68956   0.00000  Uiso   1.00
C47    C     0.64480   0.12128   0.72794   0.00000  Uiso   1.00
C48    C     0.69549   0.06033   0.72346   0.00000  Uiso   1.00
C49    C     0.75008   0.06468   0.68441   0.00000  Uiso   1.00
C50    C     0.79050   0.00294   0.68724   0.00000  Uiso   1.00
C51    C     0.87128   0.91797   0.67411   0.00000  Uiso   1.00
C52    C     0.59303   0.05665   0.72498   0.00000  Uiso   1.00
C53    C     0.56147   0.05792   0.68722   0.00000  Uiso   1.00
C54    C     0.51563   0.99308   0.69134   0.00000  Uiso   1.00
C55    C     0.43731   0.90245   0.68059   0.00000  Uiso   1.00
C56    C     0.62856   0.16640   0.78641   0.00000  Uiso   1.00
C57    C     0.62686   0.25995   0.80031   0.00000  Uiso   1.00
C58    C     0.61092   0.28751   0.85615   0.00000  Uiso   1.00
C59    C     0.58777   0.36728   0.94079   0.00000  Uiso   1.00
C60    C     0.61950   0.00389   0.80240   0.00000  Uiso   1.00
C61    C     0.68174   0.99657   0.76390   0.00000  Uiso   1.00
C62    C     0.72209   0.93480   0.76679   0.00000  Uiso   1.00
C63    C     0.77674   0.93906   0.72776   0.00000  Uiso   1.00
C64    C     0.57929   0.99289   0.76542   0.00000  Uiso   1.00
C65    C     0.53348   0.92804   0.76960   0.00000  Uiso   1.00
C66    C     0.50187   0.92921   0.73185   0.00000  Uiso   1.00
C67    C     0.61482   0.10264   0.82686   0.00000  Uiso   1.00
C68    C     0.59887   0.13007   0.88269   0.00000  Uiso   1.00
C69    C     0.59716   0.22364   0.89667   0.00000  Uiso   1.00
H70    H     0.65550   0.17091   0.69645   0.00000  Uiso   1.00
H71    H     0.76070   0.11403   0.65311   0.00000  Uiso   1.00
H72    H     0.57211   0.10727   0.65593   0.00000  Uiso   1.00
H73    H     0.63750   0.30927   0.76900   0.00000  Uiso   1.00
H74    H     0.87126   0.02282   0.62289   0.00000  Uiso   1.00
H75    H     0.47361   0.00860   0.62883   0.00000  Uiso   1.00
H76    H     0.61148   0.43454   0.86726   0.00000  Uiso   1.00
H77    H     0.60880   0.95425   0.83389   0.00000  Uiso   1.00
H78    H     0.71144   0.88547   0.79809   0.00000  Uiso   1.00
H79    H     0.52286   0.87871   0.80090   0.00000  Uiso   1.00
H80    H     0.58824   0.08071   0.91397   0.00000  Uiso   1.00
H81    H     0.83128   0.83731   0.74056   0.00000  Uiso   1.00
H82    H     0.43363   0.82309   0.74650   0.00000  Uiso   1.00
H83    H     0.57150   0.24903   0.98493   0.00000  Uiso   1.00
O84    O     0.91963   0.88871   0.65568   0.00000  Uiso   1.00
O85    O     0.39792   0.87007   0.66349   0.00000  Uiso   1.00
O86    O     0.57881   0.42889   0.97630   0.00000  Uiso   1.00
N87    N     0.84777   0.98861   0.65550   0.00000  Uiso   1.00
N88    N     0.47599   0.97530   0.66105   0.00000  Uiso   1.00
N89    N     0.60488   0.37352   0.88397   0.00000  Uiso   1.00
N90    N     0.82626   0.88879   0.71882   0.00000  Uiso   1.00
N91    N     0.45448   0.87548   0.72437   0.00000  Uiso   1.00
N92    N     0.58337   0.27370   0.94728   0.00000  Uiso   1.00
C93    C     0.60008   0.72545   0.12886   0.00000  Uiso   1.00
C94    C     0.64884   0.75982   0.08003   0.00000  Uiso   1.00
C95    C     0.64286   0.82182   0.04392   0.00000  Uiso   1.00
C96    C     0.69272   0.84454   0.00187   0.00000  Uiso   1.00
C97    C     0.76023   0.90366   0.92690   0.00000  Uiso   1.00
C98    C     0.59771   0.62130   0.11993   0.00000  Uiso   1.00
C99    C     0.54875   0.56684   0.11738   0.00000  Uiso   1.00
C100   C     0.55556   0.47296   0.10894   0.00000  Uiso   1.00
C101   C     0.54369   0.31702   0.09595   0.00000  Uiso   1.00
C102   C     0.62164   0.74731   0.17945   0.00000  Uiso   1.00
C103   C     0.59279   0.79877   0.22695   0.00000  Uiso   1.00
C104   C     0.61975   0.81095   0.26862   0.00000  Uiso   1.00
C105   C     0.64502   0.85065   0.34805   0.00000  Uiso   1.00
C106   C     0.69924   0.65555   0.11840   0.00000  Uiso   1.00
C107   C     0.70270   0.72186   0.07435   0.00000  Uiso   1.00
C108   C     0.75258   0.74449   0.03235   0.00000  Uiso   1.00
C109   C     0.74668   0.80652   0.99618   0.00000  Uiso   1.00
C110   C     0.65157   0.58334   0.11425   0.00000  Uiso   1.00
C111   C     0.65846   0.48951   0.10581   0.00000  Uiso   1.00
C112   C     0.60952   0.43492   0.10324   0.00000  Uiso   1.00
C113   C     0.67551   0.70935   0.17377   0.00000  Uiso   1.00
C114   C     0.70251   0.72144   0.21538   0.00000  Uiso   1.00
C115   C     0.67370   0.77292   0.26293   0.00000  Uiso   1.00
H116   H     0.55815   0.75500   0.13328   0.00000  Uiso   1.00
H117   H     0.60117   0.85118   0.04833   0.00000  Uiso   1.00
H118   H     0.50707   0.59624   0.12179   0.00000  Uiso   1.00
H119   H     0.55111   0.82813   0.23133   0.00000  Uiso   1.00
H120   H     0.67262   0.94105   0.95162   0.00000  Uiso   1.00
H121   H     0.47420   0.40349   0.10653   0.00000  Uiso   1.00
H122   H     0.56706   0.89249   0.33754   0.00000  Uiso   1.00
H123   H     0.74118   0.62599   0.11398   0.00000  Uiso   1.00
H124   H     0.79425   0.71510   0.02796   0.00000  Uiso   1.00
H125   H     0.70015   0.46016   0.10142   0.00000  Uiso   1.00
H126   H     0.74419   0.69206   0.21097   0.00000  Uiso   1.00
H127   H     0.82933   0.83060   0.93509   0.00000  Uiso   1.00
H128   H     0.63091   0.29304   0.09000   0.00000  Uiso   1.00
H129   H     0.72377   0.78204   0.32100   0.00000  Uiso   1.00
O130   O     0.78258   0.94675   0.88711   0.00000  Uiso   1.00
O131   O     0.52226   0.24149   0.09035   0.00000  Uiso   1.00
O132   O     0.64409   0.88305   0.39342   0.00000  Uiso   1.00
N133   N     0.70222   0.90284   0.95954   0.00000  Uiso   1.00
N134   N     0.51671   0.40026   0.10436   0.00000  Uiso   1.00
N135   N     0.60352   0.85740   0.32034   0.00000  Uiso   1.00
N136   N     0.78655   0.84341   0.95064   0.00000  Uiso   1.00
N137   N     0.60104   0.34083   0.09547   0.00000  Uiso   1.00
N138   N     0.68785   0.79797   0.31144   0.00000  Uiso   1.00
C139   C     0.68994   0.25765   0.20438   0.00000  Uiso   1.00
C140   C     0.64416   0.32291   0.23942   0.00000  Uiso   1.00
C141   C     0.64941   0.41783   0.24098   0.00000  Uiso   1.00
C142   C     0.60267   0.46527   0.27570   0.00000  Uiso   1.00
C143   C     0.53920   0.57360   0.32522   0.00000  Uiso   1.00
C144   C     0.65907   0.19535   0.16956   0.00000  Uiso   1.00
C145   C     0.67687   0.18301   0.11239   0.00000  Uiso   1.00
C146   C     0.64268   0.12305   0.08831   0.00000  Uiso   1.00
C147   C     0.60240   0.03328   0.02937   0.00000  Uiso   1.00
C148   C     0.70329   0.19674   0.24450   0.00000  Uiso   1.00
C149   C     0.75827   0.18555   0.25034   0.00000  Uiso   1.00
C150   C     0.76131   0.12674   0.28934   0.00000  Uiso   1.00
C151   C     0.78968   0.03914   0.34677   0.00000  Uiso   1.00
C152   C     0.59759   0.17310   0.26325   0.00000  Uiso   1.00
C153   C     0.59400   0.27699   0.27139   0.00000  Uiso   1.00
C154   C     0.54724   0.32430   0.30612   0.00000  Uiso   1.00
C155   C     0.55242   0.41927   0.30774   0.00000  Uiso   1.00
C156   C     0.60891   0.14943   0.20153   0.00000  Uiso   1.00
C157   C     0.57470   0.08947   0.17753   0.00000  Uiso   1.00
C158   C     0.59243   0.07705   0.12034   0.00000  Uiso   1.00
C159   C     0.65313   0.15082   0.27648   0.00000  Uiso   1.00
C160   C     0.65609   0.09201   0.31548   0.00000  Uiso   1.00
C161   C     0.71106   0.08074   0.32138   0.00000  Uiso   1.00
H162   H     0.72899   0.29339   0.17948   0.00000  Uiso   1.00
H163   H     0.68824   0.45334   0.21623   0.00000  Uiso   1.00
H164   H     0.71569   0.21855   0.08766   0.00000  Uiso   1.00
H165   H     0.79708   0.22109   0.22559   0.00000  Uiso   1.00
H166   H     0.62092   0.61043   0.27105   0.00000  Uiso   1.00
H167   H     0.67883   0.11532   0.99996   0.00000  Uiso   1.00
H168   H     0.85044   0.12069   0.29081   0.00000  Uiso   1.00
H169   H     0.55853   0.13735   0.28815   0.00000  Uiso   1.00
H170   H     0.50842   0.28874   0.33086   0.00000  Uiso   1.00
H171   H     0.53588   0.05394   0.20229   0.00000  Uiso   1.00
H172   H     0.61726   0.05649   0.34022   0.00000  Uiso   1.00
H173   H     0.47498   0.47683   0.36409   0.00000  Uiso   1.00
H174   H     0.53289   0.98172   0.09299   0.00000  Uiso   1.00
H175   H     0.70450   0.98709   0.38385   0.00000  Uiso   1.00
O176   O     0.51805   0.64603   0.34369   0.00000  Uiso   1.00
O177   O     0.59403   0.99646   0.98803   0.00000  Uiso   1.00
O178   O     0.81918   0.00351   0.36962   0.00000  Uiso   1.00
N179   N     0.59345   0.55821   0.28709   0.00000  Uiso   1.00
N180   N     0.64759   0.09533   0.03364   0.00000  Uiso   1.00
N181   N     0.80804   0.10032   0.30555   0.00000  Uiso   1.00
N182   N     0.51492   0.48632   0.33716   0.00000  Uiso   1.00
N183   N     0.56906   0.02344   0.08370   0.00000  Uiso   1.00
N184   N     0.72951   0.02843   0.35561   0.00000  Uiso   1.00
C185   C     0.13523   0.11400   0.74846   0.00000  Uiso   1.00
C186   C     0.19874   0.13158   0.71459   0.00000  Uiso   1.00
C187   C     0.24305   0.06995   0.70344   0.00000  Uiso   1.00
C188   C     0.29822   0.09907   0.67167   0.00000  Uiso   1.00
C189   C     0.39524   0.11302   0.62208   0.00000  Uiso   1.00
C190   C     0.09799   0.13089   0.71113   0.00000  Uiso   1.00
C191   C     0.05759   0.06868   0.69708   0.00000  Uiso   1.00
C192   C     0.02794   0.09723   0.66240   0.00000  Uiso   1.00
C193   C     0.96852   0.11013   0.60747   0.00000  Uiso   1.00
C194   C     0.12209   0.19006   0.79456   0.00000  Uiso   1.00
C195   C     0.10195   0.17762   0.85067   0.00000  Uiso   1.00
C196   C     0.09258   0.25598   0.88624   0.00000  Uiso   1.00
C197   C     0.07059   0.36076   0.96086   0.00000  Uiso   1.00
C198   C     0.15440   0.27529   0.71184   0.00000  Uiso   1.00
C199   C     0.20914   0.21918   0.69470   0.00000  Uiso   1.00
C200   C     0.26426   0.24840   0.66293   0.00000  Uiso   1.00
C201   C     0.30865   0.18683   0.65175   0.00000  Uiso   1.00
C202   C     0.10840   0.21849   0.69124   0.00000  Uiso   1.00
C203   C     0.07880   0.24713   0.65657   0.00000  Uiso   1.00
C204   C     0.03837   0.18499   0.64248   0.00000  Uiso   1.00
C205   C     0.13251   0.27767   0.77468   0.00000  Uiso   1.00
C206   C     0.12316   0.35607   0.81016   0.00000  Uiso   1.00
C207   C     0.10301   0.34375   0.86632   0.00000  Uiso   1.00
H208   H     0.12712   0.04579   0.76394   0.00000  Uiso   1.00
H209   H     0.23497   0.00216   0.71884   0.00000  Uiso   1.00
H210   H     0.04954   0.00090   0.71248   0.00000  Uiso   1.00
H211   H     0.09390   0.10981   0.86605   0.00000  Uiso   1.00
H212   H     0.35914   0.99241   0.66005   0.00000  Uiso   1.00
H213   H     0.96813   0.98975   0.64666   0.00000  Uiso   1.00
H214   H     0.06166   0.21942   0.97049   0.00000  Uiso   1.00
H215   H     0.16250   0.34350   0.69636   0.00000  Uiso   1.00
H216   H     0.27230   0.31620   0.64755   0.00000  Uiso   1.00
H217   H     0.08687   0.31494   0.64119   0.00000  Uiso   1.00
H218   H     0.13122   0.42385   0.79476   0.00000  Uiso   1.00
H219   H     0.38943   0.24729   0.60219   0.00000  Uiso   1.00
H220   H     0.99842   0.24464   0.58880   0.00000  Uiso   1.00
H221   H     0.09195   0.47431   0.91263   0.00000  Uiso   1.00
O222   O     0.44587   0.09651   0.60021   0.00000  Uiso   1.00
O223   O     0.93287   0.09303   0.58266   0.00000  Uiso   1.00
O224   O     0.05559   0.39436   0.00751   0.00000  Uiso   1.00
N225   N     0.35120   0.05615   0.65314   0.00000  Uiso   1.00
N226   N     0.98564   0.05366   0.64062   0.00000  Uiso   1.00
N227   N     0.07306   0.26838   0.94337   0.00000  Uiso   1.00
N228   N     0.36750   0.19330   0.62200   0.00000  Uiso   1.00
N229   N     0.00194   0.19081   0.60948   0.00000  Uiso   1.00
N230   N     0.08937   0.40554   0.91223   0.00000  Uiso   1.00
C231   C     0.12659   0.57806   0.22055   0.00000  Uiso   1.00
C232   C     0.18013   0.53079   0.22412   0.00000  Uiso   1.00
C233   C     0.17937   0.44735   0.24637   0.00000  Uiso   1.00
C234   C     0.23303   0.41574   0.24576   0.00000  Uiso   1.00
C235   C     0.30819   0.33470   0.25463   0.00000  Uiso   1.00
C236   C     0.13762   0.59383   0.15973   0.00000  Uiso   1.00
C237   C     0.10111   0.56339   0.12784   0.00000  Uiso   1.00
C238   C     0.11898   0.58486   0.07302   0.00000  Uiso   1.00
C239   C     0.12811   0.60174   0.98194   0.00000  Uiso   1.00
C240   C     0.12824   0.67278   0.24994   0.00000  Uiso   1.00
C241   C     0.08385   0.70873   0.29390   0.00000  Uiso   1.00
C242   C     0.09382   0.79668   0.31503   0.00000  Uiso   1.00
C243   C     0.08840   0.93615   0.36402   0.00000  Uiso   1.00
C244   C     0.22323   0.67032   0.17990   0.00000  Uiso   1.00
C245   C     0.23262   0.58091   0.20204   0.00000  Uiso   1.00
C246   C     0.28630   0.54942   0.20140   0.00000  Uiso   1.00
C247   C     0.28562   0.46594   0.22364   0.00000  Uiso   1.00
C248   C     0.19011   0.64394   0.13765   0.00000  Uiso   1.00
C249   C     0.20803   0.66547   0.08287   0.00000  Uiso   1.00
C250   C     0.17157   0.63506   0.05090   0.00000  Uiso   1.00
C251   C     0.18074   0.72289   0.22787   0.00000  Uiso   1.00
C252   C     0.19078   0.81081   0.24893   0.00000  Uiso   1.00
C253   C     0.14641   0.84689   0.29291   0.00000  Uiso   1.00
H254   H     0.08572   0.53905   0.23774   0.00000  Uiso   1.00
H255   H     0.13874   0.40858   0.26345   0.00000  Uiso   1.00
H256   H     0.06049   0.52462   0.14494   0.00000  Uiso   1.00
H257   H     0.04323   0.66993   0.31097   0.00000  Uiso   1.00
H258   H     0.22067   0.28602   0.28219   0.00000  Uiso   1.00
H259   H     0.05566   0.53072   0.03232   0.00000  Uiso   1.00
H260   H     0.01928   0.83715   0.38244   0.00000  Uiso   1.00
H261   H     0.26410   0.70934   0.16271   0.00000  Uiso   1.00
H262   H     0.32691   0.58822   0.18431   0.00000  Uiso   1.00
H263   H     0.24866   0.70425   0.06580   0.00000  Uiso   1.00
H264   H     0.23140   0.84957   0.23183   0.00000  Uiso   1.00
H265   H     0.37340   0.43182   0.21796   0.00000  Uiso   1.00
H266   H     0.20839   0.67652   0.96809   0.00000  Uiso   1.00
H267   H     0.17201   0.98294   0.31820   0.00000  Uiso   1.00
O268   O     0.33514   0.27615   0.26562   0.00000  Uiso   1.00
O269   O     0.11865   0.59720   0.93780   0.00000  Uiso   1.00
O270   O     0.07091   0.99922   0.39714   0.00000  Uiso   1.00
N271   N     0.24800   0.33696   0.26412   0.00000  Uiso   1.00
N272   N     0.09373   0.56573   0.03050   0.00000  Uiso   1.00
N273   N     0.05970   0.85222   0.35782   0.00000  Uiso   1.00
N274   N     0.33018   0.41542   0.22956   0.00000  Uiso   1.00
N275   N     0.17591   0.64418   0.99594   0.00000  Uiso   1.00
N276   N     0.14188   0.93068   0.32326   0.00000  Uiso   1.00
C277   C     0.88962   0.40931   0.50278   0.00000  Uiso   1.00
C278   C     0.94143   0.35115   0.47216   0.00000  Uiso   1.00
C279   C     0.99101   0.38047   0.43191   0.00000  Uiso   1.00
C280   C     0.03350   0.31684   0.40886   0.00000  Uiso   1.00
C281   C     0.11502   0.24019   0.35881   0.00000  Uiso   1.00
C282   C     0.88323   0.40545   0.56404   0.00000  Uiso   1.00
C283   C     0.88385   0.48044   0.60102   0.00000  Uiso   1.00
C284   C     0.87734   0.46253   0.65532   0.00000  Uiso   1.00
C285   C     0.86845   0.47019   0.74791   0.00000  Uiso   1.00
C286   C     0.83552   0.35816   0.49315   0.00000  Uiso   1.00
C287   C     0.79602   0.39339   0.47056   0.00000  Uiso   1.00
C288   C     0.74933   0.33567   0.46518   0.00000  Uiso   1.00
C289   C     0.66636   0.26990   0.44772   0.00000  Uiso   1.00
C290   C     0.87695   0.24416   0.53344   0.00000  Uiso   1.00
C291   C     0.93455   0.26144   0.48882   0.00000  Uiso   1.00
C292   C     0.97698   0.19775   0.46583   0.00000  Uiso   1.00
C293   C     0.02661   0.22698   0.42554   0.00000  Uiso   1.00
C294   C     0.87634   0.31575   0.58069   0.00000  Uiso   1.00
C295   C     0.86983   0.29772   0.63495   0.00000  Uiso   1.00
C296   C     0.87045   0.37266   0.67201   0.00000  Uiso   1.00
C297   C     0.82863   0.26846   0.50981   0.00000  Uiso   1.00
C298   C     0.78200   0.21067   0.50448   0.00000  Uiso   1.00
C299   C     0.74243   0.24580   0.48187   0.00000  Uiso   1.00
H300   H     0.89498   0.47915   0.48982   0.00000  Uiso   1.00
H301   H     0.99632   0.44990   0.41903   0.00000  Uiso   1.00
H302   H     0.88917   0.54985   0.58813   0.00000  Uiso   1.00
H303   H     0.80136   0.46281   0.45767   0.00000  Uiso   1.00
H304   H     0.10565   0.37792   0.34791   0.00000  Uiso   1.00
H305   H     0.87971   0.58868   0.70446   0.00000  Uiso   1.00
H306   H     0.69452   0.40514   0.42938   0.00000  Uiso   1.00
H307   H     0.87159   0.17432   0.54641   0.00000  Uiso   1.00
H308   H     0.97164   0.12834   0.47873   0.00000  Uiso   1.00
H309   H     0.86450   0.22830   0.64782   0.00000  Uiso   1.00
H310   H     0.77668   0.14126   0.51737   0.00000  Uiso   1.00
H311   H     0.08562   0.11693   0.39636   0.00000  Uiso   1.00
H312   H     0.85968   0.32769   0.75291   0.00000  Uiso   1.00
H313   H     0.67450   0.14415   0.47783   0.00000  Uiso   1.00
O314   O     0.16188   0.22269   0.32661   0.00000  Uiso   1.00
O315   O     0.86545   0.49920   0.79438   0.00000  Uiso   1.00
O316   O     0.62250   0.25840   0.43348   0.00000  Uiso   1.00
N317   N     0.08720   0.32280   0.36860   0.00000  Uiso   1.00
N318   N     0.87597   0.51985   0.70194   0.00000  Uiso   1.00
N319   N     0.70283   0.34826   0.44478   0.00000  Uiso   1.00
N320   N     0.07642   0.18237   0.39467   0.00000  Uiso   1.00
N321   N     0.86519   0.37941   0.72801   0.00000  Uiso   1.00
N322   N     0.69205   0.20783   0.47085   0.00000  Uiso   1.00
C323   C     0.36755   0.84264   0.44698   0.00000  Uiso   1.00
C324   C     0.31987   0.90933   0.45121   0.00000  Uiso   1.00
C325   C     0.26495   0.90949   0.48984   0.00000  Uiso   1.00
C326   C     0.22760   0.97612   0.48683   0.00000  Uiso   1.00
C327   C     0.15099   0.06995   0.49953   0.00000  Uiso   1.00
C328   C     0.42149   0.90139   0.45061   0.00000  Uiso   1.00
C329   C     0.45201   0.89485   0.48874   0.00000  Uiso   1.00
C330   C     0.50021   0.95480   0.48522   0.00000  Uiso   1.00
C331   C     0.58139   0.03625   0.49697   0.00000  Uiso   1.00
C332   C     0.38276   0.79812   0.38838   0.00000  Uiso   1.00
C333   C     0.38073   0.70475   0.37419   0.00000  Uiso   1.00
C334   C     0.39633   0.67775   0.31827   0.00000  Uiso   1.00
C335   C     0.41738   0.59886   0.23339   0.00000  Uiso   1.00
C336   C     0.39889   0.96071   0.37293   0.00000  Uiso   1.00
C337   C     0.33690   0.97346   0.41099   0.00000  Uiso   1.00
C338   C     0.29962   0.04011   0.40791   0.00000  Uiso   1.00
C339   C     0.24465   0.04037   0.44653   0.00000  Uiso   1.00
C340   C     0.43852   0.96552   0.41039   0.00000  Uiso   1.00
C341   C     0.48668   0.02548   0.40681   0.00000  Uiso   1.00
C342   C     0.51726   0.01905   0.44493   0.00000  Uiso   1.00
C343   C     0.39978   0.86225   0.34816   0.00000  Uiso   1.00
C344   C     0.41540   0.83539   0.29225   0.00000  Uiso   1.00
C345   C     0.41339   0.74200   0.27797   0.00000  Uiso   1.00
H346   H     0.35430   0.79272   0.47830   0.00000  Uiso   1.00
H347   H     0.25179   0.85985   0.52097   0.00000  Uiso   1.00
H348   H     0.43883   0.84522   0.51986   0.00000  Uiso   1.00
H349   H     0.36755   0.65515   0.40532   0.00000  Uiso   1.00
H350   H     0.14566   0.96258   0.55055   0.00000  Uiso   1.00
H351   H     0.54005   0.93170   0.54821   0.00000  Uiso   1.00
H352   H     0.38975   0.53091   0.30668   0.00000  Uiso   1.00
H353   H     0.41215   0.01064   0.34161   0.00000  Uiso   1.00
H354   H     0.31281   0.08973   0.37678   0.00000  Uiso   1.00
H355   H     0.49985   0.07510   0.37567   0.00000  Uiso   1.00
H356   H     0.42857   0.88503   0.26114   0.00000  Uiso   1.00
H357   H     0.19518   0.14917   0.43352   0.00000  Uiso   1.00
H358   H     0.58957   0.11828   0.43118   0.00000  Uiso   1.00
H359   H     0.43928   0.71749   0.18965   0.00000  Uiso   1.00
O360   O     0.10404   0.10399   0.51765   0.00000  Uiso   1.00
O361   O     0.62146   0.06347   0.51457   0.00000  Uiso   1.00
O362   O     0.42428   0.53764   0.19769   0.00000  Uiso   1.00
N363   N     0.17094   0.99563   0.51818   0.00000  Uiso   1.00
N364   N     0.53967   0.96677   0.51599   0.00000  Uiso   1.00
N365   N     0.39917   0.59206   0.29018   0.00000  Uiso   1.00
N366   N     0.19759   0.09603   0.45520   0.00000  Uiso   1.00
N367   N     0.56631   0.06717   0.45302   0.00000  Uiso   1.00
N368   N     0.42582   0.69246   0.22721   0.00000  Uiso   1.00
C369   C     0.42706   0.43161   0.97795   0.00000  Uiso   1.00
C370   C     0.39700   0.36693   0.02284   0.00000  Uiso   1.00
C371   C     0.42126   0.29067   0.03473   0.00000  Uiso   1.00
C372   C     0.38667   0.24034   0.07738   0.00000  Uiso   1.00
C373   C     0.34865   0.13612   0.14259   0.00000  Uiso   1.00
C374   C     0.42576   0.52710   0.00698   0.00000  Uiso   1.00
C375   C     0.47421   0.58551   0.00554   0.00000  Uiso   1.00
C376   C     0.46383   0.67001   0.03483   0.00000  Uiso   1.00
C377   C     0.47046   0.81448   0.07539   0.00000  Uiso   1.00
C378   C     0.38676   0.43247   0.94143   0.00000  Uiso   1.00
C379   C     0.40241   0.41133   0.88487   0.00000  Uiso   1.00
C380   C     0.35919   0.41618   0.85896   0.00000  Uiso   1.00
C381   C     0.30526   0.41372   0.79775   0.00000  Uiso   1.00
C382   C     0.32250   0.47783   0.03253   0.00000  Uiso   1.00
C383   C     0.34021   0.39204   0.05248   0.00000  Uiso   1.00
C384   C     0.30557   0.34181   0.09512   0.00000  Uiso   1.00
C385   C     0.32977   0.26548   0.10708   0.00000  Uiso   1.00
C386   C     0.36897   0.55221   0.03663   0.00000  Uiso   1.00
C387   C     0.35852   0.63664   0.06592   0.00000  Uiso   1.00
C388   C     0.40693   0.69516   0.06453   0.00000  Uiso   1.00
C389   C     0.32996   0.45757   0.97108   0.00000  Uiso   1.00
C390   C     0.28672   0.46246   0.94526   0.00000  Uiso   1.00
C391   C     0.30230   0.44133   0.88866   0.00000  Uiso   1.00
H392   H     0.47127   0.41207   0.95487   0.00000  Uiso   1.00
H393   H     0.46521   0.27127   0.01179   0.00000  Uiso   1.00
H394   H     0.51815   0.56606   0.98259   0.00000  Uiso   1.00
H395   H     0.44636   0.39191   0.86194   0.00000  Uiso   1.00
H396   H     0.43345   0.12626   0.08798   0.00000  Uiso   1.00
H397   H     0.54507   0.74786   0.02639   0.00000  Uiso   1.00
H398   H     0.39369   0.38063   0.77198   0.00000  Uiso   1.00
H399   H     0.27828   0.49738   0.05561   0.00000  Uiso   1.00
H400   H     0.26163   0.36125   0.11806   0.00000  Uiso   1.00
H401   H     0.31457   0.65605   0.08886   0.00000  Uiso   1.00
H402   H     0.24278   0.48189   0.96821   0.00000  Uiso   1.00
H403   H     0.26822   0.19930   0.17423   0.00000  Uiso   1.00
H404   H     0.37984   0.82090   0.11265   0.00000  Uiso   1.00
H405   H     0.22846   0.45366   0.85824   0.00000  Uiso   1.00
O406   O     0.34337   0.07172   0.17038   0.00000  Uiso   1.00
O407   O     0.48981   0.88723   0.08957   0.00000  Uiso   1.00
O408   O     0.29120   0.40542   0.75579   0.00000  Uiso   1.00
N409   N     0.39685   0.16212   0.09970   0.00000  Uiso   1.00
N410   N     0.50121   0.74327   0.04213   0.00000  Uiso   1.00
N411   N     0.35968   0.39996   0.80427   0.00000  Uiso   1.00
N412   N     0.30793   0.20142   0.14611   0.00000  Uiso   1.00
N413   N     0.41229   0.78257   0.08854   0.00000  Uiso   1.00
N414   N     0.27077   0.43926   0.85069   0.00000  Uiso   1.00
C415   C     0.43232   0.95168   0.94028   0.00000  Uiso   1.00
C416   C     0.45029   0.85685   0.91364   0.00000  Uiso   1.00
C417   C     0.50002   0.81377   0.91423   0.00000  Uiso   1.00
C418   C     0.50866   0.72707   0.88748   0.00000  Uiso   1.00
C419   C     0.54261   0.58624   0.85011   0.00000  Uiso   1.00
C420   C     0.42578   0.00665   0.89429   0.00000  Uiso   1.00
C421   C     0.45491   0.08952   0.87863   0.00000  Uiso   1.00
C422   C     0.44291   0.12892   0.83560   0.00000  Uiso   1.00
C423   C     0.43878   0.22069   0.76823   0.00000  Uiso   1.00
C424   C     0.37081   0.93854   0.97962   0.00000  Uiso   1.00
C425   C     0.35370   0.96416   0.03570   0.00000  Uiso   1.00
C426   C     0.29542   0.94624   0.06452   0.00000  Uiso   1.00
C427   C     0.20593   0.93225   0.12963   0.00000  Uiso   1.00
C428   C     0.35922   0.87434   0.89174   0.00000  Uiso   1.00
C429   C     0.41058   0.81485   0.88727   0.00000  Uiso   1.00
C430   C     0.41914   0.72819   0.86052   0.00000  Uiso   1.00
C431   C     0.46888   0.68498   0.86107   0.00000  Uiso   1.00
C432   C     0.38608   0.96464   0.86793   0.00000  Uiso   1.00
C433   C     0.37403   0.00394   0.82492   0.00000  Uiso   1.00
C434   C     0.40313   0.08684   0.80919   0.00000  Uiso   1.00
C435   C     0.33110   0.89653   0.95326   0.00000  Uiso   1.00
C436   C     0.27283   0.87858   0.98200   0.00000  Uiso   1.00
C437   C     0.25564   0.90416   0.03810   0.00000  Uiso   1.00
H438   H     0.46324   0.98440   0.96080   0.00000  Uiso   1.00
H439   H     0.53074   0.84631   0.93463   0.00000  Uiso   1.00
H440   H     0.48563   0.12202   0.89904   0.00000  Uiso   1.00
H441   H     0.38444   0.99667   0.05609   0.00000  Uiso   1.00
H442   H     0.58808   0.67469   0.89397   0.00000  Uiso   1.00
H443   H     0.49294   0.25606   0.81894   0.00000  Uiso   1.00
H444   H     0.27958   0.99175   0.15011   0.00000  Uiso   1.00
H445   H     0.32830   0.84163   0.87121   0.00000  Uiso   1.00
H446   H     0.38840   0.69570   0.84012   0.00000  Uiso   1.00
H447   H     0.34329   0.97141   0.80453   0.00000  Uiso   1.00
H448   H     0.24211   0.84606   0.96158   0.00000  Uiso   1.00
H449   H     0.47256   0.55246   0.81727   0.00000  Uiso   1.00
H450   H     0.37742   0.13383   0.74223   0.00000  Uiso   1.00
H451   H     0.16405   0.86951   0.07340   0.00000  Uiso   1.00
O452   O     0.57230   0.52017   0.83677   0.00000  Uiso   1.00
O453   O     0.44748   0.28290   0.73834   0.00000  Uiso   1.00
O454   O     0.16755   0.93613   0.17282   0.00000  Uiso   1.00
N455   N     0.55264   0.66594   0.88020   0.00000  Uiso   1.00
N456   N     0.46370   0.20948   0.81004   0.00000  Uiso   1.00
N457   N     0.26422   0.96239   0.11965   0.00000  Uiso   1.00
N458   N     0.49048   0.60017   0.83892   0.00000  Uiso   1.00
N459   N     0.40154   0.14370   0.76876   0.00000  Uiso   1.00
N460   N     0.20205   0.89662   0.07838   0.00000  Uiso   1.00
C461   C     0.88091   0.87383   0.42850   0.00000  Uiso   1.00
C462   C     0.81895   0.84529   0.46195   0.00000  Uiso   1.00
C463   C     0.77123   0.90092   0.47817   0.00000  Uiso   1.00
C464   C     0.71825   0.86196   0.50858   0.00000  Uiso   1.00
C465   C     0.62282   0.83154   0.55847   0.00000  Uiso   1.00
C466   C     0.92072   0.85457   0.46294   0.00000  Uiso   1.00
C467   C     0.95858   0.91801   0.47998   0.00000  Uiso   1.00
C468   C     0.99128   0.88687   0.51122   0.00000  Uiso   1.00
C469   C     0.05388   0.87085   0.56262   0.00000  Uiso   1.00
C470   C     0.89673   0.80644   0.37784   0.00000  Uiso   1.00
C471   C     0.91442   0.82940   0.32333   0.00000  Uiso   1.00
C472   C     0.92694   0.75773   0.28292   0.00000  Uiso   1.00
C473   C     0.95228   0.66697   0.20218   0.00000  Uiso   1.00
C474   C     0.87169   0.70572   0.45366   0.00000  Uiso   1.00
C475   C     0.81394   0.75397   0.47562   0.00000  Uiso   1.00
C476   C     0.76103   0.71492   0.50601   0.00000  Uiso   1.00
C477   C     0.71323   0.77048   0.52227   0.00000  Uiso   1.00
C478   C     0.91572   0.76326   0.47661   0.00000  Uiso   1.00
C479   C     0.94837   0.73202   0.50782   0.00000  Uiso   1.00
C480   C     0.98626   0.79539   0.52491   0.00000  Uiso   1.00
C481   C     0.89172   0.71512   0.39151   0.00000  Uiso   1.00
C482   C     0.90422   0.64340   0.35117   0.00000  Uiso   1.00
C483   C     0.92192   0.66625   0.29661   0.00000  Uiso   1.00
H484   H     0.88481   0.94492   0.41786   0.00000  Uiso   1.00
H485   H     0.77512   0.97158   0.46759   0.00000  Uiso   1.00
H486   H     0.96245   0.98867   0.46940   0.00000  Uiso   1.00
H487   H     0.91829   0.90007   0.31277   0.00000  Uiso   1.00
H488   H     0.65131   0.96088   0.52877   0.00000  Uiso   1.00
H489   H     0.04631   0.99690   0.53257   0.00000  Uiso   1.00
H490   H     0.95320   0.81007   0.20229   0.00000  Uiso   1.00
H491   H     0.86779   0.63463   0.46430   0.00000  Uiso   1.00
H492   H     0.75716   0.64425   0.51658   0.00000  Uiso   1.00
H493   H     0.94449   0.66135   0.51839   0.00000  Uiso   1.00
H494   H     0.90034   0.57275   0.36176   0.00000  Uiso   1.00
H495   H     0.63674   0.69521   0.56853   0.00000  Uiso   1.00
H496   H     0.03174   0.73123   0.57233   0.00000  Uiso   1.00
H497   H     0.93863   0.54441   0.24205   0.00000  Uiso   1.00
O498   O     0.57156   0.83998   0.58222   0.00000  Uiso   1.00
O499   O     0.08979   0.88724   0.58720   0.00000  Uiso   1.00
O500   O     0.96764   0.64213   0.15388   0.00000  Uiso   1.00
N501   N     0.66306   0.89702   0.53094   0.00000  Uiso   1.00
N502   N     0.03235   0.93071   0.53450   0.00000  Uiso   1.00
N503   N     0.94532   0.75604   0.22572   0.00000  Uiso   1.00
N504   N     0.65522   0.75407   0.55234   0.00000  Uiso   1.00
N505   N     0.02451   0.78776   0.55590   0.00000  Uiso   1.00
N506   N     0.93748   0.61309   0.24711   0.00000  Uiso   1.00
C507   C     0.88564   0.42303   0.93927   0.00000  Uiso   1.00
C508   C     0.82841   0.46328   0.93941   0.00000  Uiso   1.00
C509   C     0.82341   0.54331   0.91598   0.00000  Uiso   1.00
C510   C     0.76715   0.56854   0.92052   0.00000  Uiso   1.00
C511   C     0.68580   0.63912   0.91666   0.00000  Uiso   1.00
C512   C     0.88120   0.41317   0.99961   0.00000  Uiso   1.00
C513   C     0.92061   0.45106   0.02679   0.00000  Uiso   1.00
C514   C     0.90879   0.43409   0.08201   0.00000  Uiso   1.00
C515   C     0.90944   0.42682   0.17159   0.00000  Uiso   1.00
C516   C     0.88491   0.32583   0.91289   0.00000  Uiso   1.00
C517   C     0.92744   0.29027   0.86714   0.00000  Uiso   1.00
C518   C     0.91874   0.19977   0.84935   0.00000  Uiso   1.00
C519   C     0.92515   0.05688   0.80428   0.00000  Uiso   1.00
C520   C     0.79459   0.32552   0.98902   0.00000  Uiso   1.00
C521   C     0.77895   0.41031   0.96644   0.00000  Uiso   1.00
C522   C     0.72268   0.43543   0.97102   0.00000  Uiso   1.00
C523   C     0.71760   0.51548   0.94759   0.00000  Uiso   1.00
C524   C     0.83175   0.36021   0.02664   0.00000  Uiso   1.00
C525   C     0.81987   0.34318   0.08183   0.00000  Uiso   1.00
C526   C     0.85925   0.38104   0.10908   0.00000  Uiso   1.00
C527   C     0.83546   0.27286   0.93991   0.00000  Uiso   1.00
C528   C     0.82670   0.18239   0.92219   0.00000  Uiso   1.00
C529   C     0.86920   0.14671   0.87643   0.00000  Uiso   1.00
H530   H     0.92414   0.46426   0.91824   0.00000  Uiso   1.00
H531   H     0.86170   0.58428   0.89507   0.00000  Uiso   1.00
H532   H     0.95888   0.49203   0.00586   0.00000  Uiso   1.00
H533   H     0.96570   0.33128   0.84624   0.00000  Uiso   1.00
H534   H     0.77065   0.69401   0.88132   0.00000  Uiso   1.00
H535   H     0.97558   0.49947   0.11492   0.00000  Uiso   1.00
H536   H     0.98997   0.16048   0.77834   0.00000  Uiso   1.00
H537   H     0.75609   0.28428   0.01007   0.00000  Uiso   1.00
H538   H     0.68442   0.39443   0.99194   0.00000  Uiso   1.00
H539   H     0.78160   0.30218   0.10273   0.00000  Uiso   1.00
H540   H     0.78842   0.14143   0.94311   0.00000  Uiso   1.00
H541   H     0.62677   0.53992   0.95995   0.00000  Uiso   1.00
H542   H     0.83169   0.34538   0.19355   0.00000  Uiso   1.00
H543   H     0.84608   0.00639   0.85696   0.00000  Uiso   1.00
O544   O     0.65460   0.69269   0.90707   0.00000  Uiso   1.00
O545   O     0.92345   0.43744   0.21354   0.00000  Uiso   1.00
O546   O     0.94233   0.99270   0.77195   0.00000  Uiso   1.00
N547   N     0.74663   0.64262   0.90231   0.00000  Uiso   1.00
N548   N     0.93821   0.46075   0.12071   0.00000  Uiso   1.00
N549   N     0.95168   0.14382   0.80604   0.00000  Uiso   1.00
N550   N     0.66920   0.55970   0.94461   0.00000  Uiso   1.00
N551   N     0.86079   0.37783   0.16302   0.00000  Uiso   1.00
N552   N     0.87425   0.06090   0.84835   0.00000  Uiso   1.00
