data_job_05457
_audit_creation_date              2018-12-19
_audit_creation_method            'Materials Studio'
_symmetry_space_group_name_H-M    'P1'
_symmetry_Int_Tables_number       1
_symmetry_cell_setting            triclinic
loop_
_symmetry_equiv_pos_as_xyz
  x,y,z
_cell_length_a                    19.7403
_cell_length_b                    22.0250
_cell_length_c                    12.2987
_cell_angle_alpha                 90.0000
_cell_angle_beta                  90.0000
_cell_angle_gamma                 90.0000
loop_
_atom_site_label
_atom_site_type_symbol
_atom_site_fract_x
_atom_site_fract_y
_atom_site_fract_z
_atom_site_U_iso_or_equiv
_atom_site_adp_type
_atom_site_occupancy
C1     C     0.92381   0.58678   0.24051   0.00000  Uiso   1.00
C2     C     0.89811   0.63171   0.15567   0.00000  Uiso   1.00
C3     C     0.92868   0.64406   0.05649   0.00000  Uiso   1.00
C4     C     0.89728   0.68666   0.99028   0.00000  Uiso   1.00
C5     C     0.86650   0.75201   0.85370   0.00000  Uiso   1.00
C6     C     0.93209   0.62290   0.34545   0.00000  Uiso   1.00
C7     C     0.99123   0.62784   0.40584   0.00000  Uiso   1.00
C8     C     0.98842   0.66303   0.49941   0.00000  Uiso   1.00
C9     C     0.01038   0.71467   0.65751   0.00000  Uiso   1.00
C10    C     0.86575   0.54252   0.26072   0.00000  Uiso   1.00
C11    C     0.86911   0.47987   0.24990   0.00000  Uiso   1.00
C12    C     0.81045   0.44738   0.27216   0.00000  Uiso   1.00
C13    C     0.72940   0.37422   0.29870   0.00000  Uiso   1.00
C14    C     0.81368   0.64047   0.29931   0.00000  Uiso   1.00
C15    C     0.83830   0.66087   0.18760   0.00000  Uiso   1.00
C16    C     0.80684   0.70346   0.12153   0.00000  Uiso   1.00
C17    C     0.83735   0.71587   0.02227   0.00000  Uiso   1.00
C18    C     0.87228   0.65207   0.37738   0.00000  Uiso   1.00
C19    C     0.86938   0.68725   0.47089   0.00000  Uiso   1.00
C20    C     0.92849   0.69224   0.53140   0.00000  Uiso   1.00
C21    C     0.80593   0.57169   0.29265   0.00000  Uiso   1.00
C22    C     0.74726   0.53928   0.31494   0.00000  Uiso   1.00
C23    C     0.75052   0.47660   0.30415   0.00000  Uiso   1.00
H24    H     0.97038   0.56407   0.21566   0.00000  Uiso   1.00
H25    H     0.97498   0.62148   0.03181   0.00000  Uiso   1.00
H26    H     0.03751   0.60526   0.38112   0.00000  Uiso   1.00
H27    H     0.91540   0.45732   0.22519   0.00000  Uiso   1.00
H28    H     0.95371   0.69800   0.84208   0.00000  Uiso   1.00
H29    H     0.08555   0.66379   0.57863   0.00000  Uiso   1.00
H30    H     0.82808   0.35183   0.24983   0.00000  Uiso   1.00
H31    H     0.76711   0.66318   0.32417   0.00000  Uiso   1.00
H32    H     0.76055   0.72603   0.14626   0.00000  Uiso   1.00
H33    H     0.82308   0.70981   0.49558   0.00000  Uiso   1.00
H34    H     0.70098   0.56187   0.33965   0.00000  Uiso   1.00
H35    H     0.77967   0.78286   0.93497   0.00000  Uiso   1.00
H36    H     0.91151   0.74865   0.67153   0.00000  Uiso   1.00
H37    H     0.65404   0.43668   0.34273   0.00000  Uiso   1.00
O38    O     0.86605   0.78000   0.76955   0.00000  Uiso   1.00
O39    O     0.03902   0.73511   0.73589   0.00000  Uiso   1.00
O40    O     0.70122   0.32582   0.30451   0.00000  Uiso   1.00
N41    N     0.91364   0.70934   0.88834   0.00000  Uiso   1.00
N42    N     0.03691   0.67736   0.57697   0.00000  Uiso   1.00
N43    N     0.79620   0.38570   0.26960   0.00000  Uiso   1.00
N44    N     0.81999   0.75500   0.93833   0.00000  Uiso   1.00
N45    N     0.94326   0.72302   0.62696   0.00000  Uiso   1.00
N46    N     0.70255   0.43136   0.31959   0.00000  Uiso   1.00
C47    C     0.92381   0.08678   0.74051   0.00000  Uiso   1.00
C48    C     0.89811   0.13171   0.65567   0.00000  Uiso   1.00
C49    C     0.92868   0.14406   0.55649   0.00000  Uiso   1.00
C50    C     0.89728   0.18666   0.49028   0.00000  Uiso   1.00
C51    C     0.86650   0.25201   0.35370   0.00000  Uiso   1.00
C52    C     0.93209   0.12290   0.84545   0.00000  Uiso   1.00
C53    C     0.99123   0.12784   0.90584   0.00000  Uiso   1.00
C54    C     0.98842   0.16303   0.99941   0.00000  Uiso   1.00
C55    C     0.01038   0.21467   0.15751   0.00000  Uiso   1.00
C56    C     0.86575   0.04252   0.76072   0.00000  Uiso   1.00
C57    C     0.86911   0.97987   0.74990   0.00000  Uiso   1.00
C58    C     0.81045   0.94738   0.77216   0.00000  Uiso   1.00
C59    C     0.72940   0.87422   0.79870   0.00000  Uiso   1.00
C60    C     0.81368   0.14047   0.79931   0.00000  Uiso   1.00
C61    C     0.83830   0.16087   0.68760   0.00000  Uiso   1.00
C62    C     0.80684   0.20346   0.62153   0.00000  Uiso   1.00
C63    C     0.83735   0.21587   0.52227   0.00000  Uiso   1.00
C64    C     0.87228   0.15207   0.87738   0.00000  Uiso   1.00
C65    C     0.86938   0.18725   0.97089   0.00000  Uiso   1.00
C66    C     0.92849   0.19224   0.03140   0.00000  Uiso   1.00
C67    C     0.80593   0.07169   0.79265   0.00000  Uiso   1.00
C68    C     0.74726   0.03928   0.81494   0.00000  Uiso   1.00
C69    C     0.75052   0.97660   0.80415   0.00000  Uiso   1.00
H70    H     0.97038   0.06407   0.71566   0.00000  Uiso   1.00
H71    H     0.97498   0.12148   0.53181   0.00000  Uiso   1.00
H72    H     0.03751   0.10526   0.88112   0.00000  Uiso   1.00
H73    H     0.91540   0.95732   0.72519   0.00000  Uiso   1.00
H74    H     0.95371   0.19800   0.34208   0.00000  Uiso   1.00
H75    H     0.08555   0.16379   0.07863   0.00000  Uiso   1.00
H76    H     0.82808   0.85183   0.74983   0.00000  Uiso   1.00
H77    H     0.76711   0.16318   0.82417   0.00000  Uiso   1.00
H78    H     0.76055   0.22603   0.64626   0.00000  Uiso   1.00
H79    H     0.82308   0.20981   0.99558   0.00000  Uiso   1.00
H80    H     0.70098   0.06187   0.83965   0.00000  Uiso   1.00
H81    H     0.77967   0.28286   0.43497   0.00000  Uiso   1.00
H82    H     0.91151   0.24865   0.17153   0.00000  Uiso   1.00
H83    H     0.65404   0.93668   0.84273   0.00000  Uiso   1.00
O84    O     0.86605   0.28000   0.26955   0.00000  Uiso   1.00
O85    O     0.03902   0.23511   0.23589   0.00000  Uiso   1.00
O86    O     0.70122   0.82582   0.80451   0.00000  Uiso   1.00
N87    N     0.91364   0.20934   0.38834   0.00000  Uiso   1.00
N88    N     0.03691   0.17736   0.07697   0.00000  Uiso   1.00
N89    N     0.79620   0.88570   0.76960   0.00000  Uiso   1.00
N90    N     0.81999   0.25500   0.43833   0.00000  Uiso   1.00
N91    N     0.94326   0.22302   0.12696   0.00000  Uiso   1.00
N92    N     0.70255   0.93136   0.81959   0.00000  Uiso   1.00
C93    C     0.07619   0.41322   0.24051   0.00000  Uiso   1.00
C94    C     0.10189   0.36829   0.15567   0.00000  Uiso   1.00
C95    C     0.07132   0.35594   0.05649   0.00000  Uiso   1.00
C96    C     0.10272   0.31334   0.99028   0.00000  Uiso   1.00
C97    C     0.13350   0.24799   0.85370   0.00000  Uiso   1.00
C98    C     0.06791   0.37710   0.34545   0.00000  Uiso   1.00
C99    C     0.00877   0.37216   0.40584   0.00000  Uiso   1.00
C100   C     0.01158   0.33697   0.49941   0.00000  Uiso   1.00
C101   C     0.98962   0.28533   0.65751   0.00000  Uiso   1.00
C102   C     0.13425   0.45748   0.26072   0.00000  Uiso   1.00
C103   C     0.13089   0.52013   0.24990   0.00000  Uiso   1.00
C104   C     0.18955   0.55262   0.27216   0.00000  Uiso   1.00
C105   C     0.27060   0.62578   0.29870   0.00000  Uiso   1.00
C106   C     0.18632   0.35953   0.29931   0.00000  Uiso   1.00
C107   C     0.16170   0.33913   0.18760   0.00000  Uiso   1.00
C108   C     0.19316   0.29654   0.12153   0.00000  Uiso   1.00
C109   C     0.16265   0.28413   0.02227   0.00000  Uiso   1.00
C110   C     0.12772   0.34793   0.37738   0.00000  Uiso   1.00
C111   C     0.13062   0.31275   0.47089   0.00000  Uiso   1.00
C112   C     0.07151   0.30776   0.53140   0.00000  Uiso   1.00
C113   C     0.19407   0.42831   0.29265   0.00000  Uiso   1.00
C114   C     0.25274   0.46072   0.31494   0.00000  Uiso   1.00
C115   C     0.24948   0.52340   0.30415   0.00000  Uiso   1.00
H116   H     0.02962   0.43593   0.21566   0.00000  Uiso   1.00
H117   H     0.02502   0.37852   0.03181   0.00000  Uiso   1.00
H118   H     0.96249   0.39474   0.38112   0.00000  Uiso   1.00
H119   H     0.08460   0.54268   0.22519   0.00000  Uiso   1.00
H120   H     0.04629   0.30200   0.84208   0.00000  Uiso   1.00
H121   H     0.91445   0.33621   0.57863   0.00000  Uiso   1.00
H122   H     0.17192   0.64817   0.24983   0.00000  Uiso   1.00
H123   H     0.23289   0.33682   0.32417   0.00000  Uiso   1.00
H124   H     0.23945   0.27397   0.14626   0.00000  Uiso   1.00
H125   H     0.17692   0.29019   0.49558   0.00000  Uiso   1.00
H126   H     0.29902   0.43813   0.33965   0.00000  Uiso   1.00
H127   H     0.22033   0.21714   0.93497   0.00000  Uiso   1.00
H128   H     0.08849   0.25135   0.67153   0.00000  Uiso   1.00
H129   H     0.34596   0.56332   0.34273   0.00000  Uiso   1.00
O130   O     0.13395   0.22000   0.76955   0.00000  Uiso   1.00
O131   O     0.96098   0.26489   0.73589   0.00000  Uiso   1.00
O132   O     0.29878   0.67418   0.30451   0.00000  Uiso   1.00
N133   N     0.08636   0.29066   0.88834   0.00000  Uiso   1.00
N134   N     0.96309   0.32264   0.57697   0.00000  Uiso   1.00
N135   N     0.20380   0.61430   0.26960   0.00000  Uiso   1.00
N136   N     0.18001   0.24500   0.93833   0.00000  Uiso   1.00
N137   N     0.05674   0.27698   0.62696   0.00000  Uiso   1.00
N138   N     0.29745   0.56864   0.31959   0.00000  Uiso   1.00
C139   C     0.07619   0.91322   0.74051   0.00000  Uiso   1.00
C140   C     0.10189   0.86829   0.65567   0.00000  Uiso   1.00
C141   C     0.07132   0.85594   0.55649   0.00000  Uiso   1.00
C142   C     0.10272   0.81334   0.49028   0.00000  Uiso   1.00
C143   C     0.13350   0.74799   0.35370   0.00000  Uiso   1.00
C144   C     0.06791   0.87710   0.84545   0.00000  Uiso   1.00
C145   C     0.00877   0.87216   0.90584   0.00000  Uiso   1.00
C146   C     0.01158   0.83697   0.99941   0.00000  Uiso   1.00
C147   C     0.98962   0.78533   0.15751   0.00000  Uiso   1.00
C148   C     0.13425   0.95748   0.76072   0.00000  Uiso   1.00
C149   C     0.13089   0.02013   0.74990   0.00000  Uiso   1.00
C150   C     0.18955   0.05262   0.77216   0.00000  Uiso   1.00
C151   C     0.27060   0.12578   0.79870   0.00000  Uiso   1.00
C152   C     0.18632   0.85953   0.79931   0.00000  Uiso   1.00
C153   C     0.16170   0.83913   0.68760   0.00000  Uiso   1.00
C154   C     0.19316   0.79654   0.62153   0.00000  Uiso   1.00
C155   C     0.16265   0.78413   0.52227   0.00000  Uiso   1.00
C156   C     0.12772   0.84793   0.87738   0.00000  Uiso   1.00
C157   C     0.13062   0.81275   0.97089   0.00000  Uiso   1.00
C158   C     0.07151   0.80776   0.03140   0.00000  Uiso   1.00
C159   C     0.19407   0.92831   0.79265   0.00000  Uiso   1.00
C160   C     0.25274   0.96072   0.81494   0.00000  Uiso   1.00
C161   C     0.24948   0.02340   0.80415   0.00000  Uiso   1.00
H162   H     0.02962   0.93593   0.71566   0.00000  Uiso   1.00
H163   H     0.02502   0.87852   0.53181   0.00000  Uiso   1.00
H164   H     0.96249   0.89474   0.88112   0.00000  Uiso   1.00
H165   H     0.08460   0.04268   0.72519   0.00000  Uiso   1.00
H166   H     0.04629   0.80200   0.34208   0.00000  Uiso   1.00
H167   H     0.91445   0.83621   0.07863   0.00000  Uiso   1.00
H168   H     0.17192   0.14817   0.74983   0.00000  Uiso   1.00
H169   H     0.23289   0.83682   0.82417   0.00000  Uiso   1.00
H170   H     0.23945   0.77397   0.64626   0.00000  Uiso   1.00
H171   H     0.17692   0.79019   0.99558   0.00000  Uiso   1.00
H172   H     0.29902   0.93813   0.83965   0.00000  Uiso   1.00
H173   H     0.22033   0.71714   0.43497   0.00000  Uiso   1.00
H174   H     0.08849   0.75135   0.17153   0.00000  Uiso   1.00
H175   H     0.34596   0.06332   0.84273   0.00000  Uiso   1.00
O176   O     0.13395   0.72000   0.26955   0.00000  Uiso   1.00
O177   O     0.96098   0.76489   0.23589   0.00000  Uiso   1.00
O178   O     0.29878   0.17418   0.80451   0.00000  Uiso   1.00
N179   N     0.08636   0.79066   0.38834   0.00000  Uiso   1.00
N180   N     0.96309   0.82264   0.07697   0.00000  Uiso   1.00
N181   N     0.20380   0.11430   0.76960   0.00000  Uiso   1.00
N182   N     0.18001   0.74500   0.43833   0.00000  Uiso   1.00
N183   N     0.05674   0.77698   0.12696   0.00000  Uiso   1.00
N184   N     0.29745   0.06864   0.81959   0.00000  Uiso   1.00
C185   C     0.42381   0.91322   0.24051   0.00000  Uiso   1.00
C186   C     0.39811   0.86829   0.15567   0.00000  Uiso   1.00
C187   C     0.42868   0.85594   0.05649   0.00000  Uiso   1.00
C188   C     0.39728   0.81334   0.99028   0.00000  Uiso   1.00
C189   C     0.36650   0.74799   0.85370   0.00000  Uiso   1.00
C190   C     0.43209   0.87710   0.34545   0.00000  Uiso   1.00
C191   C     0.49123   0.87216   0.40584   0.00000  Uiso   1.00
C192   C     0.48842   0.83697   0.49941   0.00000  Uiso   1.00
C193   C     0.51038   0.78533   0.65751   0.00000  Uiso   1.00
C194   C     0.36575   0.95748   0.26072   0.00000  Uiso   1.00
C195   C     0.36911   0.02013   0.24990   0.00000  Uiso   1.00
C196   C     0.31045   0.05262   0.27216   0.00000  Uiso   1.00
C197   C     0.22940   0.12578   0.29870   0.00000  Uiso   1.00
C198   C     0.31368   0.85953   0.29931   0.00000  Uiso   1.00
C199   C     0.33830   0.83913   0.18760   0.00000  Uiso   1.00
C200   C     0.30684   0.79654   0.12153   0.00000  Uiso   1.00
C201   C     0.33735   0.78413   0.02227   0.00000  Uiso   1.00
C202   C     0.37228   0.84793   0.37738   0.00000  Uiso   1.00
C203   C     0.36938   0.81275   0.47089   0.00000  Uiso   1.00
C204   C     0.42849   0.80776   0.53140   0.00000  Uiso   1.00
C205   C     0.30593   0.92831   0.29265   0.00000  Uiso   1.00
C206   C     0.24726   0.96072   0.31494   0.00000  Uiso   1.00
C207   C     0.25052   0.02340   0.30415   0.00000  Uiso   1.00
H208   H     0.47038   0.93593   0.21566   0.00000  Uiso   1.00
H209   H     0.47498   0.87852   0.03181   0.00000  Uiso   1.00
H210   H     0.53751   0.89474   0.38112   0.00000  Uiso   1.00
H211   H     0.41540   0.04268   0.22519   0.00000  Uiso   1.00
H212   H     0.45371   0.80200   0.84208   0.00000  Uiso   1.00
H213   H     0.58555   0.83621   0.57863   0.00000  Uiso   1.00
H214   H     0.32808   0.14817   0.24983   0.00000  Uiso   1.00
H215   H     0.26711   0.83682   0.32417   0.00000  Uiso   1.00
H216   H     0.26055   0.77397   0.14626   0.00000  Uiso   1.00
H217   H     0.32308   0.79019   0.49558   0.00000  Uiso   1.00
H218   H     0.20098   0.93813   0.33965   0.00000  Uiso   1.00
H219   H     0.27967   0.71714   0.93497   0.00000  Uiso   1.00
H220   H     0.41151   0.75135   0.67153   0.00000  Uiso   1.00
H221   H     0.15404   0.06332   0.34273   0.00000  Uiso   1.00
O222   O     0.36605   0.72000   0.76955   0.00000  Uiso   1.00
O223   O     0.53902   0.76489   0.73589   0.00000  Uiso   1.00
O224   O     0.20122   0.17418   0.30451   0.00000  Uiso   1.00
N225   N     0.41364   0.79066   0.88834   0.00000  Uiso   1.00
N226   N     0.53691   0.82264   0.57697   0.00000  Uiso   1.00
N227   N     0.29620   0.11430   0.26960   0.00000  Uiso   1.00
N228   N     0.31999   0.74500   0.93833   0.00000  Uiso   1.00
N229   N     0.44326   0.77698   0.62696   0.00000  Uiso   1.00
N230   N     0.20255   0.06864   0.31959   0.00000  Uiso   1.00
C231   C     0.42381   0.41322   0.74051   0.00000  Uiso   1.00
C232   C     0.39811   0.36829   0.65567   0.00000  Uiso   1.00
C233   C     0.42868   0.35594   0.55649   0.00000  Uiso   1.00
C234   C     0.39728   0.31334   0.49028   0.00000  Uiso   1.00
C235   C     0.36650   0.24799   0.35370   0.00000  Uiso   1.00
C236   C     0.43209   0.37710   0.84545   0.00000  Uiso   1.00
C237   C     0.49123   0.37216   0.90584   0.00000  Uiso   1.00
C238   C     0.48842   0.33697   0.99941   0.00000  Uiso   1.00
C239   C     0.51038   0.28533   0.15751   0.00000  Uiso   1.00
C240   C     0.36575   0.45748   0.76072   0.00000  Uiso   1.00
C241   C     0.36911   0.52013   0.74990   0.00000  Uiso   1.00
C242   C     0.31045   0.55262   0.77216   0.00000  Uiso   1.00
C243   C     0.22940   0.62578   0.79870   0.00000  Uiso   1.00
C244   C     0.31368   0.35953   0.79931   0.00000  Uiso   1.00
C245   C     0.33830   0.33913   0.68760   0.00000  Uiso   1.00
C246   C     0.30684   0.29654   0.62153   0.00000  Uiso   1.00
C247   C     0.33735   0.28413   0.52227   0.00000  Uiso   1.00
C248   C     0.37228   0.34793   0.87738   0.00000  Uiso   1.00
C249   C     0.36938   0.31275   0.97089   0.00000  Uiso   1.00
C250   C     0.42849   0.30776   0.03140   0.00000  Uiso   1.00
C251   C     0.30593   0.42831   0.79265   0.00000  Uiso   1.00
C252   C     0.24726   0.46072   0.81494   0.00000  Uiso   1.00
C253   C     0.25052   0.52340   0.80415   0.00000  Uiso   1.00
H254   H     0.47038   0.43593   0.71566   0.00000  Uiso   1.00
H255   H     0.47498   0.37852   0.53181   0.00000  Uiso   1.00
H256   H     0.53751   0.39474   0.88112   0.00000  Uiso   1.00
H257   H     0.41540   0.54268   0.72519   0.00000  Uiso   1.00
H258   H     0.45371   0.30200   0.34208   0.00000  Uiso   1.00
H259   H     0.58555   0.33621   0.07863   0.00000  Uiso   1.00
H260   H     0.32808   0.64817   0.74983   0.00000  Uiso   1.00
H261   H     0.26711   0.33682   0.82417   0.00000  Uiso   1.00
H262   H     0.26055   0.27397   0.64626   0.00000  Uiso   1.00
H263   H     0.32308   0.29019   0.99558   0.00000  Uiso   1.00
H264   H     0.20098   0.43813   0.83965   0.00000  Uiso   1.00
H265   H     0.27967   0.21714   0.43497   0.00000  Uiso   1.00
H266   H     0.41151   0.25135   0.17153   0.00000  Uiso   1.00
H267   H     0.15404   0.56332   0.84273   0.00000  Uiso   1.00
O268   O     0.36605   0.22000   0.26955   0.00000  Uiso   1.00
O269   O     0.53902   0.26489   0.23589   0.00000  Uiso   1.00
O270   O     0.20122   0.67418   0.80451   0.00000  Uiso   1.00
N271   N     0.41364   0.29066   0.38834   0.00000  Uiso   1.00
N272   N     0.53691   0.32264   0.07697   0.00000  Uiso   1.00
N273   N     0.29620   0.61430   0.76960   0.00000  Uiso   1.00
N274   N     0.31999   0.24500   0.43833   0.00000  Uiso   1.00
N275   N     0.44326   0.27698   0.12696   0.00000  Uiso   1.00
N276   N     0.20255   0.56864   0.81959   0.00000  Uiso   1.00
C277   C     0.57619   0.08678   0.24051   0.00000  Uiso   1.00
C278   C     0.60189   0.13171   0.15567   0.00000  Uiso   1.00
C279   C     0.57132   0.14406   0.05649   0.00000  Uiso   1.00
C280   C     0.60272   0.18666   0.99028   0.00000  Uiso   1.00
C281   C     0.63350   0.25201   0.85370   0.00000  Uiso   1.00
C282   C     0.56791   0.12290   0.34545   0.00000  Uiso   1.00
C283   C     0.50877   0.12784   0.40584   0.00000  Uiso   1.00
C284   C     0.51158   0.16303   0.49941   0.00000  Uiso   1.00
C285   C     0.48962   0.21467   0.65751   0.00000  Uiso   1.00
C286   C     0.63425   0.04252   0.26072   0.00000  Uiso   1.00
C287   C     0.63089   0.97987   0.24990   0.00000  Uiso   1.00
C288   C     0.68955   0.94738   0.27216   0.00000  Uiso   1.00
C289   C     0.77060   0.87422   0.29870   0.00000  Uiso   1.00
C290   C     0.68632   0.14047   0.29931   0.00000  Uiso   1.00
C291   C     0.66170   0.16087   0.18760   0.00000  Uiso   1.00
C292   C     0.69316   0.20346   0.12153   0.00000  Uiso   1.00
C293   C     0.66265   0.21587   0.02227   0.00000  Uiso   1.00
C294   C     0.62772   0.15207   0.37738   0.00000  Uiso   1.00
C295   C     0.63062   0.18725   0.47089   0.00000  Uiso   1.00
C296   C     0.57151   0.19224   0.53140   0.00000  Uiso   1.00
C297   C     0.69407   0.07169   0.29265   0.00000  Uiso   1.00
C298   C     0.75274   0.03928   0.31494   0.00000  Uiso   1.00
C299   C     0.74948   0.97660   0.30415   0.00000  Uiso   1.00
H300   H     0.52962   0.06407   0.21566   0.00000  Uiso   1.00
H301   H     0.52502   0.12148   0.03181   0.00000  Uiso   1.00
H302   H     0.46249   0.10526   0.38112   0.00000  Uiso   1.00
H303   H     0.58460   0.95732   0.22519   0.00000  Uiso   1.00
H304   H     0.54629   0.19800   0.84208   0.00000  Uiso   1.00
H305   H     0.41445   0.16379   0.57863   0.00000  Uiso   1.00
H306   H     0.67192   0.85183   0.24983   0.00000  Uiso   1.00
H307   H     0.73289   0.16318   0.32417   0.00000  Uiso   1.00
H308   H     0.73945   0.22603   0.14626   0.00000  Uiso   1.00
H309   H     0.67692   0.20981   0.49558   0.00000  Uiso   1.00
H310   H     0.79902   0.06187   0.33965   0.00000  Uiso   1.00
H311   H     0.72033   0.28286   0.93497   0.00000  Uiso   1.00
H312   H     0.58849   0.24865   0.67153   0.00000  Uiso   1.00
H313   H     0.84596   0.93668   0.34273   0.00000  Uiso   1.00
O314   O     0.63395   0.28000   0.76955   0.00000  Uiso   1.00
O315   O     0.46098   0.23511   0.73589   0.00000  Uiso   1.00
O316   O     0.79878   0.82582   0.30451   0.00000  Uiso   1.00
N317   N     0.58636   0.20934   0.88834   0.00000  Uiso   1.00
N318   N     0.46309   0.17736   0.57697   0.00000  Uiso   1.00
N319   N     0.70380   0.88570   0.26960   0.00000  Uiso   1.00
N320   N     0.68001   0.25500   0.93833   0.00000  Uiso   1.00
N321   N     0.55674   0.22302   0.62696   0.00000  Uiso   1.00
N322   N     0.79745   0.93136   0.31959   0.00000  Uiso   1.00
C323   C     0.57619   0.58678   0.74051   0.00000  Uiso   1.00
C324   C     0.60189   0.63171   0.65567   0.00000  Uiso   1.00
C325   C     0.57132   0.64406   0.55649   0.00000  Uiso   1.00
C326   C     0.60272   0.68666   0.49028   0.00000  Uiso   1.00
C327   C     0.63350   0.75201   0.35370   0.00000  Uiso   1.00
C328   C     0.56791   0.62290   0.84545   0.00000  Uiso   1.00
C329   C     0.50877   0.62784   0.90584   0.00000  Uiso   1.00
C330   C     0.51158   0.66303   0.99941   0.00000  Uiso   1.00
C331   C     0.48962   0.71467   0.15751   0.00000  Uiso   1.00
C332   C     0.63425   0.54252   0.76072   0.00000  Uiso   1.00
C333   C     0.63089   0.47987   0.74990   0.00000  Uiso   1.00
C334   C     0.68955   0.44738   0.77216   0.00000  Uiso   1.00
C335   C     0.77060   0.37422   0.79870   0.00000  Uiso   1.00
C336   C     0.68632   0.64047   0.79931   0.00000  Uiso   1.00
C337   C     0.66170   0.66087   0.68760   0.00000  Uiso   1.00
C338   C     0.69316   0.70346   0.62153   0.00000  Uiso   1.00
C339   C     0.66265   0.71587   0.52227   0.00000  Uiso   1.00
C340   C     0.62772   0.65207   0.87738   0.00000  Uiso   1.00
C341   C     0.63062   0.68725   0.97089   0.00000  Uiso   1.00
C342   C     0.57151   0.69224   0.03140   0.00000  Uiso   1.00
C343   C     0.69407   0.57169   0.79265   0.00000  Uiso   1.00
C344   C     0.75274   0.53928   0.81494   0.00000  Uiso   1.00
C345   C     0.74948   0.47660   0.80415   0.00000  Uiso   1.00
H346   H     0.52962   0.56407   0.71566   0.00000  Uiso   1.00
H347   H     0.52502   0.62148   0.53181   0.00000  Uiso   1.00
H348   H     0.46249   0.60526   0.88112   0.00000  Uiso   1.00
H349   H     0.58460   0.45732   0.72519   0.00000  Uiso   1.00
H350   H     0.54629   0.69800   0.34208   0.00000  Uiso   1.00
H351   H     0.41445   0.66379   0.07863   0.00000  Uiso   1.00
H352   H     0.67192   0.35183   0.74983   0.00000  Uiso   1.00
H353   H     0.73289   0.66318   0.82417   0.00000  Uiso   1.00
H354   H     0.73945   0.72603   0.64626   0.00000  Uiso   1.00
H355   H     0.67692   0.70981   0.99558   0.00000  Uiso   1.00
H356   H     0.79902   0.56187   0.83965   0.00000  Uiso   1.00
H357   H     0.72033   0.78286   0.43497   0.00000  Uiso   1.00
H358   H     0.58849   0.74865   0.17153   0.00000  Uiso   1.00
H359   H     0.84596   0.43668   0.84273   0.00000  Uiso   1.00
O360   O     0.63395   0.78000   0.26955   0.00000  Uiso   1.00
O361   O     0.46098   0.73511   0.23589   0.00000  Uiso   1.00
O362   O     0.79878   0.32582   0.80451   0.00000  Uiso   1.00
N363   N     0.58636   0.70934   0.38834   0.00000  Uiso   1.00
N364   N     0.46309   0.67736   0.07697   0.00000  Uiso   1.00
N365   N     0.70380   0.38570   0.76960   0.00000  Uiso   1.00
N366   N     0.68001   0.75500   0.43833   0.00000  Uiso   1.00
N367   N     0.55674   0.72302   0.12696   0.00000  Uiso   1.00
N368   N     0.79745   0.43136   0.81959   0.00000  Uiso   1.00
