data_job_05879
_audit_creation_date              2018-12-19
_audit_creation_method            'Materials Studio'
_symmetry_space_group_name_H-M    'P1'
_symmetry_Int_Tables_number       1
_symmetry_cell_setting            triclinic
loop_
_symmetry_equiv_pos_as_xyz
  x,y,z
_cell_length_a                    13.6748
_cell_length_b                    15.3316
_cell_length_c                    21.2229
_cell_angle_alpha                 90.0000
_cell_angle_beta                  90.0000
_cell_angle_gamma                 90.0000
loop_
_atom_site_label
_atom_site_type_symbol
_atom_site_fract_x
_atom_site_fract_y
_atom_site_fract_z
_atom_site_U_iso_or_equiv
_atom_site_adp_type
_atom_site_occupancy
C1     C     0.82847   0.18360   0.14703   0.00000  Uiso   1.00
C2     C     0.83398   0.16809   0.21792   0.00000  Uiso   1.00
C3     C     0.87321   0.09497   0.24701   0.00000  Uiso   1.00
C4     C     0.87135   0.09317   0.31241   0.00000  Uiso   1.00
C5     C     0.88590   0.05859   0.41715   0.00000  Uiso   1.00
C6     C     0.72083   0.19961   0.13222   0.00000  Uiso   1.00
C7     C     0.66495   0.15300   0.08925   0.00000  Uiso   1.00
C8     C     0.56785   0.17775   0.08250   0.00000  Uiso   1.00
C9     C     0.40676   0.19215   0.05416   0.00000  Uiso   1.00
C10    C     0.88049   0.27000   0.13509   0.00000  Uiso   1.00
C11    C     0.95884   0.28258   0.09453   0.00000  Uiso   1.00
C12    C     0.99614   0.36660   0.09018   0.00000  Uiso   1.00
C13    C     0.08295   0.49029   0.06630   0.00000  Uiso   1.00
C14    C     0.75539   0.31043   0.21143   0.00000  Uiso   1.00
C15    C     0.79428   0.23698   0.25289   0.00000  Uiso   1.00
C16    C     0.79236   0.23529   0.31826   0.00000  Uiso   1.00
C17    C     0.83159   0.16218   0.34745   0.00000  Uiso   1.00
C18    C     0.68114   0.26850   0.16719   0.00000  Uiso   1.00
C19    C     0.58410   0.29332   0.16050   0.00000  Uiso   1.00
C20    C     0.52808   0.24676   0.11754   0.00000  Uiso   1.00
C21    C     0.84080   0.33889   0.17007   0.00000  Uiso   1.00
C22    C     0.87798   0.42290   0.16578   0.00000  Uiso   1.00
C23    C     0.95637   0.43561   0.12522   0.00000  Uiso   1.00
H24    H     0.85936   0.12996   0.11980   0.00000  Uiso   1.00
H25    H     0.90392   0.04167   0.21993   0.00000  Uiso   1.00
H26    H     0.69569   0.09970   0.06219   0.00000  Uiso   1.00
H27    H     0.98953   0.22926   0.06747   0.00000  Uiso   1.00
H28    H     0.93578   0.97414   0.34636   0.00000  Uiso   1.00
H29    H     0.49673   0.09652   0.01374   0.00000  Uiso   1.00
H30    H     0.11635   0.36972   0.02487   0.00000  Uiso   1.00
H31    H     0.72448   0.36406   0.23866   0.00000  Uiso   1.00
H32    H     0.76164   0.28861   0.34532   0.00000  Uiso   1.00
H33    H     0.55341   0.34664   0.18757   0.00000  Uiso   1.00
H34    H     0.84725   0.47620   0.19285   0.00000  Uiso   1.00
H35    H     0.82029   0.17457   0.44814   0.00000  Uiso   1.00
H36    H     0.38124   0.29695   0.11551   0.00000  Uiso   1.00
H37    H     0.00087   0.57015   0.12665   0.00000  Uiso   1.00
O38    O     0.90488   0.02048   0.46527   0.00000  Uiso   1.00
O39    O     0.32888   0.18105   0.02887   0.00000  Uiso   1.00
O40    O     0.14181   0.53948   0.04348   0.00000  Uiso   1.00
N41    N     0.90352   0.03168   0.35568   0.00000  Uiso   1.00
N42    N     0.49303   0.14608   0.04471   0.00000  Uiso   1.00
N43    N     0.07231   0.40151   0.05510   0.00000  Uiso   1.00
N44    N     0.84138   0.13952   0.41044   0.00000  Uiso   1.00
N45    N     0.43089   0.25393   0.09947   0.00000  Uiso   1.00
N46    N     0.01017   0.50935   0.10986   0.00000  Uiso   1.00
C47    C     0.67153   0.81640   0.14703   0.00000  Uiso   1.00
C48    C     0.66602   0.83191   0.21792   0.00000  Uiso   1.00
C49    C     0.62679   0.90503   0.24701   0.00000  Uiso   1.00
C50    C     0.62865   0.90683   0.31241   0.00000  Uiso   1.00
C51    C     0.61410   0.94141   0.41715   0.00000  Uiso   1.00
C52    C     0.77917   0.80039   0.13222   0.00000  Uiso   1.00
C53    C     0.83505   0.84700   0.08925   0.00000  Uiso   1.00
C54    C     0.93215   0.82225   0.08250   0.00000  Uiso   1.00
C55    C     0.09324   0.80785   0.05416   0.00000  Uiso   1.00
C56    C     0.61951   0.73000   0.13509   0.00000  Uiso   1.00
C57    C     0.54116   0.71742   0.09453   0.00000  Uiso   1.00
C58    C     0.50386   0.63340   0.09018   0.00000  Uiso   1.00
C59    C     0.41705   0.50971   0.06630   0.00000  Uiso   1.00
C60    C     0.74461   0.68957   0.21143   0.00000  Uiso   1.00
C61    C     0.70572   0.76302   0.25289   0.00000  Uiso   1.00
C62    C     0.70764   0.76471   0.31826   0.00000  Uiso   1.00
C63    C     0.66841   0.83782   0.34745   0.00000  Uiso   1.00
C64    C     0.81886   0.73150   0.16719   0.00000  Uiso   1.00
C65    C     0.91590   0.70668   0.16050   0.00000  Uiso   1.00
C66    C     0.97192   0.75324   0.11754   0.00000  Uiso   1.00
C67    C     0.65920   0.66111   0.17007   0.00000  Uiso   1.00
C68    C     0.62202   0.57710   0.16578   0.00000  Uiso   1.00
C69    C     0.54363   0.56439   0.12522   0.00000  Uiso   1.00
H70    H     0.64064   0.87004   0.11980   0.00000  Uiso   1.00
H71    H     0.59608   0.95833   0.21993   0.00000  Uiso   1.00
H72    H     0.80431   0.90030   0.06219   0.00000  Uiso   1.00
H73    H     0.51047   0.77074   0.06747   0.00000  Uiso   1.00
H74    H     0.56422   0.02586   0.34636   0.00000  Uiso   1.00
H75    H     0.00327   0.90348   0.01374   0.00000  Uiso   1.00
H76    H     0.38365   0.63028   0.02487   0.00000  Uiso   1.00
H77    H     0.77552   0.63594   0.23866   0.00000  Uiso   1.00
H78    H     0.73836   0.71139   0.34532   0.00000  Uiso   1.00
H79    H     0.94659   0.65336   0.18757   0.00000  Uiso   1.00
H80    H     0.65275   0.52380   0.19285   0.00000  Uiso   1.00
H81    H     0.67971   0.82543   0.44814   0.00000  Uiso   1.00
H82    H     0.11876   0.70305   0.11551   0.00000  Uiso   1.00
H83    H     0.49913   0.42985   0.12665   0.00000  Uiso   1.00
O84    O     0.59512   0.97952   0.46527   0.00000  Uiso   1.00
O85    O     0.17112   0.81895   0.02887   0.00000  Uiso   1.00
O86    O     0.35819   0.46052   0.04348   0.00000  Uiso   1.00
N87    N     0.59648   0.96832   0.35568   0.00000  Uiso   1.00
N88    N     0.00697   0.85392   0.04471   0.00000  Uiso   1.00
N89    N     0.42769   0.59849   0.05510   0.00000  Uiso   1.00
N90    N     0.65862   0.86048   0.41044   0.00000  Uiso   1.00
N91    N     0.06911   0.74607   0.09947   0.00000  Uiso   1.00
N92    N     0.48983   0.49065   0.10986   0.00000  Uiso   1.00
C93    C     0.17153   0.18360   0.35297   0.00000  Uiso   1.00
C94    C     0.16602   0.16809   0.28208   0.00000  Uiso   1.00
C95    C     0.12679   0.09497   0.25299   0.00000  Uiso   1.00
C96    C     0.12865   0.09317   0.18759   0.00000  Uiso   1.00
C97    C     0.11410   0.05859   0.08285   0.00000  Uiso   1.00
C98    C     0.27917   0.19961   0.36778   0.00000  Uiso   1.00
C99    C     0.33505   0.15300   0.41075   0.00000  Uiso   1.00
C100   C     0.43215   0.17775   0.41750   0.00000  Uiso   1.00
C101   C     0.59324   0.19215   0.44584   0.00000  Uiso   1.00
C102   C     0.11951   0.27000   0.36491   0.00000  Uiso   1.00
C103   C     0.04116   0.28258   0.40547   0.00000  Uiso   1.00
C104   C     0.00386   0.36660   0.40982   0.00000  Uiso   1.00
C105   C     0.91705   0.49029   0.43370   0.00000  Uiso   1.00
C106   C     0.24461   0.31043   0.28857   0.00000  Uiso   1.00
C107   C     0.20572   0.23698   0.24711   0.00000  Uiso   1.00
C108   C     0.20764   0.23529   0.18174   0.00000  Uiso   1.00
C109   C     0.16841   0.16218   0.15255   0.00000  Uiso   1.00
C110   C     0.31886   0.26850   0.33281   0.00000  Uiso   1.00
C111   C     0.41590   0.29332   0.33950   0.00000  Uiso   1.00
C112   C     0.47192   0.24676   0.38246   0.00000  Uiso   1.00
C113   C     0.15920   0.33889   0.32993   0.00000  Uiso   1.00
C114   C     0.12202   0.42290   0.33422   0.00000  Uiso   1.00
C115   C     0.04363   0.43561   0.37478   0.00000  Uiso   1.00
H116   H     0.14064   0.12996   0.38020   0.00000  Uiso   1.00
H117   H     0.09608   0.04167   0.28007   0.00000  Uiso   1.00
H118   H     0.30431   0.09970   0.43781   0.00000  Uiso   1.00
H119   H     0.01047   0.22926   0.43253   0.00000  Uiso   1.00
H120   H     0.06422   0.97414   0.15364   0.00000  Uiso   1.00
H121   H     0.50327   0.09652   0.48626   0.00000  Uiso   1.00
H122   H     0.88365   0.36972   0.47513   0.00000  Uiso   1.00
H123   H     0.27552   0.36406   0.26134   0.00000  Uiso   1.00
H124   H     0.23836   0.28861   0.15468   0.00000  Uiso   1.00
H125   H     0.44659   0.34664   0.31243   0.00000  Uiso   1.00
H126   H     0.15275   0.47620   0.30715   0.00000  Uiso   1.00
H127   H     0.17971   0.17457   0.05186   0.00000  Uiso   1.00
H128   H     0.61876   0.29695   0.38449   0.00000  Uiso   1.00
H129   H     0.99913   0.57015   0.37335   0.00000  Uiso   1.00
O130   O     0.09512   0.02048   0.03473   0.00000  Uiso   1.00
O131   O     0.67112   0.18105   0.47113   0.00000  Uiso   1.00
O132   O     0.85819   0.53948   0.45652   0.00000  Uiso   1.00
N133   N     0.09648   0.03168   0.14432   0.00000  Uiso   1.00
N134   N     0.50697   0.14608   0.45529   0.00000  Uiso   1.00
N135   N     0.92769   0.40151   0.44490   0.00000  Uiso   1.00
N136   N     0.15862   0.13952   0.08956   0.00000  Uiso   1.00
N137   N     0.56911   0.25393   0.40053   0.00000  Uiso   1.00
N138   N     0.98983   0.50935   0.39014   0.00000  Uiso   1.00
C139   C     0.32847   0.81640   0.35297   0.00000  Uiso   1.00
C140   C     0.33398   0.83191   0.28208   0.00000  Uiso   1.00
C141   C     0.37321   0.90503   0.25299   0.00000  Uiso   1.00
C142   C     0.37135   0.90683   0.18759   0.00000  Uiso   1.00
C143   C     0.38590   0.94141   0.08285   0.00000  Uiso   1.00
C144   C     0.22083   0.80039   0.36778   0.00000  Uiso   1.00
C145   C     0.16495   0.84700   0.41075   0.00000  Uiso   1.00
C146   C     0.06785   0.82225   0.41750   0.00000  Uiso   1.00
C147   C     0.90676   0.80785   0.44584   0.00000  Uiso   1.00
C148   C     0.38049   0.73000   0.36491   0.00000  Uiso   1.00
C149   C     0.45884   0.71742   0.40547   0.00000  Uiso   1.00
C150   C     0.49614   0.63340   0.40982   0.00000  Uiso   1.00
C151   C     0.58295   0.50971   0.43370   0.00000  Uiso   1.00
C152   C     0.25539   0.68957   0.28857   0.00000  Uiso   1.00
C153   C     0.29428   0.76302   0.24711   0.00000  Uiso   1.00
C154   C     0.29236   0.76471   0.18174   0.00000  Uiso   1.00
C155   C     0.33159   0.83782   0.15255   0.00000  Uiso   1.00
C156   C     0.18114   0.73150   0.33281   0.00000  Uiso   1.00
C157   C     0.08410   0.70668   0.33950   0.00000  Uiso   1.00
C158   C     0.02808   0.75324   0.38246   0.00000  Uiso   1.00
C159   C     0.34080   0.66111   0.32993   0.00000  Uiso   1.00
C160   C     0.37798   0.57710   0.33422   0.00000  Uiso   1.00
C161   C     0.45637   0.56439   0.37478   0.00000  Uiso   1.00
H162   H     0.35936   0.87004   0.38020   0.00000  Uiso   1.00
H163   H     0.40392   0.95833   0.28007   0.00000  Uiso   1.00
H164   H     0.19569   0.90030   0.43781   0.00000  Uiso   1.00
H165   H     0.48953   0.77074   0.43253   0.00000  Uiso   1.00
H166   H     0.43578   0.02586   0.15364   0.00000  Uiso   1.00
H167   H     0.99673   0.90348   0.48626   0.00000  Uiso   1.00
H168   H     0.61635   0.63028   0.47513   0.00000  Uiso   1.00
H169   H     0.22448   0.63594   0.26134   0.00000  Uiso   1.00
H170   H     0.26164   0.71139   0.15468   0.00000  Uiso   1.00
H171   H     0.05341   0.65336   0.31243   0.00000  Uiso   1.00
H172   H     0.34725   0.52380   0.30715   0.00000  Uiso   1.00
H173   H     0.32029   0.82543   0.05186   0.00000  Uiso   1.00
H174   H     0.88124   0.70305   0.38449   0.00000  Uiso   1.00
H175   H     0.50087   0.42985   0.37335   0.00000  Uiso   1.00
O176   O     0.40488   0.97952   0.03473   0.00000  Uiso   1.00
O177   O     0.82888   0.81895   0.47113   0.00000  Uiso   1.00
O178   O     0.64181   0.46052   0.45652   0.00000  Uiso   1.00
N179   N     0.40352   0.96832   0.14432   0.00000  Uiso   1.00
N180   N     0.99303   0.85392   0.45529   0.00000  Uiso   1.00
N181   N     0.57231   0.59849   0.44490   0.00000  Uiso   1.00
N182   N     0.34138   0.86048   0.08956   0.00000  Uiso   1.00
N183   N     0.93089   0.74607   0.40053   0.00000  Uiso   1.00
N184   N     0.51017   0.49065   0.39014   0.00000  Uiso   1.00
C185   C     0.17153   0.81640   0.85297   0.00000  Uiso   1.00
C186   C     0.16602   0.83191   0.78208   0.00000  Uiso   1.00
C187   C     0.12679   0.90503   0.75299   0.00000  Uiso   1.00
C188   C     0.12865   0.90683   0.68759   0.00000  Uiso   1.00
C189   C     0.11410   0.94141   0.58285   0.00000  Uiso   1.00
C190   C     0.27917   0.80039   0.86778   0.00000  Uiso   1.00
C191   C     0.33505   0.84700   0.91075   0.00000  Uiso   1.00
C192   C     0.43215   0.82225   0.91750   0.00000  Uiso   1.00
C193   C     0.59324   0.80785   0.94584   0.00000  Uiso   1.00
C194   C     0.11951   0.73000   0.86491   0.00000  Uiso   1.00
C195   C     0.04116   0.71742   0.90547   0.00000  Uiso   1.00
C196   C     0.00386   0.63340   0.90982   0.00000  Uiso   1.00
C197   C     0.91705   0.50971   0.93370   0.00000  Uiso   1.00
C198   C     0.24461   0.68957   0.78857   0.00000  Uiso   1.00
C199   C     0.20572   0.76302   0.74711   0.00000  Uiso   1.00
C200   C     0.20764   0.76471   0.68174   0.00000  Uiso   1.00
C201   C     0.16841   0.83782   0.65255   0.00000  Uiso   1.00
C202   C     0.31886   0.73150   0.83281   0.00000  Uiso   1.00
C203   C     0.41590   0.70668   0.83950   0.00000  Uiso   1.00
C204   C     0.47192   0.75324   0.88246   0.00000  Uiso   1.00
C205   C     0.15920   0.66111   0.82993   0.00000  Uiso   1.00
C206   C     0.12202   0.57710   0.83422   0.00000  Uiso   1.00
C207   C     0.04363   0.56439   0.87478   0.00000  Uiso   1.00
H208   H     0.14064   0.87004   0.88020   0.00000  Uiso   1.00
H209   H     0.09608   0.95833   0.78007   0.00000  Uiso   1.00
H210   H     0.30431   0.90030   0.93781   0.00000  Uiso   1.00
H211   H     0.01047   0.77074   0.93253   0.00000  Uiso   1.00
H212   H     0.06422   0.02586   0.65364   0.00000  Uiso   1.00
H213   H     0.50327   0.90348   0.98626   0.00000  Uiso   1.00
H214   H     0.88365   0.63028   0.97513   0.00000  Uiso   1.00
H215   H     0.27552   0.63594   0.76134   0.00000  Uiso   1.00
H216   H     0.23836   0.71139   0.65468   0.00000  Uiso   1.00
H217   H     0.44659   0.65336   0.81243   0.00000  Uiso   1.00
H218   H     0.15275   0.52380   0.80715   0.00000  Uiso   1.00
H219   H     0.17971   0.82543   0.55186   0.00000  Uiso   1.00
H220   H     0.61876   0.70305   0.88449   0.00000  Uiso   1.00
H221   H     0.99913   0.42985   0.87335   0.00000  Uiso   1.00
O222   O     0.09512   0.97952   0.53473   0.00000  Uiso   1.00
O223   O     0.67112   0.81895   0.97113   0.00000  Uiso   1.00
O224   O     0.85819   0.46052   0.95652   0.00000  Uiso   1.00
N225   N     0.09648   0.96832   0.64432   0.00000  Uiso   1.00
N226   N     0.50697   0.85392   0.95529   0.00000  Uiso   1.00
N227   N     0.92769   0.59849   0.94490   0.00000  Uiso   1.00
N228   N     0.15862   0.86048   0.58956   0.00000  Uiso   1.00
N229   N     0.56911   0.74607   0.90053   0.00000  Uiso   1.00
N230   N     0.98983   0.49065   0.89014   0.00000  Uiso   1.00
C231   C     0.32847   0.18360   0.85297   0.00000  Uiso   1.00
C232   C     0.33398   0.16809   0.78208   0.00000  Uiso   1.00
C233   C     0.37321   0.09497   0.75299   0.00000  Uiso   1.00
C234   C     0.37135   0.09317   0.68759   0.00000  Uiso   1.00
C235   C     0.38590   0.05859   0.58285   0.00000  Uiso   1.00
C236   C     0.22083   0.19961   0.86778   0.00000  Uiso   1.00
C237   C     0.16495   0.15300   0.91075   0.00000  Uiso   1.00
C238   C     0.06785   0.17775   0.91750   0.00000  Uiso   1.00
C239   C     0.90676   0.19215   0.94584   0.00000  Uiso   1.00
C240   C     0.38049   0.27000   0.86491   0.00000  Uiso   1.00
C241   C     0.45884   0.28258   0.90547   0.00000  Uiso   1.00
C242   C     0.49614   0.36660   0.90982   0.00000  Uiso   1.00
C243   C     0.58295   0.49029   0.93370   0.00000  Uiso   1.00
C244   C     0.25539   0.31043   0.78857   0.00000  Uiso   1.00
C245   C     0.29428   0.23698   0.74711   0.00000  Uiso   1.00
C246   C     0.29236   0.23529   0.68174   0.00000  Uiso   1.00
C247   C     0.33159   0.16218   0.65255   0.00000  Uiso   1.00
C248   C     0.18114   0.26850   0.83281   0.00000  Uiso   1.00
C249   C     0.08410   0.29332   0.83950   0.00000  Uiso   1.00
C250   C     0.02808   0.24676   0.88246   0.00000  Uiso   1.00
C251   C     0.34080   0.33889   0.82993   0.00000  Uiso   1.00
C252   C     0.37798   0.42290   0.83422   0.00000  Uiso   1.00
C253   C     0.45637   0.43561   0.87478   0.00000  Uiso   1.00
H254   H     0.35936   0.12996   0.88020   0.00000  Uiso   1.00
H255   H     0.40392   0.04167   0.78007   0.00000  Uiso   1.00
H256   H     0.19569   0.09970   0.93781   0.00000  Uiso   1.00
H257   H     0.48953   0.22926   0.93253   0.00000  Uiso   1.00
H258   H     0.43578   0.97414   0.65364   0.00000  Uiso   1.00
H259   H     0.99673   0.09652   0.98626   0.00000  Uiso   1.00
H260   H     0.61635   0.36972   0.97513   0.00000  Uiso   1.00
H261   H     0.22448   0.36406   0.76134   0.00000  Uiso   1.00
H262   H     0.26164   0.28861   0.65468   0.00000  Uiso   1.00
H263   H     0.05341   0.34664   0.81243   0.00000  Uiso   1.00
H264   H     0.34725   0.47620   0.80715   0.00000  Uiso   1.00
H265   H     0.32029   0.17457   0.55186   0.00000  Uiso   1.00
H266   H     0.88124   0.29695   0.88449   0.00000  Uiso   1.00
H267   H     0.50087   0.57015   0.87335   0.00000  Uiso   1.00
O268   O     0.40488   0.02048   0.53473   0.00000  Uiso   1.00
O269   O     0.82888   0.18105   0.97113   0.00000  Uiso   1.00
O270   O     0.64181   0.53948   0.95652   0.00000  Uiso   1.00
N271   N     0.40352   0.03168   0.64432   0.00000  Uiso   1.00
N272   N     0.99303   0.14608   0.95529   0.00000  Uiso   1.00
N273   N     0.57231   0.40151   0.94490   0.00000  Uiso   1.00
N274   N     0.34138   0.13952   0.58956   0.00000  Uiso   1.00
N275   N     0.93089   0.25393   0.90053   0.00000  Uiso   1.00
N276   N     0.51017   0.50935   0.89014   0.00000  Uiso   1.00
C277   C     0.82847   0.81640   0.64703   0.00000  Uiso   1.00
C278   C     0.83398   0.83191   0.71792   0.00000  Uiso   1.00
C279   C     0.87321   0.90503   0.74701   0.00000  Uiso   1.00
C280   C     0.87135   0.90683   0.81241   0.00000  Uiso   1.00
C281   C     0.88590   0.94141   0.91715   0.00000  Uiso   1.00
C282   C     0.72083   0.80039   0.63222   0.00000  Uiso   1.00
C283   C     0.66495   0.84700   0.58925   0.00000  Uiso   1.00
C284   C     0.56785   0.82225   0.58250   0.00000  Uiso   1.00
C285   C     0.40676   0.80785   0.55416   0.00000  Uiso   1.00
C286   C     0.88049   0.73000   0.63509   0.00000  Uiso   1.00
C287   C     0.95884   0.71742   0.59453   0.00000  Uiso   1.00
C288   C     0.99614   0.63340   0.59018   0.00000  Uiso   1.00
C289   C     0.08295   0.50971   0.56630   0.00000  Uiso   1.00
C290   C     0.75539   0.68957   0.71143   0.00000  Uiso   1.00
C291   C     0.79428   0.76302   0.75289   0.00000  Uiso   1.00
C292   C     0.79236   0.76471   0.81826   0.00000  Uiso   1.00
C293   C     0.83159   0.83782   0.84745   0.00000  Uiso   1.00
C294   C     0.68114   0.73150   0.66719   0.00000  Uiso   1.00
C295   C     0.58410   0.70668   0.66050   0.00000  Uiso   1.00
C296   C     0.52808   0.75324   0.61754   0.00000  Uiso   1.00
C297   C     0.84080   0.66111   0.67007   0.00000  Uiso   1.00
C298   C     0.87798   0.57710   0.66578   0.00000  Uiso   1.00
C299   C     0.95637   0.56439   0.62522   0.00000  Uiso   1.00
H300   H     0.85936   0.87004   0.61980   0.00000  Uiso   1.00
H301   H     0.90392   0.95833   0.71993   0.00000  Uiso   1.00
H302   H     0.69569   0.90030   0.56219   0.00000  Uiso   1.00
H303   H     0.98953   0.77074   0.56747   0.00000  Uiso   1.00
H304   H     0.93578   0.02586   0.84636   0.00000  Uiso   1.00
H305   H     0.49673   0.90348   0.51374   0.00000  Uiso   1.00
H306   H     0.11635   0.63028   0.52487   0.00000  Uiso   1.00
H307   H     0.72448   0.63594   0.73866   0.00000  Uiso   1.00
H308   H     0.76164   0.71139   0.84532   0.00000  Uiso   1.00
H309   H     0.55341   0.65336   0.68757   0.00000  Uiso   1.00
H310   H     0.84725   0.52380   0.69285   0.00000  Uiso   1.00
H311   H     0.82029   0.82543   0.94814   0.00000  Uiso   1.00
H312   H     0.38124   0.70305   0.61551   0.00000  Uiso   1.00
H313   H     0.00087   0.42985   0.62665   0.00000  Uiso   1.00
O314   O     0.90488   0.97952   0.96527   0.00000  Uiso   1.00
O315   O     0.32888   0.81895   0.52887   0.00000  Uiso   1.00
O316   O     0.14181   0.46052   0.54348   0.00000  Uiso   1.00
N317   N     0.90352   0.96832   0.85568   0.00000  Uiso   1.00
N318   N     0.49303   0.85392   0.54471   0.00000  Uiso   1.00
N319   N     0.07231   0.59849   0.55510   0.00000  Uiso   1.00
N320   N     0.84138   0.86048   0.91044   0.00000  Uiso   1.00
N321   N     0.43089   0.74607   0.59947   0.00000  Uiso   1.00
N322   N     0.01017   0.49065   0.60986   0.00000  Uiso   1.00
C323   C     0.67153   0.18360   0.64703   0.00000  Uiso   1.00
C324   C     0.66602   0.16809   0.71792   0.00000  Uiso   1.00
C325   C     0.62679   0.09497   0.74701   0.00000  Uiso   1.00
C326   C     0.62865   0.09317   0.81241   0.00000  Uiso   1.00
C327   C     0.61410   0.05859   0.91715   0.00000  Uiso   1.00
C328   C     0.77917   0.19961   0.63222   0.00000  Uiso   1.00
C329   C     0.83505   0.15300   0.58925   0.00000  Uiso   1.00
C330   C     0.93215   0.17775   0.58250   0.00000  Uiso   1.00
C331   C     0.09324   0.19215   0.55416   0.00000  Uiso   1.00
C332   C     0.61951   0.27000   0.63509   0.00000  Uiso   1.00
C333   C     0.54116   0.28258   0.59453   0.00000  Uiso   1.00
C334   C     0.50386   0.36660   0.59018   0.00000  Uiso   1.00
C335   C     0.41705   0.49029   0.56630   0.00000  Uiso   1.00
C336   C     0.74461   0.31043   0.71143   0.00000  Uiso   1.00
C337   C     0.70572   0.23698   0.75289   0.00000  Uiso   1.00
C338   C     0.70764   0.23529   0.81826   0.00000  Uiso   1.00
C339   C     0.66841   0.16218   0.84745   0.00000  Uiso   1.00
C340   C     0.81886   0.26850   0.66719   0.00000  Uiso   1.00
C341   C     0.91590   0.29332   0.66050   0.00000  Uiso   1.00
C342   C     0.97192   0.24676   0.61754   0.00000  Uiso   1.00
C343   C     0.65920   0.33889   0.67007   0.00000  Uiso   1.00
C344   C     0.62202   0.42290   0.66578   0.00000  Uiso   1.00
C345   C     0.54363   0.43561   0.62522   0.00000  Uiso   1.00
H346   H     0.64064   0.12996   0.61980   0.00000  Uiso   1.00
H347   H     0.59608   0.04167   0.71993   0.00000  Uiso   1.00
H348   H     0.80431   0.09970   0.56219   0.00000  Uiso   1.00
H349   H     0.51047   0.22926   0.56747   0.00000  Uiso   1.00
H350   H     0.56422   0.97414   0.84636   0.00000  Uiso   1.00
H351   H     0.00327   0.09652   0.51374   0.00000  Uiso   1.00
H352   H     0.38365   0.36972   0.52487   0.00000  Uiso   1.00
H353   H     0.77552   0.36406   0.73866   0.00000  Uiso   1.00
H354   H     0.73836   0.28861   0.84532   0.00000  Uiso   1.00
H355   H     0.94659   0.34664   0.68757   0.00000  Uiso   1.00
H356   H     0.65275   0.47620   0.69285   0.00000  Uiso   1.00
H357   H     0.67971   0.17457   0.94814   0.00000  Uiso   1.00
H358   H     0.11876   0.29695   0.61551   0.00000  Uiso   1.00
H359   H     0.49913   0.57015   0.62665   0.00000  Uiso   1.00
O360   O     0.59512   0.02048   0.96527   0.00000  Uiso   1.00
O361   O     0.17112   0.18105   0.52887   0.00000  Uiso   1.00
O362   O     0.35819   0.53948   0.54348   0.00000  Uiso   1.00
N363   N     0.59648   0.03168   0.85568   0.00000  Uiso   1.00
N364   N     0.00697   0.14608   0.54471   0.00000  Uiso   1.00
N365   N     0.42769   0.40151   0.55510   0.00000  Uiso   1.00
N366   N     0.65862   0.13952   0.91044   0.00000  Uiso   1.00
N367   N     0.06911   0.25393   0.59947   0.00000  Uiso   1.00
N368   N     0.48983   0.50935   0.60986   0.00000  Uiso   1.00
