data_job_06283
_audit_creation_date              2018-12-19
_audit_creation_method            'Materials Studio'
_symmetry_space_group_name_H-M    'P1'
_symmetry_Int_Tables_number       1
_symmetry_cell_setting            triclinic
loop_
_symmetry_equiv_pos_as_xyz
  x,y,z
_cell_length_a                    12.3338
_cell_length_b                    25.5164
_cell_length_c                    25.5436
_cell_angle_alpha                 62.5570
_cell_angle_beta                  80.9540
_cell_angle_gamma                 99.0346
loop_
_atom_site_label
_atom_site_type_symbol
_atom_site_fract_x
_atom_site_fract_y
_atom_site_fract_z
_atom_site_U_iso_or_equiv
_atom_site_adp_type
_atom_site_occupancy
C1     C     0.76755   0.80760   0.68418   0.00000  Uiso   1.00
C2     C     0.63918   0.78032   0.70379   0.00000  Uiso   1.00
C3     C     0.57666   0.76150   0.67197   0.00000  Uiso   1.00
C4     C     0.46008   0.73777   0.69753   0.00000  Uiso   1.00
C5     C     0.26867   0.69615   0.71954   0.00000  Uiso   1.00
C6     C     0.78529   0.86935   0.68158   0.00000  Uiso   1.00
C7     C     0.84564   0.92540   0.63109   0.00000  Uiso   1.00
C8     C     0.85205   0.97661   0.63796   0.00000  Uiso   1.00
C9     C     0.88755   0.07321   0.62549   0.00000  Uiso   1.00
C10    C     0.81247   0.76719   0.73705   0.00000  Uiso   1.00
C11    C     0.89569   0.73734   0.73320   0.00000  Uiso   1.00
C12    C     0.92501   0.70255   0.78676   0.00000  Uiso   1.00
C13    C     0.00271   0.64052   0.86042   0.00000  Uiso   1.00
C14    C     0.67167   0.79890   0.78615   0.00000  Uiso   1.00
C15    C     0.58711   0.77560   0.75917   0.00000  Uiso   1.00
C16    C     0.47058   0.75188   0.78479   0.00000  Uiso   1.00
C17    C     0.40790   0.73303   0.75302   0.00000  Uiso   1.00
C18    C     0.73322   0.86463   0.73696   0.00000  Uiso   1.00
C19    C     0.73956   0.91577   0.74390   0.00000  Uiso   1.00
C20    C     0.79988   0.97188   0.69344   0.00000  Uiso   1.00
C21    C     0.76039   0.76246   0.79243   0.00000  Uiso   1.00
C22    C     0.78960   0.72771   0.84601   0.00000  Uiso   1.00
C23    C     0.87284   0.69782   0.84225   0.00000  Uiso   1.00
H24    H     0.80810   0.81129   0.64106   0.00000  Uiso   1.00
H25    H     0.61700   0.76517   0.62911   0.00000  Uiso   1.00
H26    H     0.88594   0.92904   0.58824   0.00000  Uiso   1.00
H27    H     0.93597   0.74101   0.69033   0.00000  Uiso   1.00
H28    H     0.38215   0.71199   0.64028   0.00000  Uiso   1.00
H29    H     0.94926   0.05750   0.55410   0.00000  Uiso   1.00
H30    H     0.05478   0.66100   0.76938   0.00000  Uiso   1.00
H31    H     0.63113   0.79523   0.82927   0.00000  Uiso   1.00
H32    H     0.43031   0.74823   0.82765   0.00000  Uiso   1.00
H33    H     0.69925   0.91209   0.78677   0.00000  Uiso   1.00
H34    H     0.74928   0.72407   0.88886   0.00000  Uiso   1.00
H35    H     0.23063   0.69824   0.80141   0.00000  Uiso   1.00
H36    H     0.79774   0.04375   0.71524   0.00000  Uiso   1.00
H37    H     0.90325   0.64725   0.93051   0.00000  Uiso   1.00
O38    O     0.17748   0.67450   0.71637   0.00000  Uiso   1.00
O39    O     0.92151   0.12780   0.60331   0.00000  Uiso   1.00
O40    O     0.05995   0.60761   0.88575   0.00000  Uiso   1.00
N41    N     0.37406   0.71519   0.67843   0.00000  Uiso   1.00
N42    N     0.90425   0.03822   0.59786   0.00000  Uiso   1.00
N43    N     0.00292   0.66755   0.79912   0.00000  Uiso   1.00
N44    N     0.29252   0.70779   0.76514   0.00000  Uiso   1.00
N45    N     0.82271   0.03082   0.68456   0.00000  Uiso   1.00
N46    N     0.92139   0.66015   0.88583   0.00000  Uiso   1.00
C47    C     0.96007   0.50940   0.80494   0.00000  Uiso   1.00
C48    C     0.85884   0.51723   0.77724   0.00000  Uiso   1.00
C49    C     0.81494   0.56792   0.75832   0.00000  Uiso   1.00
C50    C     0.72197   0.56624   0.73419   0.00000  Uiso   1.00
C51    C     0.57194   0.58608   0.69197   0.00000  Uiso   1.00
C52    C     0.91695   0.45044   0.86653   0.00000  Uiso   1.00
C53    C     0.92194   0.44497   0.92268   0.00000  Uiso   1.00
C54    C     0.87790   0.38706   0.97372   0.00000  Uiso   1.00
C55    C     0.81818   0.30320   0.07011   0.00000  Uiso   1.00
C56    C     0.04476   0.49671   0.76476   0.00000  Uiso   1.00
C57    C     0.15722   0.53014   0.73534   0.00000  Uiso   1.00
C58    C     0.22080   0.51117   0.70070   0.00000  Uiso   1.00
C59    C     0.35952   0.49915   0.63907   0.00000  Uiso   1.00
C60    C     0.87303   0.41627   0.79575   0.00000  Uiso   1.00
C61    C     0.81156   0.46664   0.77225   0.00000  Uiso   1.00
C62    C     0.71864   0.46488   0.74814   0.00000  Uiso   1.00
C63    C     0.67461   0.51556   0.72918   0.00000  Uiso   1.00
C64    C     0.86968   0.39985   0.86154   0.00000  Uiso   1.00
C65    C     0.82563   0.34193   0.91251   0.00000  Uiso   1.00
C66    C     0.83054   0.33638   0.96871   0.00000  Uiso   1.00
C67    C     0.99748   0.44612   0.75976   0.00000  Uiso   1.00
C68    C     0.06091   0.42709   0.72517   0.00000  Uiso   1.00
C69    C     0.17344   0.46049   0.69570   0.00000  Uiso   1.00
H70    H     0.99687   0.54878   0.80884   0.00000  Uiso   1.00
H71    H     0.85154   0.60706   0.76220   0.00000  Uiso   1.00
H72    H     0.95854   0.48413   0.92653   0.00000  Uiso   1.00
H73    H     0.19377   0.56928   0.73922   0.00000  Uiso   1.00
H74    H     0.66954   0.64935   0.70831   0.00000  Uiso   1.00
H75    H     0.89518   0.39014   0.05481   0.00000  Uiso   1.00
H76    H     0.39123   0.56970   0.65982   0.00000  Uiso   1.00
H77    H     0.83622   0.37688   0.79186   0.00000  Uiso   1.00
H78    H     0.68207   0.42573   0.74429   0.00000  Uiso   1.00
H79    H     0.78906   0.30279   0.90862   0.00000  Uiso   1.00
H80    H     0.02430   0.38795   0.72131   0.00000  Uiso   1.00
H81    H     0.53199   0.50218   0.69377   0.00000  Uiso   1.00
H82    H     0.75763   0.24296   0.04028   0.00000  Uiso   1.00
H83    H     0.25367   0.42252   0.64529   0.00000  Uiso   1.00
O84    O     0.50224   0.61099   0.67007   0.00000  Uiso   1.00
O85    O     0.79828   0.27091   0.12467   0.00000  Uiso   1.00
O86    O     0.44908   0.50649   0.60645   0.00000  Uiso   1.00
N87    N     0.65834   0.60802   0.71140   0.00000  Uiso   1.00
N88    N     0.86928   0.36567   0.03536   0.00000  Uiso   1.00
N89    N     0.33305   0.53353   0.66610   0.00000  Uiso   1.00
N90    N     0.58432   0.52882   0.70358   0.00000  Uiso   1.00
N91    N     0.79526   0.28648   0.02754   0.00000  Uiso   1.00
N92    N     0.25903   0.45434   0.65828   0.00000  Uiso   1.00
C93    C     0.44554   0.68634   0.50760   0.00000  Uiso   1.00
C94    C     0.33676   0.70645   0.51507   0.00000  Uiso   1.00
C95    C     0.24300   0.67495   0.56544   0.00000  Uiso   1.00
C96    C     0.15184   0.70094   0.56346   0.00000  Uiso   1.00
C97    C     0.98251   0.72370   0.58273   0.00000  Uiso   1.00
C98    C     0.46063   0.68358   0.44860   0.00000  Uiso   1.00
C99    C     0.47104   0.63285   0.44308   0.00000  Uiso   1.00
C100   C     0.48418   0.63960   0.38513   0.00000  Uiso   1.00
C101   C     0.50725   0.62687   0.30120   0.00000  Uiso   1.00
C102   C     0.54254   0.73902   0.49534   0.00000  Uiso   1.00
C103   C     0.62183   0.73491   0.52912   0.00000  Uiso   1.00
C104   C     0.70395   0.78834   0.51052   0.00000  Uiso   1.00
C105   C     0.85419   0.86169   0.49916   0.00000  Uiso   1.00
C106   C     0.45039   0.78852   0.41450   0.00000  Uiso   1.00
C107   C     0.33940   0.76194   0.46450   0.00000  Uiso   1.00
C108   C     0.24836   0.78799   0.46244   0.00000  Uiso   1.00
C109   C     0.15448   0.75654   0.51280   0.00000  Uiso   1.00
C110   C     0.46327   0.73907   0.39803   0.00000  Uiso   1.00
C111   C     0.47640   0.74590   0.34008   0.00000  Uiso   1.00
C112   C     0.48682   0.69520   0.33447   0.00000  Uiso   1.00
C113   C     0.54517   0.79452   0.44477   0.00000  Uiso   1.00
C114   C     0.62719   0.84796   0.42612   0.00000  Uiso   1.00
C115   C     0.70659   0.84393   0.45986   0.00000  Uiso   1.00
H116   H     0.44349   0.64314   0.54697   0.00000  Uiso   1.00
H117   H     0.24099   0.63200   0.60457   0.00000  Uiso   1.00
H118   H     0.46901   0.58992   0.48222   0.00000  Uiso   1.00
H119   H     0.61977   0.69196   0.56825   0.00000  Uiso   1.00
H120   H     0.01762   0.64412   0.64611   0.00000  Uiso   1.00
H121   H     0.49845   0.55538   0.38813   0.00000  Uiso   1.00
H122   H     0.81637   0.77056   0.56954   0.00000  Uiso   1.00
H123   H     0.45244   0.83173   0.37513   0.00000  Uiso   1.00
H124   H     0.25043   0.83094   0.42330   0.00000  Uiso   1.00
H125   H     0.47845   0.78885   0.30095   0.00000  Uiso   1.00
H126   H     0.62920   0.89090   0.38698   0.00000  Uiso   1.00
H127   H     0.02528   0.80558   0.49898   0.00000  Uiso   1.00
H128   H     0.50612   0.71685   0.24101   0.00000  Uiso   1.00
H129   H     0.82402   0.93203   0.42241   0.00000  Uiso   1.00
O130   O     0.88838   0.72092   0.60732   0.00000  Uiso   1.00
O131   O     0.51924   0.60451   0.26887   0.00000  Uiso   1.00
O132   O     0.93632   0.88681   0.50687   0.00000  Uiso   1.00
N133   N     0.04716   0.68223   0.60488   0.00000  Uiso   1.00
N134   N     0.49669   0.59927   0.36369   0.00000  Uiso   1.00
N135   N     0.79393   0.80044   0.53328   0.00000  Uiso   1.00
N136   N     0.05128   0.76911   0.52571   0.00000  Uiso   1.00
N137   N     0.50081   0.68615   0.28452   0.00000  Uiso   1.00
N138   N     0.79805   0.88732   0.45411   0.00000  Uiso   1.00
C139   C     0.23245   0.19240   0.31582   0.00000  Uiso   1.00
C140   C     0.36082   0.21968   0.29621   0.00000  Uiso   1.00
C141   C     0.42334   0.23850   0.32803   0.00000  Uiso   1.00
C142   C     0.53992   0.26223   0.30247   0.00000  Uiso   1.00
C143   C     0.73133   0.30385   0.28046   0.00000  Uiso   1.00
C144   C     0.21471   0.13065   0.31842   0.00000  Uiso   1.00
C145   C     0.15436   0.07460   0.36891   0.00000  Uiso   1.00
C146   C     0.14795   0.02339   0.36204   0.00000  Uiso   1.00
C147   C     0.11245   0.92679   0.37451   0.00000  Uiso   1.00
C148   C     0.18753   0.23281   0.26295   0.00000  Uiso   1.00
C149   C     0.10431   0.26266   0.26680   0.00000  Uiso   1.00
C150   C     0.07499   0.29745   0.21324   0.00000  Uiso   1.00
C151   C     0.99729   0.35948   0.13958   0.00000  Uiso   1.00
C152   C     0.32833   0.20110   0.21385   0.00000  Uiso   1.00
C153   C     0.41289   0.22440   0.24083   0.00000  Uiso   1.00
C154   C     0.52942   0.24812   0.21521   0.00000  Uiso   1.00
C155   C     0.59210   0.26697   0.24698   0.00000  Uiso   1.00
C156   C     0.26678   0.13537   0.26304   0.00000  Uiso   1.00
C157   C     0.26044   0.08423   0.25610   0.00000  Uiso   1.00
C158   C     0.20012   0.02812   0.30656   0.00000  Uiso   1.00
C159   C     0.23961   0.23754   0.20757   0.00000  Uiso   1.00
C160   C     0.21040   0.27229   0.15399   0.00000  Uiso   1.00
C161   C     0.12716   0.30218   0.15776   0.00000  Uiso   1.00
H162   H     0.19190   0.18871   0.35894   0.00000  Uiso   1.00
H163   H     0.38300   0.23483   0.37089   0.00000  Uiso   1.00
H164   H     0.11406   0.07096   0.41176   0.00000  Uiso   1.00
H165   H     0.06403   0.25899   0.30967   0.00000  Uiso   1.00
H166   H     0.61785   0.28801   0.35972   0.00000  Uiso   1.00
H167   H     0.05074   0.94250   0.44590   0.00000  Uiso   1.00
H168   H     0.94522   0.33899   0.23062   0.00000  Uiso   1.00
H169   H     0.36887   0.20477   0.17073   0.00000  Uiso   1.00
H170   H     0.56969   0.25177   0.17235   0.00000  Uiso   1.00
H171   H     0.30075   0.08790   0.21323   0.00000  Uiso   1.00
H172   H     0.25072   0.27593   0.11114   0.00000  Uiso   1.00
H173   H     0.76937   0.30176   0.19859   0.00000  Uiso   1.00
H174   H     0.20226   0.95625   0.28476   0.00000  Uiso   1.00
H175   H     0.09675   0.35275   0.06949   0.00000  Uiso   1.00
O176   O     0.82252   0.32550   0.28363   0.00000  Uiso   1.00
O177   O     0.07849   0.87220   0.39669   0.00000  Uiso   1.00
O178   O     0.94005   0.39239   0.11425   0.00000  Uiso   1.00
N179   N     0.62594   0.28481   0.32157   0.00000  Uiso   1.00
N180   N     0.09575   0.96178   0.40215   0.00000  Uiso   1.00
N181   N     0.99708   0.33245   0.20088   0.00000  Uiso   1.00
N182   N     0.70748   0.29221   0.23486   0.00000  Uiso   1.00
N183   N     0.17729   0.96918   0.31544   0.00000  Uiso   1.00
N184   N     0.07861   0.33985   0.11417   0.00000  Uiso   1.00
C185   C     0.03993   0.49060   0.19506   0.00000  Uiso   1.00
C186   C     0.14116   0.48277   0.22276   0.00000  Uiso   1.00
C187   C     0.18506   0.43208   0.24168   0.00000  Uiso   1.00
C188   C     0.27803   0.43376   0.26581   0.00000  Uiso   1.00
C189   C     0.42806   0.41392   0.30803   0.00000  Uiso   1.00
C190   C     0.08305   0.54956   0.13347   0.00000  Uiso   1.00
C191   C     0.07806   0.55503   0.07732   0.00000  Uiso   1.00
C192   C     0.12210   0.61294   0.02628   0.00000  Uiso   1.00
C193   C     0.18182   0.69680   0.92989   0.00000  Uiso   1.00
C194   C     0.95524   0.50329   0.23524   0.00000  Uiso   1.00
C195   C     0.84278   0.46986   0.26466   0.00000  Uiso   1.00
C196   C     0.77920   0.48883   0.29930   0.00000  Uiso   1.00
C197   C     0.64048   0.50085   0.36093   0.00000  Uiso   1.00
C198   C     0.12697   0.58373   0.20425   0.00000  Uiso   1.00
C199   C     0.18844   0.53336   0.22775   0.00000  Uiso   1.00
C200   C     0.28136   0.53512   0.25186   0.00000  Uiso   1.00
C201   C     0.32539   0.48444   0.27082   0.00000  Uiso   1.00
C202   C     0.13032   0.60015   0.13846   0.00000  Uiso   1.00
C203   C     0.17437   0.65807   0.08749   0.00000  Uiso   1.00
C204   C     0.16946   0.66362   0.03129   0.00000  Uiso   1.00
C205   C     0.00252   0.55388   0.24024   0.00000  Uiso   1.00
C206   C     0.93909   0.57290   0.27483   0.00000  Uiso   1.00
C207   C     0.82656   0.53951   0.30430   0.00000  Uiso   1.00
H208   H     0.00313   0.45122   0.19116   0.00000  Uiso   1.00
H209   H     0.14846   0.39294   0.23780   0.00000  Uiso   1.00
H210   H     0.04146   0.51587   0.07347   0.00000  Uiso   1.00
H211   H     0.80623   0.43072   0.26078   0.00000  Uiso   1.00
H212   H     0.33046   0.35065   0.29170   0.00000  Uiso   1.00
H213   H     0.10482   0.60986   0.94519   0.00000  Uiso   1.00
H214   H     0.60877   0.43030   0.34018   0.00000  Uiso   1.00
H215   H     0.16378   0.62312   0.20814   0.00000  Uiso   1.00
H216   H     0.31793   0.57427   0.25571   0.00000  Uiso   1.00
H217   H     0.21094   0.69720   0.09138   0.00000  Uiso   1.00
H218   H     0.97570   0.61205   0.27869   0.00000  Uiso   1.00
H219   H     0.46801   0.49782   0.30623   0.00000  Uiso   1.00
H220   H     0.24237   0.75704   0.95972   0.00000  Uiso   1.00
H221   H     0.74633   0.57748   0.35471   0.00000  Uiso   1.00
O222   O     0.49776   0.38901   0.32993   0.00000  Uiso   1.00
O223   O     0.20172   0.72908   0.87534   0.00000  Uiso   1.00
O224   O     0.55092   0.49351   0.39355   0.00000  Uiso   1.00
N225   N     0.34166   0.39198   0.28860   0.00000  Uiso   1.00
N226   N     0.13072   0.63433   0.96464   0.00000  Uiso   1.00
N227   N     0.66695   0.46647   0.33390   0.00000  Uiso   1.00
N228   N     0.41568   0.47118   0.29642   0.00000  Uiso   1.00
N229   N     0.20474   0.71352   0.97246   0.00000  Uiso   1.00
N230   N     0.74097   0.54566   0.34172   0.00000  Uiso   1.00
C231   C     0.55446   0.31365   0.49240   0.00000  Uiso   1.00
C232   C     0.66324   0.29355   0.48493   0.00000  Uiso   1.00
C233   C     0.75700   0.32505   0.43456   0.00000  Uiso   1.00
C234   C     0.84816   0.29906   0.43654   0.00000  Uiso   1.00
C235   C     0.01749   0.27630   0.41727   0.00000  Uiso   1.00
C236   C     0.53937   0.31642   0.55140   0.00000  Uiso   1.00
C237   C     0.52896   0.36715   0.55692   0.00000  Uiso   1.00
C238   C     0.51582   0.36040   0.61487   0.00000  Uiso   1.00
C239   C     0.49275   0.37313   0.69880   0.00000  Uiso   1.00
C240   C     0.45746   0.26098   0.50466   0.00000  Uiso   1.00
C241   C     0.37817   0.26509   0.47088   0.00000  Uiso   1.00
C242   C     0.29605   0.21166   0.48948   0.00000  Uiso   1.00
C243   C     0.14581   0.13831   0.50084   0.00000  Uiso   1.00
C244   C     0.54961   0.21148   0.58550   0.00000  Uiso   1.00
C245   C     0.66060   0.23806   0.53550   0.00000  Uiso   1.00
C246   C     0.75164   0.21201   0.53756   0.00000  Uiso   1.00
C247   C     0.84552   0.24346   0.48720   0.00000  Uiso   1.00
C248   C     0.53673   0.26093   0.60197   0.00000  Uiso   1.00
C249   C     0.52360   0.25410   0.65992   0.00000  Uiso   1.00
C250   C     0.51318   0.30480   0.66553   0.00000  Uiso   1.00
C251   C     0.45483   0.20548   0.55523   0.00000  Uiso   1.00
C252   C     0.37281   0.15204   0.57389   0.00000  Uiso   1.00
C253   C     0.29341   0.15607   0.54014   0.00000  Uiso   1.00
H254   H     0.55651   0.35686   0.45303   0.00000  Uiso   1.00
H255   H     0.75901   0.36800   0.39543   0.00000  Uiso   1.00
H256   H     0.53099   0.41008   0.51778   0.00000  Uiso   1.00
H257   H     0.38023   0.30804   0.43175   0.00000  Uiso   1.00
H258   H     0.98238   0.35588   0.35389   0.00000  Uiso   1.00
H259   H     0.50155   0.44462   0.61187   0.00000  Uiso   1.00
H260   H     0.18364   0.22944   0.43046   0.00000  Uiso   1.00
H261   H     0.54756   0.16827   0.62487   0.00000  Uiso   1.00
H262   H     0.74957   0.16906   0.57670   0.00000  Uiso   1.00
H263   H     0.52156   0.21115   0.69905   0.00000  Uiso   1.00
H264   H     0.37080   0.10910   0.61302   0.00000  Uiso   1.00
H265   H     0.97472   0.19442   0.50102   0.00000  Uiso   1.00
H266   H     0.49388   0.28315   0.75899   0.00000  Uiso   1.00
H267   H     0.17598   0.06797   0.57759   0.00000  Uiso   1.00
O268   O     0.11162   0.27908   0.39268   0.00000  Uiso   1.00
O269   O     0.48076   0.39549   0.73113   0.00000  Uiso   1.00
O270   O     0.06368   0.11319   0.49313   0.00000  Uiso   1.00
N271   N     0.95284   0.31777   0.39512   0.00000  Uiso   1.00
N272   N     0.50331   0.40073   0.63631   0.00000  Uiso   1.00
N273   N     0.20607   0.19956   0.46672   0.00000  Uiso   1.00
N274   N     0.94872   0.23089   0.47429   0.00000  Uiso   1.00
N275   N     0.49919   0.31385   0.71548   0.00000  Uiso   1.00
N276   N     0.20195   0.11268   0.54589   0.00000  Uiso   1.00
