data_job_06166
_audit_creation_date              2018-12-19
_audit_creation_method            'Materials Studio'
_symmetry_space_group_name_H-M    'P1'
_symmetry_Int_Tables_number       1
_symmetry_cell_setting            triclinic
loop_
_symmetry_equiv_pos_as_xyz
  x,y,z
_cell_length_a                    16.1912
_cell_length_b                    15.8287
_cell_length_c                    15.0880
_cell_angle_alpha                 97.4356
_cell_angle_beta                  97.6396
_cell_angle_gamma                 96.7235
loop_
_atom_site_label
_atom_site_type_symbol
_atom_site_fract_x
_atom_site_fract_y
_atom_site_fract_z
_atom_site_U_iso_or_equiv
_atom_site_adp_type
_atom_site_occupancy
C1     C     0.22168   0.81094   0.42508   0.00000  Uiso   1.00
C2     C     0.29002   0.83906   0.50688   0.00000  Uiso   1.00
C3     C     0.27766   0.87487   0.59223   0.00000  Uiso   1.00
C4     C     0.34829   0.89629   0.65799   0.00000  Uiso   1.00
C5     C     0.44225   0.94211   0.78789   0.00000  Uiso   1.00
C6     C     0.24893   0.85968   0.35070   0.00000  Uiso   1.00
C7     C     0.20201   0.91281   0.30472   0.00000  Uiso   1.00
C8     C     0.23804   0.95157   0.23899   0.00000  Uiso   1.00
C9     C     0.26816   0.02935   0.12637   0.00000  Uiso   1.00
C10    C     0.22711   0.71650   0.39367   0.00000  Uiso   1.00
C11    C     0.16183   0.64925   0.38381   0.00000  Uiso   1.00
C12    C     0.17949   0.56746   0.35424   0.00000  Uiso   1.00
C13    C     0.17573   0.42294   0.30834   0.00000  Uiso   1.00
C14    C     0.36910   0.78528   0.39008   0.00000  Uiso   1.00
C15    C     0.37010   0.82513   0.48787   0.00000  Uiso   1.00
C16    C     0.44077   0.84649   0.55352   0.00000  Uiso   1.00
C17    C     0.42851   0.88232   0.63895   0.00000  Uiso   1.00
C18    C     0.32900   0.84575   0.33169   0.00000  Uiso   1.00
C19    C     0.36511   0.88443   0.26601   0.00000  Uiso   1.00
C20    C     0.31826   0.93761   0.21995   0.00000  Uiso   1.00
C21    C     0.30718   0.70257   0.37467   0.00000  Uiso   1.00
C22    C     0.32494   0.62087   0.34510   0.00000  Uiso   1.00
C23    C     0.25971   0.55350   0.33520   0.00000  Uiso   1.00
H24    H     0.15934   0.82179   0.43987   0.00000  Uiso   1.00
H25    H     0.21569   0.88565   0.60691   0.00000  Uiso   1.00
H26    H     0.14004   0.92358   0.31944   0.00000  Uiso   1.00
H27    H     0.09988   0.66006   0.39852   0.00000  Uiso   1.00
H28    H     0.31348   0.95034   0.78372   0.00000  Uiso   1.00
H29    H     0.15396   0.03028   0.17755   0.00000  Uiso   1.00
H30    H     0.06927   0.47460   0.34430   0.00000  Uiso   1.00
H31    H     0.43144   0.77443   0.37528   0.00000  Uiso   1.00
H32    H     0.50272   0.83570   0.53879   0.00000  Uiso   1.00
H33    H     0.42707   0.87362   0.25131   0.00000  Uiso   1.00
H34    H     0.38691   0.61011   0.33040   0.00000  Uiso   1.00
H35    H     0.54645   0.90980   0.72843   0.00000  Uiso   1.00
H36    H     0.38692   0.98974   0.12225   0.00000  Uiso   1.00
H37    H     0.30224   0.43406   0.28901   0.00000  Uiso   1.00
O38    O     0.47195   0.97126   0.86479   0.00000  Uiso   1.00
O39    O     0.26266   0.07612   0.06950   0.00000  Uiso   1.00
O40    O     0.15155   0.34708   0.28829   0.00000  Uiso   1.00
N41    N     0.35852   0.93238   0.74827   0.00000  Uiso   1.00
N42    N     0.20939   0.00713   0.18155   0.00000  Uiso   1.00
N43    N     0.13020   0.48761   0.33743   0.00000  Uiso   1.00
N44    N     0.48388   0.91056   0.71852   0.00000  Uiso   1.00
N45    N     0.33475   0.98531   0.15179   0.00000  Uiso   1.00
N46    N     0.25556   0.46580   0.30767   0.00000  Uiso   1.00
C47    C     0.42249   0.21942   0.81028   0.00000  Uiso   1.00
C48    C     0.49801   0.28907   0.84070   0.00000  Uiso   1.00
C49    C     0.57762   0.27623   0.87865   0.00000  Uiso   1.00
C50    C     0.63817   0.34826   0.90196   0.00000  Uiso   1.00
C51    C     0.75823   0.44396   0.95138   0.00000  Uiso   1.00
C52    C     0.35281   0.24782   0.86122   0.00000  Uiso   1.00
C53    C     0.31033   0.20028   0.91641   0.00000  Uiso   1.00
C54    C     0.24865   0.23759   0.95697   0.00000  Uiso   1.00
C55    C     0.14324   0.26922   0.03820   0.00000  Uiso   1.00
C56    C     0.39334   0.22468   0.71105   0.00000  Uiso   1.00
C57    C     0.38491   0.15768   0.63998   0.00000  Uiso   1.00
C58    C     0.35732   0.17550   0.55410   0.00000  Uiso   1.00
C59    C     0.31484   0.17120   0.40217   0.00000  Uiso   1.00
C60    C     0.38847   0.37019   0.78417   0.00000  Uiso   1.00
C61    C     0.47953   0.37096   0.82651   0.00000  Uiso   1.00
C62    C     0.53997   0.44303   0.84976   0.00000  Uiso   1.00
C63    C     0.61966   0.43030   0.88774   0.00000  Uiso   1.00
C64    C     0.33433   0.32971   0.84703   0.00000  Uiso   1.00
C65    C     0.27269   0.36709   0.88751   0.00000  Uiso   1.00
C66    C     0.23013   0.31962   0.94276   0.00000  Uiso   1.00
C67    C     0.37486   0.30657   0.69686   0.00000  Uiso   1.00
C68    C     0.34727   0.32449   0.61108   0.00000  Uiso   1.00
C69    C     0.33881   0.25754   0.53989   0.00000  Uiso   1.00
H70    H     0.43688   0.15566   0.82133   0.00000  Uiso   1.00
H71    H     0.59189   0.21284   0.88963   0.00000  Uiso   1.00
H72    H     0.32464   0.13691   0.92737   0.00000  Uiso   1.00
H73    H     0.39922   0.09432   0.65098   0.00000  Uiso   1.00
H74    H     0.75560   0.31236   0.95913   0.00000  Uiso   1.00
H75    H     0.19207   0.15223   0.03868   0.00000  Uiso   1.00
H76    H     0.34931   0.06242   0.45586   0.00000  Uiso   1.00
H77    H     0.37408   0.43395   0.77312   0.00000  Uiso   1.00
H78    H     0.52565   0.50640   0.83877   0.00000  Uiso   1.00
H79    H     0.25840   0.43046   0.87652   0.00000  Uiso   1.00
H80    H     0.33298   0.38787   0.60013   0.00000  Uiso   1.00
H81    H     0.70184   0.55062   0.91785   0.00000  Uiso   1.00
H82    H     0.13830   0.39049   0.99741   0.00000  Uiso   1.00
H83    H     0.29555   0.30068   0.41458   0.00000  Uiso   1.00
O84    O     0.82955   0.47413   0.98257   0.00000  Uiso   1.00
O85    O     0.09022   0.26405   0.08693   0.00000  Uiso   1.00
O86    O     0.29652   0.14622   0.32229   0.00000  Uiso   1.00
N87    N     0.72215   0.35849   0.94038   0.00000  Uiso   1.00
N88    N     0.19529   0.20878   0.01478   0.00000  Uiso   1.00
N89    N     0.34228   0.12481   0.46989   0.00000  Uiso   1.00
N90    N     0.69322   0.48669   0.91817   0.00000  Uiso   1.00
N91    N     0.16636   0.33699   0.99257   0.00000  Uiso   1.00
N92    N     0.31335   0.25302   0.44768   0.00000  Uiso   1.00
C93    C     0.81045   0.42320   0.21519   0.00000  Uiso   1.00
C94    C     0.83793   0.50060   0.28896   0.00000  Uiso   1.00
C95    C     0.87254   0.58177   0.27622   0.00000  Uiso   1.00
C96    C     0.89353   0.64391   0.35235   0.00000  Uiso   1.00
C97    C     0.93824   0.76688   0.45386   0.00000  Uiso   1.00
C98    C     0.85856   0.35186   0.24480   0.00000  Uiso   1.00
C99    C     0.91050   0.30798   0.19492   0.00000  Uiso   1.00
C100   C     0.94885   0.24490   0.23387   0.00000  Uiso   1.00
C101   C     0.02554   0.13691   0.26680   0.00000  Uiso   1.00
C102   C     0.71824   0.39384   0.21999   0.00000  Uiso   1.00
C103   C     0.65220   0.38523   0.14923   0.00000  Uiso   1.00
C104   C     0.57241   0.35748   0.16728   0.00000  Uiso   1.00
C105   C     0.43123   0.31467   0.16167   0.00000  Uiso   1.00
C106   C     0.78617   0.38920   0.37305   0.00000  Uiso   1.00
C107   C     0.82474   0.48213   0.37470   0.00000  Uiso   1.00
C108   C     0.84568   0.54416   0.45087   0.00000  Uiso   1.00
C109   C     0.88032   0.62541   0.43824   0.00000  Uiso   1.00
C110   C     0.84537   0.33339   0.33054   0.00000  Uiso   1.00
C111   C     0.88364   0.27036   0.36957   0.00000  Uiso   1.00
C112   C     0.93564   0.22639   0.31977   0.00000  Uiso   1.00
C113   C     0.70505   0.37538   0.30573   0.00000  Uiso   1.00
C114   C     0.62535   0.34762   0.32388   0.00000  Uiso   1.00
C115   C     0.55920   0.33897   0.25318   0.00000  Uiso   1.00
H116   H     0.82072   0.43757   0.14844   0.00000  Uiso   1.00
H117   H     0.88274   0.59603   0.20986   0.00000  Uiso   1.00
H118   H     0.92069   0.32228   0.12857   0.00000  Uiso   1.00
H119   H     0.66243   0.39953   0.08289   0.00000  Uiso   1.00
H120   H     0.94572   0.76357   0.31577   0.00000  Uiso   1.00
H121   H     0.02571   0.18631   0.14436   0.00000  Uiso   1.00
H122   H     0.48112   0.34920   0.04803   0.00000  Uiso   1.00
H123   H     0.77591   0.37482   0.43980   0.00000  Uiso   1.00
H124   H     0.83547   0.52985   0.51721   0.00000  Uiso   1.00
H125   H     0.87342   0.25609   0.43592   0.00000  Uiso   1.00
H126   H     0.61517   0.33334   0.39024   0.00000  Uiso   1.00
H127   H     0.90736   0.70984   0.56523   0.00000  Uiso   1.00
H128   H     0.98735   0.13258   0.39381   0.00000  Uiso   1.00
H129   H     0.44276   0.29548   0.29749   0.00000  Uiso   1.00
O130   O     0.96656   0.83981   0.48617   0.00000  Uiso   1.00
O131   O     0.07149   0.08246   0.26127   0.00000  Uiso   1.00
O132   O     0.35700   0.29618   0.13490   0.00000  Uiso   1.00
N133   N     0.92850   0.72965   0.36385   0.00000  Uiso   1.00
N134   N     0.00330   0.18996   0.20360   0.00000  Uiso   1.00
N135   N     0.49416   0.34223   0.11354   0.00000  Uiso   1.00
N136   N     0.90786   0.70075   0.49808   0.00000  Uiso   1.00
N137   N     0.98266   0.16105   0.33783   0.00000  Uiso   1.00
N138   N     0.47352   0.31332   0.24777   0.00000  Uiso   1.00
C139   C     0.77832   0.18906   0.57492   0.00000  Uiso   1.00
C140   C     0.70998   0.16094   0.49312   0.00000  Uiso   1.00
C141   C     0.72234   0.12513   0.40777   0.00000  Uiso   1.00
C142   C     0.65171   0.10371   0.34201   0.00000  Uiso   1.00
C143   C     0.55776   0.05789   0.21211   0.00000  Uiso   1.00
C144   C     0.75107   0.14032   0.64930   0.00000  Uiso   1.00
C145   C     0.79799   0.08719   0.69528   0.00000  Uiso   1.00
C146   C     0.76196   0.04843   0.76101   0.00000  Uiso   1.00
C147   C     0.73184   0.97065   0.87363   0.00000  Uiso   1.00
C148   C     0.77289   0.28350   0.60633   0.00000  Uiso   1.00
C149   C     0.83817   0.35075   0.61619   0.00000  Uiso   1.00
C150   C     0.82051   0.43254   0.64576   0.00000  Uiso   1.00
C151   C     0.82427   0.57706   0.69166   0.00000  Uiso   1.00
C152   C     0.63090   0.21472   0.60992   0.00000  Uiso   1.00
C153   C     0.62990   0.17487   0.51213   0.00000  Uiso   1.00
C154   C     0.55923   0.15351   0.44648   0.00000  Uiso   1.00
C155   C     0.57149   0.11768   0.36105   0.00000  Uiso   1.00
C156   C     0.67100   0.15425   0.66831   0.00000  Uiso   1.00
C157   C     0.63489   0.11557   0.73399   0.00000  Uiso   1.00
C158   C     0.68174   0.06239   0.78005   0.00000  Uiso   1.00
C159   C     0.69282   0.29744   0.62533   0.00000  Uiso   1.00
C160   C     0.67506   0.37913   0.65490   0.00000  Uiso   1.00
C161   C     0.74029   0.44650   0.66480   0.00000  Uiso   1.00
H162   H     0.84066   0.17821   0.56013   0.00000  Uiso   1.00
H163   H     0.78431   0.11435   0.39308   0.00000  Uiso   1.00
H164   H     0.85996   0.07642   0.68056   0.00000  Uiso   1.00
H165   H     0.90012   0.33994   0.60148   0.00000  Uiso   1.00
H166   H     0.68652   0.04966   0.21628   0.00000  Uiso   1.00
H167   H     0.84604   0.96972   0.82245   0.00000  Uiso   1.00
H168   H     0.93073   0.52540   0.65570   0.00000  Uiso   1.00
H169   H     0.56856   0.22557   0.62472   0.00000  Uiso   1.00
H170   H     0.49728   0.16430   0.46121   0.00000  Uiso   1.00
H171   H     0.57293   0.12638   0.74869   0.00000  Uiso   1.00
H172   H     0.61309   0.38989   0.66960   0.00000  Uiso   1.00
H173   H     0.45355   0.09020   0.27157   0.00000  Uiso   1.00
H174   H     0.61308   0.01026   0.87775   0.00000  Uiso   1.00
H175   H     0.69776   0.56594   0.71099   0.00000  Uiso   1.00
O176   O     0.52805   0.02874   0.13521   0.00000  Uiso   1.00
O177   O     0.73734   0.92388   0.93050   0.00000  Uiso   1.00
O178   O     0.84845   0.65292   0.71171   0.00000  Uiso   1.00
N179   N     0.64148   0.06762   0.25173   0.00000  Uiso   1.00
N180   N     0.79061   0.99287   0.81845   0.00000  Uiso   1.00
N181   N     0.86980   0.51239   0.66257   0.00000  Uiso   1.00
N182   N     0.51612   0.08944   0.28148   0.00000  Uiso   1.00
N183   N     0.66526   0.01469   0.84821   0.00000  Uiso   1.00
N184   N     0.74444   0.53420   0.69233   0.00000  Uiso   1.00
C185   C     0.57751   0.78058   0.18972   0.00000  Uiso   1.00
C186   C     0.50199   0.71093   0.15930   0.00000  Uiso   1.00
C187   C     0.42238   0.72377   0.12135   0.00000  Uiso   1.00
C188   C     0.36183   0.65174   0.09804   0.00000  Uiso   1.00
C189   C     0.24177   0.55604   0.04862   0.00000  Uiso   1.00
C190   C     0.64719   0.75218   0.13878   0.00000  Uiso   1.00
C191   C     0.68967   0.79972   0.08359   0.00000  Uiso   1.00
C192   C     0.75135   0.76241   0.04303   0.00000  Uiso   1.00
C193   C     0.85676   0.73078   0.96180   0.00000  Uiso   1.00
C194   C     0.60666   0.77532   0.28895   0.00000  Uiso   1.00
C195   C     0.61509   0.84232   0.36002   0.00000  Uiso   1.00
C196   C     0.64268   0.82450   0.44590   0.00000  Uiso   1.00
C197   C     0.68516   0.82880   0.59783   0.00000  Uiso   1.00
C198   C     0.61153   0.62981   0.21583   0.00000  Uiso   1.00
C199   C     0.52047   0.62904   0.17349   0.00000  Uiso   1.00
C200   C     0.46003   0.55697   0.15024   0.00000  Uiso   1.00
C201   C     0.38034   0.56970   0.11226   0.00000  Uiso   1.00
C202   C     0.66567   0.67029   0.15297   0.00000  Uiso   1.00
C203   C     0.72731   0.63291   0.11249   0.00000  Uiso   1.00
C204   C     0.76987   0.68038   0.05724   0.00000  Uiso   1.00
C205   C     0.62514   0.69343   0.30314   0.00000  Uiso   1.00
C206   C     0.65273   0.67551   0.38892   0.00000  Uiso   1.00
C207   C     0.66119   0.74246   0.46011   0.00000  Uiso   1.00
H208   H     0.56312   0.84434   0.17867   0.00000  Uiso   1.00
H209   H     0.40811   0.78716   0.11037   0.00000  Uiso   1.00
H210   H     0.67536   0.86309   0.07263   0.00000  Uiso   1.00
H211   H     0.60078   0.90568   0.34902   0.00000  Uiso   1.00
H212   H     0.24440   0.68764   0.04087   0.00000  Uiso   1.00
H213   H     0.80793   0.84777   0.96132   0.00000  Uiso   1.00
H214   H     0.65069   0.93758   0.54414   0.00000  Uiso   1.00
H215   H     0.62592   0.56605   0.22688   0.00000  Uiso   1.00
H216   H     0.47435   0.49360   0.16123   0.00000  Uiso   1.00
H217   H     0.74160   0.56954   0.12348   0.00000  Uiso   1.00
H218   H     0.66702   0.61213   0.39987   0.00000  Uiso   1.00
H219   H     0.29816   0.44938   0.08215   0.00000  Uiso   1.00
H220   H     0.86170   0.60951   0.00259   0.00000  Uiso   1.00
H221   H     0.70445   0.69932   0.58542   0.00000  Uiso   1.00
O222   O     0.17045   0.52587   0.01743   0.00000  Uiso   1.00
O223   O     0.90978   0.73596   0.91307   0.00000  Uiso   1.00
O224   O     0.70348   0.85378   0.67771   0.00000  Uiso   1.00
N225   N     0.27785   0.64151   0.05962   0.00000  Uiso   1.00
N226   N     0.80471   0.79122   0.98522   0.00000  Uiso   1.00
N227   N     0.65772   0.87519   0.53011   0.00000  Uiso   1.00
N228   N     0.30678   0.51331   0.08183   0.00000  Uiso   1.00
N229   N     0.83364   0.66301   0.00743   0.00000  Uiso   1.00
N230   N     0.68665   0.74698   0.55232   0.00000  Uiso   1.00
C231   C     0.18955   0.57680   0.78481   0.00000  Uiso   1.00
C232   C     0.16207   0.49940   0.71104   0.00000  Uiso   1.00
C233   C     0.12746   0.41823   0.72378   0.00000  Uiso   1.00
C234   C     0.10647   0.35609   0.64765   0.00000  Uiso   1.00
C235   C     0.06176   0.23312   0.54614   0.00000  Uiso   1.00
C236   C     0.14144   0.64814   0.75520   0.00000  Uiso   1.00
C237   C     0.08950   0.69202   0.80508   0.00000  Uiso   1.00
C238   C     0.05115   0.75510   0.76613   0.00000  Uiso   1.00
C239   C     0.97446   0.86309   0.73320   0.00000  Uiso   1.00
C240   C     0.28176   0.60616   0.78001   0.00000  Uiso   1.00
C241   C     0.34780   0.61477   0.85077   0.00000  Uiso   1.00
C242   C     0.42759   0.64252   0.83272   0.00000  Uiso   1.00
C243   C     0.56877   0.68533   0.83833   0.00000  Uiso   1.00
C244   C     0.21383   0.61080   0.62695   0.00000  Uiso   1.00
C245   C     0.17526   0.51787   0.62530   0.00000  Uiso   1.00
C246   C     0.15432   0.45584   0.54913   0.00000  Uiso   1.00
C247   C     0.11968   0.37459   0.56176   0.00000  Uiso   1.00
C248   C     0.15463   0.66661   0.66946   0.00000  Uiso   1.00
C249   C     0.11636   0.72964   0.63043   0.00000  Uiso   1.00
C250   C     0.06436   0.77361   0.68023   0.00000  Uiso   1.00
C251   C     0.29495   0.62462   0.69427   0.00000  Uiso   1.00
C252   C     0.37465   0.65238   0.67612   0.00000  Uiso   1.00
C253   C     0.44080   0.66103   0.74682   0.00000  Uiso   1.00
H254   H     0.17928   0.56243   0.85156   0.00000  Uiso   1.00
H255   H     0.11726   0.40397   0.79014   0.00000  Uiso   1.00
H256   H     0.07931   0.67772   0.87143   0.00000  Uiso   1.00
H257   H     0.33757   0.60047   0.91711   0.00000  Uiso   1.00
H258   H     0.05428   0.23643   0.68423   0.00000  Uiso   1.00
H259   H     0.97429   0.81369   0.85564   0.00000  Uiso   1.00
H260   H     0.51888   0.65080   0.95197   0.00000  Uiso   1.00
H261   H     0.22409   0.62518   0.56020   0.00000  Uiso   1.00
H262   H     0.16453   0.47015   0.48279   0.00000  Uiso   1.00
H263   H     0.12658   0.74391   0.56408   0.00000  Uiso   1.00
H264   H     0.38483   0.66666   0.60976   0.00000  Uiso   1.00
H265   H     0.09264   0.29016   0.43477   0.00000  Uiso   1.00
H266   H     0.01265   0.86742   0.60619   0.00000  Uiso   1.00
H267   H     0.55724   0.70452   0.70251   0.00000  Uiso   1.00
O268   O     0.03344   0.16019   0.51383   0.00000  Uiso   1.00
O269   O     0.92851   0.91754   0.73873   0.00000  Uiso   1.00
O270   O     0.64300   0.70382   0.86510   0.00000  Uiso   1.00
N271   N     0.07150   0.27035   0.63615   0.00000  Uiso   1.00
N272   N     0.99670   0.81004   0.79640   0.00000  Uiso   1.00
N273   N     0.50584   0.65777   0.88646   0.00000  Uiso   1.00
N274   N     0.09214   0.29925   0.50192   0.00000  Uiso   1.00
N275   N     0.01734   0.83895   0.66217   0.00000  Uiso   1.00
N276   N     0.52649   0.68668   0.75223   0.00000  Uiso   1.00
