data_job_01722
_audit_creation_date              2018-12-19
_audit_creation_method            'Materials Studio'
_symmetry_space_group_name_H-M    'P1'
_symmetry_Int_Tables_number       1
_symmetry_cell_setting            triclinic
loop_
_symmetry_equiv_pos_as_xyz
  x,y,z
_cell_length_a                    12.7080
_cell_length_b                    12.7080
_cell_length_c                    16.3989
_cell_angle_alpha                 90.0000
_cell_angle_beta                  90.0000
_cell_angle_gamma                 90.0000
loop_
_atom_site_label
_atom_site_type_symbol
_atom_site_fract_x
_atom_site_fract_y
_atom_site_fract_z
_atom_site_U_iso_or_equiv
_atom_site_adp_type
_atom_site_occupancy
C1     C     0.74211   0.75747   0.39660   0.00000  Uiso   1.00
C2     C     0.63056   0.72424   0.37399   0.00000  Uiso   1.00
C3     C     0.58682   0.62567   0.38732   0.00000  Uiso   1.00
C4     C     0.48353   0.61092   0.36220   0.00000  Uiso   1.00
C5     C     0.31907   0.54697   0.33270   0.00000  Uiso   1.00
C6     C     0.79275   0.79637   0.31787   0.00000  Uiso   1.00
C7     C     0.88539   0.75845   0.28402   0.00000  Uiso   1.00
C8     C     0.91864   0.80444   0.21167   0.00000  Uiso   1.00
C9     C     0.00602   0.85253   0.09508   0.00000  Uiso   1.00
C10    C     0.73061   0.85399   0.45113   0.00000  Uiso   1.00
C11    C     0.77103   0.86453   0.52932   0.00000  Uiso   1.00
C12    C     0.75199   0.95905   0.56916   0.00000  Uiso   1.00
C13    C     0.74290   0.09660   0.65946   0.00000  Uiso   1.00
C14    C     0.63645   0.90657   0.32829   0.00000  Uiso   1.00
C15    C     0.57317   0.80522   0.33688   0.00000  Uiso   1.00
C16    C     0.46992   0.79063   0.31175   0.00000  Uiso   1.00
C17    C     0.42604   0.69205   0.32504   0.00000  Uiso   1.00
C18    C     0.73536   0.87735   0.28077   0.00000  Uiso   1.00
C19    C     0.76849   0.92341   0.20845   0.00000  Uiso   1.00
C20    C     0.86115   0.88557   0.17451   0.00000  Uiso   1.00
C21    C     0.67322   0.93498   0.41403   0.00000  Uiso   1.00
C22    C     0.65413   0.02949   0.45375   0.00000  Uiso   1.00
C23    C     0.69450   0.04018   0.53199   0.00000  Uiso   1.00
H24    H     0.78679   0.69443   0.42548   0.00000  Uiso   1.00
H25    H     0.63126   0.56301   0.41602   0.00000  Uiso   1.00
H26    H     0.92979   0.69579   0.31275   0.00000  Uiso   1.00
H27    H     0.81544   0.80185   0.55801   0.00000  Uiso   1.00
H28    H     0.43353   0.45301   0.38915   0.00000  Uiso   1.00
H29    H     0.06301   0.73300   0.17141   0.00000  Uiso   1.00
H30    H     0.82189   0.95666   0.68859   0.00000  Uiso   1.00
H31    H     0.59177   0.96963   0.29941   0.00000  Uiso   1.00
H32    H     0.42553   0.85331   0.28304   0.00000  Uiso   1.00
H33    H     0.72406   0.98609   0.17976   0.00000  Uiso   1.00
H34    H     0.60971   0.09215   0.42502   0.00000  Uiso   1.00
H35    H     0.26656   0.68863   0.28121   0.00000  Uiso   1.00
H36    H     0.89604   0.96862   0.06347   0.00000  Uiso   1.00
H37    H     0.65491   0.19227   0.58065   0.00000  Uiso   1.00
O38    O     0.24422   0.48933   0.32666   0.00000  Uiso   1.00
O39    O     0.07007   0.85668   0.04101   0.00000  Uiso   1.00
O40    O     0.75373   0.15010   0.71953   0.00000  Uiso   1.00
N41    N     0.41704   0.52443   0.36601   0.00000  Uiso   1.00
N42    N     0.00555   0.78620   0.16243   0.00000  Uiso   1.00
N43    N     0.78015   0.99530   0.64594   0.00000  Uiso   1.00
N44    N     0.32719   0.65122   0.30793   0.00000  Uiso   1.00
N45    N     0.91570   0.91298   0.10435   0.00000  Uiso   1.00
N46    N     0.69030   0.12209   0.58785   0.00000  Uiso   1.00
C47    C     0.25789   0.24253   0.89660   0.00000  Uiso   1.00
C48    C     0.36944   0.27576   0.87399   0.00000  Uiso   1.00
C49    C     0.41318   0.37433   0.88732   0.00000  Uiso   1.00
C50    C     0.51647   0.38908   0.86220   0.00000  Uiso   1.00
C51    C     0.68093   0.45303   0.83270   0.00000  Uiso   1.00
C52    C     0.20725   0.20363   0.81787   0.00000  Uiso   1.00
C53    C     0.11461   0.24155   0.78402   0.00000  Uiso   1.00
C54    C     0.08136   0.19556   0.71167   0.00000  Uiso   1.00
C55    C     0.99398   0.14747   0.59508   0.00000  Uiso   1.00
C56    C     0.26939   0.14601   0.95113   0.00000  Uiso   1.00
C57    C     0.22897   0.13547   0.02932   0.00000  Uiso   1.00
C58    C     0.24801   0.04095   0.06916   0.00000  Uiso   1.00
C59    C     0.25710   0.90340   0.15946   0.00000  Uiso   1.00
C60    C     0.36355   0.09343   0.82829   0.00000  Uiso   1.00
C61    C     0.42683   0.19478   0.83688   0.00000  Uiso   1.00
C62    C     0.53008   0.20937   0.81175   0.00000  Uiso   1.00
C63    C     0.57396   0.30795   0.82504   0.00000  Uiso   1.00
C64    C     0.26464   0.12265   0.78077   0.00000  Uiso   1.00
C65    C     0.23151   0.07659   0.70845   0.00000  Uiso   1.00
C66    C     0.13885   0.11443   0.67451   0.00000  Uiso   1.00
C67    C     0.32678   0.06502   0.91403   0.00000  Uiso   1.00
C68    C     0.34587   0.97051   0.95375   0.00000  Uiso   1.00
C69    C     0.30550   0.95982   0.03199   0.00000  Uiso   1.00
H70    H     0.21321   0.30557   0.92548   0.00000  Uiso   1.00
H71    H     0.36874   0.43699   0.91602   0.00000  Uiso   1.00
H72    H     0.07021   0.30421   0.81275   0.00000  Uiso   1.00
H73    H     0.18456   0.19815   0.05801   0.00000  Uiso   1.00
H74    H     0.56647   0.54699   0.88915   0.00000  Uiso   1.00
H75    H     0.93699   0.26700   0.67141   0.00000  Uiso   1.00
H76    H     0.17811   0.04334   0.18859   0.00000  Uiso   1.00
H77    H     0.40823   0.03037   0.79941   0.00000  Uiso   1.00
H78    H     0.57447   0.14669   0.78304   0.00000  Uiso   1.00
H79    H     0.27594   0.01391   0.67976   0.00000  Uiso   1.00
H80    H     0.39029   0.90785   0.92502   0.00000  Uiso   1.00
H81    H     0.73344   0.31137   0.78121   0.00000  Uiso   1.00
H82    H     0.10396   0.03138   0.56347   0.00000  Uiso   1.00
H83    H     0.34509   0.80773   0.08065   0.00000  Uiso   1.00
O84    O     0.75578   0.51067   0.82666   0.00000  Uiso   1.00
O85    O     0.92993   0.14332   0.54101   0.00000  Uiso   1.00
O86    O     0.24627   0.84990   0.21953   0.00000  Uiso   1.00
N87    N     0.58296   0.47557   0.86601   0.00000  Uiso   1.00
N88    N     0.99445   0.21380   0.66243   0.00000  Uiso   1.00
N89    N     0.21985   0.00470   0.14594   0.00000  Uiso   1.00
N90    N     0.67281   0.34878   0.80793   0.00000  Uiso   1.00
N91    N     0.08430   0.08702   0.60435   0.00000  Uiso   1.00
N92    N     0.30970   0.87791   0.08785   0.00000  Uiso   1.00
C93    C     0.24253   0.74211   0.64660   0.00000  Uiso   1.00
C94    C     0.27576   0.63056   0.62399   0.00000  Uiso   1.00
C95    C     0.37433   0.58682   0.63732   0.00000  Uiso   1.00
C96    C     0.38908   0.48353   0.61220   0.00000  Uiso   1.00
C97    C     0.45303   0.31907   0.58270   0.00000  Uiso   1.00
C98    C     0.20363   0.79275   0.56787   0.00000  Uiso   1.00
C99    C     0.24155   0.88539   0.53402   0.00000  Uiso   1.00
C100   C     0.19556   0.91864   0.46167   0.00000  Uiso   1.00
C101   C     0.14747   0.00602   0.34508   0.00000  Uiso   1.00
C102   C     0.14601   0.73061   0.70113   0.00000  Uiso   1.00
C103   C     0.13547   0.77103   0.77932   0.00000  Uiso   1.00
C104   C     0.04095   0.75199   0.81916   0.00000  Uiso   1.00
C105   C     0.90340   0.74290   0.90946   0.00000  Uiso   1.00
C106   C     0.09343   0.63645   0.57829   0.00000  Uiso   1.00
C107   C     0.19478   0.57317   0.58688   0.00000  Uiso   1.00
C108   C     0.20937   0.46992   0.56175   0.00000  Uiso   1.00
C109   C     0.30795   0.42604   0.57504   0.00000  Uiso   1.00
C110   C     0.12265   0.73536   0.53077   0.00000  Uiso   1.00
C111   C     0.07659   0.76849   0.45845   0.00000  Uiso   1.00
C112   C     0.11443   0.86115   0.42451   0.00000  Uiso   1.00
C113   C     0.06502   0.67322   0.66403   0.00000  Uiso   1.00
C114   C     0.97051   0.65413   0.70375   0.00000  Uiso   1.00
C115   C     0.95982   0.69450   0.78199   0.00000  Uiso   1.00
H116   H     0.30557   0.78679   0.67548   0.00000  Uiso   1.00
H117   H     0.43699   0.63126   0.66602   0.00000  Uiso   1.00
H118   H     0.30421   0.92979   0.56275   0.00000  Uiso   1.00
H119   H     0.19815   0.81544   0.80801   0.00000  Uiso   1.00
H120   H     0.54699   0.43353   0.63915   0.00000  Uiso   1.00
H121   H     0.26700   0.06301   0.42141   0.00000  Uiso   1.00
H122   H     0.04334   0.82189   0.93859   0.00000  Uiso   1.00
H123   H     0.03037   0.59177   0.54941   0.00000  Uiso   1.00
H124   H     0.14669   0.42553   0.53304   0.00000  Uiso   1.00
H125   H     0.01391   0.72406   0.42976   0.00000  Uiso   1.00
H126   H     0.90785   0.60971   0.67502   0.00000  Uiso   1.00
H127   H     0.31137   0.26656   0.53121   0.00000  Uiso   1.00
H128   H     0.03138   0.89604   0.31347   0.00000  Uiso   1.00
H129   H     0.80773   0.65491   0.83065   0.00000  Uiso   1.00
O130   O     0.51067   0.24422   0.57666   0.00000  Uiso   1.00
O131   O     0.14332   0.07007   0.29101   0.00000  Uiso   1.00
O132   O     0.84990   0.75373   0.96953   0.00000  Uiso   1.00
N133   N     0.47557   0.41704   0.61601   0.00000  Uiso   1.00
N134   N     0.21380   0.00555   0.41243   0.00000  Uiso   1.00
N135   N     0.00470   0.78015   0.89594   0.00000  Uiso   1.00
N136   N     0.34878   0.32719   0.55793   0.00000  Uiso   1.00
N137   N     0.08702   0.91570   0.35435   0.00000  Uiso   1.00
N138   N     0.87791   0.69030   0.83785   0.00000  Uiso   1.00
C139   C     0.75747   0.25789   0.14660   0.00000  Uiso   1.00
C140   C     0.72424   0.36944   0.12399   0.00000  Uiso   1.00
C141   C     0.62567   0.41318   0.13732   0.00000  Uiso   1.00
C142   C     0.61092   0.51647   0.11220   0.00000  Uiso   1.00
C143   C     0.54697   0.68093   0.08270   0.00000  Uiso   1.00
C144   C     0.79637   0.20725   0.06787   0.00000  Uiso   1.00
C145   C     0.75845   0.11461   0.03402   0.00000  Uiso   1.00
C146   C     0.80444   0.08136   0.96167   0.00000  Uiso   1.00
C147   C     0.85253   0.99398   0.84508   0.00000  Uiso   1.00
C148   C     0.85399   0.26939   0.20113   0.00000  Uiso   1.00
C149   C     0.86453   0.22897   0.27932   0.00000  Uiso   1.00
C150   C     0.95905   0.24801   0.31916   0.00000  Uiso   1.00
C151   C     0.09660   0.25710   0.40946   0.00000  Uiso   1.00
C152   C     0.90657   0.36355   0.07829   0.00000  Uiso   1.00
C153   C     0.80522   0.42683   0.08688   0.00000  Uiso   1.00
C154   C     0.79063   0.53008   0.06175   0.00000  Uiso   1.00
C155   C     0.69205   0.57396   0.07504   0.00000  Uiso   1.00
C156   C     0.87735   0.26464   0.03077   0.00000  Uiso   1.00
C157   C     0.92341   0.23151   0.95845   0.00000  Uiso   1.00
C158   C     0.88557   0.13885   0.92451   0.00000  Uiso   1.00
C159   C     0.93498   0.32678   0.16403   0.00000  Uiso   1.00
C160   C     0.02949   0.34587   0.20375   0.00000  Uiso   1.00
C161   C     0.04018   0.30550   0.28199   0.00000  Uiso   1.00
H162   H     0.69443   0.21321   0.17548   0.00000  Uiso   1.00
H163   H     0.56301   0.36874   0.16602   0.00000  Uiso   1.00
H164   H     0.69579   0.07021   0.06275   0.00000  Uiso   1.00
H165   H     0.80185   0.18456   0.30801   0.00000  Uiso   1.00
H166   H     0.45301   0.56647   0.13915   0.00000  Uiso   1.00
H167   H     0.73300   0.93699   0.92141   0.00000  Uiso   1.00
H168   H     0.95666   0.17811   0.43859   0.00000  Uiso   1.00
H169   H     0.96963   0.40823   0.04941   0.00000  Uiso   1.00
H170   H     0.85331   0.57447   0.03304   0.00000  Uiso   1.00
H171   H     0.98609   0.27594   0.92976   0.00000  Uiso   1.00
H172   H     0.09215   0.39029   0.17502   0.00000  Uiso   1.00
H173   H     0.68863   0.73344   0.03121   0.00000  Uiso   1.00
H174   H     0.96862   0.10396   0.81347   0.00000  Uiso   1.00
H175   H     0.19227   0.34509   0.33065   0.00000  Uiso   1.00
O176   O     0.48933   0.75578   0.07666   0.00000  Uiso   1.00
O177   O     0.85668   0.92993   0.79101   0.00000  Uiso   1.00
O178   O     0.15010   0.24627   0.46953   0.00000  Uiso   1.00
N179   N     0.52443   0.58296   0.11601   0.00000  Uiso   1.00
N180   N     0.78620   0.99445   0.91243   0.00000  Uiso   1.00
N181   N     0.99530   0.21985   0.39594   0.00000  Uiso   1.00
N182   N     0.65122   0.67281   0.05793   0.00000  Uiso   1.00
N183   N     0.91298   0.08430   0.85435   0.00000  Uiso   1.00
N184   N     0.12209   0.30970   0.33785   0.00000  Uiso   1.00
