data_job_00494
_audit_creation_date              2018-12-19
_audit_creation_method            'Materials Studio'
_symmetry_space_group_name_H-M    'P1'
_symmetry_Int_Tables_number       1
_symmetry_cell_setting            triclinic
loop_
_symmetry_equiv_pos_as_xyz
  x,y,z
_cell_length_a                    17.3345
_cell_length_b                    11.7849
_cell_length_c                    12.7754
_cell_angle_alpha                 90.0000
_cell_angle_beta                  111.9050
_cell_angle_gamma                 90.0000
loop_
_atom_site_label
_atom_site_type_symbol
_atom_site_fract_x
_atom_site_fract_y
_atom_site_fract_z
_atom_site_U_iso_or_equiv
_atom_site_adp_type
_atom_site_occupancy
C1     C     0.18577   0.52783   0.40691   0.00000  Uiso   1.00
C2     C     0.16983   0.46816   0.50284   0.00000  Uiso   1.00
C3     C     0.09556   0.41800   0.49552   0.00000  Uiso   1.00
C4     C     0.09354   0.36778   0.59278   0.00000  Uiso   1.00
C5     C     0.05816   0.27518   0.72640   0.00000  Uiso   1.00
C6     C     0.21513   0.64719   0.44934   0.00000  Uiso   1.00
C7     C     0.17895   0.74755   0.39703   0.00000  Uiso   1.00
C8     C     0.21507   0.84803   0.44924   0.00000  Uiso   1.00
C9     C     0.25005   0.03337   0.49976   0.00000  Uiso   1.00
C10    C     0.26041   0.46816   0.39584   0.00000  Uiso   1.00
C11    C     0.26232   0.41802   0.29854   0.00000  Uiso   1.00
C12    C     0.33658   0.36780   0.30570   0.00000  Uiso   1.00
C13    C     0.44187   0.27516   0.27314   0.00000  Uiso   1.00
C14    C     0.31427   0.52783   0.59263   0.00000  Uiso   1.00
C15    C     0.23963   0.46816   0.60371   0.00000  Uiso   1.00
C16    C     0.23772   0.41800   0.70101   0.00000  Uiso   1.00
C17    C     0.16346   0.36778   0.69384   0.00000  Uiso   1.00
C18    C     0.28492   0.64719   0.55021   0.00000  Uiso   1.00
C19    C     0.32111   0.74755   0.60251   0.00000  Uiso   1.00
C20    C     0.28499   0.84804   0.55030   0.00000  Uiso   1.00
C21    C     0.33021   0.46815   0.49671   0.00000  Uiso   1.00
C22    C     0.40448   0.41801   0.50402   0.00000  Uiso   1.00
C23    C     0.40650   0.36780   0.40676   0.00000  Uiso   1.00
H24    H     0.13144   0.52784   0.32837   0.00000  Uiso   1.00
H25    H     0.04156   0.41803   0.41744   0.00000  Uiso   1.00
H26    H     0.12494   0.74752   0.31896   0.00000  Uiso   1.00
H27    H     0.20830   0.41803   0.22049   0.00000  Uiso   1.00
H28    H     0.97268   0.29632   0.56069   0.00000  Uiso   1.00
H29    H     0.14851   0.99108   0.35301   0.00000  Uiso   1.00
H30    H     0.32429   0.29629   0.14536   0.00000  Uiso   1.00
H31    H     0.36861   0.52783   0.67117   0.00000  Uiso   1.00
H32    H     0.29174   0.41802   0.77906   0.00000  Uiso   1.00
H33    H     0.37512   0.74752   0.68057   0.00000  Uiso   1.00
H34    H     0.45848   0.41803   0.58210   0.00000  Uiso   1.00
H35    H     0.17574   0.29632   0.85419   0.00000  Uiso   1.00
H36    H     0.35157   0.99108   0.64651   0.00000  Uiso   1.00
H37    H     0.52735   0.29629   0.43886   0.00000  Uiso   1.00
O38    O     0.01936   0.22411   0.77224   0.00000  Uiso   1.00
O39    O     0.25005   0.13560   0.49976   0.00000  Uiso   1.00
O40    O     0.48066   0.22406   0.22732   0.00000  Uiso   1.00
N41    N     0.03103   0.31137   0.61496   0.00000  Uiso   1.00
N42    N     0.19541   0.96093   0.42080   0.00000  Uiso   1.00
N43    N     0.35975   0.31139   0.22665   0.00000  Uiso   1.00
N44    N     0.14029   0.31137   0.77289   0.00000  Uiso   1.00
N45    N     0.30467   0.96092   0.57873   0.00000  Uiso   1.00
N46    N     0.46902   0.31138   0.38458   0.00000  Uiso   1.00
C47    C     0.81423   0.02783   0.09309   0.00000  Uiso   1.00
C48    C     0.83017   0.96816   0.99716   0.00000  Uiso   1.00
C49    C     0.90444   0.91800   0.00448   0.00000  Uiso   1.00
C50    C     0.90646   0.86778   0.90722   0.00000  Uiso   1.00
C51    C     0.94184   0.77518   0.77360   0.00000  Uiso   1.00
C52    C     0.78487   0.14719   0.05066   0.00000  Uiso   1.00
C53    C     0.82105   0.24755   0.10297   0.00000  Uiso   1.00
C54    C     0.78493   0.34803   0.05076   0.00000  Uiso   1.00
C55    C     0.74995   0.53337   0.00024   0.00000  Uiso   1.00
C56    C     0.73959   0.96816   0.10416   0.00000  Uiso   1.00
C57    C     0.73768   0.91802   0.20146   0.00000  Uiso   1.00
C58    C     0.66342   0.86780   0.19430   0.00000  Uiso   1.00
C59    C     0.55813   0.77516   0.22686   0.00000  Uiso   1.00
C60    C     0.68573   0.02783   0.90737   0.00000  Uiso   1.00
C61    C     0.76037   0.96816   0.89629   0.00000  Uiso   1.00
C62    C     0.76228   0.91800   0.79899   0.00000  Uiso   1.00
C63    C     0.83654   0.86778   0.80616   0.00000  Uiso   1.00
C64    C     0.71508   0.14719   0.94979   0.00000  Uiso   1.00
C65    C     0.67889   0.24755   0.89749   0.00000  Uiso   1.00
C66    C     0.71501   0.34804   0.94970   0.00000  Uiso   1.00
C67    C     0.66979   0.96815   0.00329   0.00000  Uiso   1.00
C68    C     0.59552   0.91801   0.99598   0.00000  Uiso   1.00
C69    C     0.59350   0.86780   0.09324   0.00000  Uiso   1.00
H70    H     0.86856   0.02784   0.17163   0.00000  Uiso   1.00
H71    H     0.95844   0.91803   0.08256   0.00000  Uiso   1.00
H72    H     0.87506   0.24752   0.18104   0.00000  Uiso   1.00
H73    H     0.79170   0.91803   0.27951   0.00000  Uiso   1.00
H74    H     0.02732   0.79632   0.93931   0.00000  Uiso   1.00
H75    H     0.85149   0.49108   0.14699   0.00000  Uiso   1.00
H76    H     0.67571   0.79629   0.35464   0.00000  Uiso   1.00
H77    H     0.63139   0.02783   0.82883   0.00000  Uiso   1.00
H78    H     0.70826   0.91802   0.72094   0.00000  Uiso   1.00
H79    H     0.62488   0.24752   0.81943   0.00000  Uiso   1.00
H80    H     0.54152   0.91803   0.91790   0.00000  Uiso   1.00
H81    H     0.82426   0.79632   0.64581   0.00000  Uiso   1.00
H82    H     0.64843   0.49108   0.85349   0.00000  Uiso   1.00
H83    H     0.47265   0.79629   0.06114   0.00000  Uiso   1.00
O84    O     0.98064   0.72411   0.72776   0.00000  Uiso   1.00
O85    O     0.74995   0.63560   0.00024   0.00000  Uiso   1.00
O86    O     0.51934   0.72406   0.27268   0.00000  Uiso   1.00
N87    N     0.96897   0.81137   0.88504   0.00000  Uiso   1.00
N88    N     0.80459   0.46093   0.07920   0.00000  Uiso   1.00
N89    N     0.64025   0.81139   0.27335   0.00000  Uiso   1.00
N90    N     0.85971   0.81137   0.72711   0.00000  Uiso   1.00
N91    N     0.69533   0.46092   0.92127   0.00000  Uiso   1.00
N92    N     0.53098   0.81138   0.11542   0.00000  Uiso   1.00
C93    C     0.81423   0.47217   0.59309   0.00000  Uiso   1.00
C94    C     0.83017   0.53184   0.49716   0.00000  Uiso   1.00
C95    C     0.90444   0.58200   0.50448   0.00000  Uiso   1.00
C96    C     0.90646   0.63222   0.40722   0.00000  Uiso   1.00
C97    C     0.94184   0.72482   0.27360   0.00000  Uiso   1.00
C98    C     0.78487   0.35281   0.55066   0.00000  Uiso   1.00
C99    C     0.82105   0.25245   0.60297   0.00000  Uiso   1.00
C100   C     0.78493   0.15197   0.55076   0.00000  Uiso   1.00
C101   C     0.74995   0.96663   0.50024   0.00000  Uiso   1.00
C102   C     0.73959   0.53184   0.60416   0.00000  Uiso   1.00
C103   C     0.73768   0.58198   0.70146   0.00000  Uiso   1.00
C104   C     0.66342   0.63220   0.69430   0.00000  Uiso   1.00
C105   C     0.55813   0.72484   0.72686   0.00000  Uiso   1.00
C106   C     0.68573   0.47217   0.40737   0.00000  Uiso   1.00
C107   C     0.76037   0.53184   0.39629   0.00000  Uiso   1.00
C108   C     0.76228   0.58200   0.29899   0.00000  Uiso   1.00
C109   C     0.83654   0.63222   0.30616   0.00000  Uiso   1.00
C110   C     0.71508   0.35281   0.44979   0.00000  Uiso   1.00
C111   C     0.67889   0.25245   0.39749   0.00000  Uiso   1.00
C112   C     0.71501   0.15196   0.44970   0.00000  Uiso   1.00
C113   C     0.66979   0.53185   0.50329   0.00000  Uiso   1.00
C114   C     0.59552   0.58199   0.49598   0.00000  Uiso   1.00
C115   C     0.59350   0.63220   0.59324   0.00000  Uiso   1.00
H116   H     0.86856   0.47216   0.67163   0.00000  Uiso   1.00
H117   H     0.95844   0.58197   0.58256   0.00000  Uiso   1.00
H118   H     0.87506   0.25248   0.68104   0.00000  Uiso   1.00
H119   H     0.79170   0.58197   0.77951   0.00000  Uiso   1.00
H120   H     0.02732   0.70368   0.43931   0.00000  Uiso   1.00
H121   H     0.85149   0.00892   0.64699   0.00000  Uiso   1.00
H122   H     0.67571   0.70371   0.85464   0.00000  Uiso   1.00
H123   H     0.63139   0.47217   0.32883   0.00000  Uiso   1.00
H124   H     0.70826   0.58198   0.22094   0.00000  Uiso   1.00
H125   H     0.62488   0.25248   0.31943   0.00000  Uiso   1.00
H126   H     0.54152   0.58197   0.41790   0.00000  Uiso   1.00
H127   H     0.82426   0.70368   0.14581   0.00000  Uiso   1.00
H128   H     0.64843   0.00892   0.35349   0.00000  Uiso   1.00
H129   H     0.47265   0.70371   0.56114   0.00000  Uiso   1.00
O130   O     0.98064   0.77589   0.22776   0.00000  Uiso   1.00
O131   O     0.74995   0.86440   0.50024   0.00000  Uiso   1.00
O132   O     0.51934   0.77594   0.77268   0.00000  Uiso   1.00
N133   N     0.96897   0.68863   0.38504   0.00000  Uiso   1.00
N134   N     0.80459   0.03907   0.57920   0.00000  Uiso   1.00
N135   N     0.64025   0.68861   0.77335   0.00000  Uiso   1.00
N136   N     0.85971   0.68863   0.22711   0.00000  Uiso   1.00
N137   N     0.69533   0.03908   0.42127   0.00000  Uiso   1.00
N138   N     0.53098   0.68862   0.61542   0.00000  Uiso   1.00
C139   C     0.18577   0.97217   0.90691   0.00000  Uiso   1.00
C140   C     0.16983   0.03184   0.00284   0.00000  Uiso   1.00
C141   C     0.09556   0.08200   0.99552   0.00000  Uiso   1.00
C142   C     0.09354   0.13222   0.09278   0.00000  Uiso   1.00
C143   C     0.05816   0.22482   0.22640   0.00000  Uiso   1.00
C144   C     0.21513   0.85281   0.94934   0.00000  Uiso   1.00
C145   C     0.17895   0.75245   0.89703   0.00000  Uiso   1.00
C146   C     0.21507   0.65197   0.94924   0.00000  Uiso   1.00
C147   C     0.25005   0.46663   0.99976   0.00000  Uiso   1.00
C148   C     0.26041   0.03184   0.89584   0.00000  Uiso   1.00
C149   C     0.26232   0.08198   0.79854   0.00000  Uiso   1.00
C150   C     0.33658   0.13220   0.80570   0.00000  Uiso   1.00
C151   C     0.44187   0.22484   0.77314   0.00000  Uiso   1.00
C152   C     0.31427   0.97217   0.09263   0.00000  Uiso   1.00
C153   C     0.23963   0.03184   0.10371   0.00000  Uiso   1.00
C154   C     0.23772   0.08200   0.20101   0.00000  Uiso   1.00
C155   C     0.16346   0.13222   0.19384   0.00000  Uiso   1.00
C156   C     0.28492   0.85281   0.05021   0.00000  Uiso   1.00
C157   C     0.32111   0.75245   0.10251   0.00000  Uiso   1.00
C158   C     0.28499   0.65196   0.05030   0.00000  Uiso   1.00
C159   C     0.33021   0.03185   0.99671   0.00000  Uiso   1.00
C160   C     0.40448   0.08199   0.00402   0.00000  Uiso   1.00
C161   C     0.40650   0.13220   0.90676   0.00000  Uiso   1.00
H162   H     0.13144   0.97216   0.82837   0.00000  Uiso   1.00
H163   H     0.04156   0.08197   0.91744   0.00000  Uiso   1.00
H164   H     0.12494   0.75248   0.81896   0.00000  Uiso   1.00
H165   H     0.20830   0.08197   0.72049   0.00000  Uiso   1.00
H166   H     0.97268   0.20368   0.06069   0.00000  Uiso   1.00
H167   H     0.14851   0.50892   0.85301   0.00000  Uiso   1.00
H168   H     0.32429   0.20371   0.64536   0.00000  Uiso   1.00
H169   H     0.36861   0.97217   0.17117   0.00000  Uiso   1.00
H170   H     0.29174   0.08198   0.27906   0.00000  Uiso   1.00
H171   H     0.37512   0.75248   0.18057   0.00000  Uiso   1.00
H172   H     0.45848   0.08197   0.08210   0.00000  Uiso   1.00
H173   H     0.17574   0.20368   0.35419   0.00000  Uiso   1.00
H174   H     0.35157   0.50892   0.14651   0.00000  Uiso   1.00
H175   H     0.52735   0.20371   0.93886   0.00000  Uiso   1.00
O176   O     0.01936   0.27589   0.27224   0.00000  Uiso   1.00
O177   O     0.25005   0.36440   0.99976   0.00000  Uiso   1.00
O178   O     0.48066   0.27594   0.72732   0.00000  Uiso   1.00
N179   N     0.03103   0.18863   0.11496   0.00000  Uiso   1.00
N180   N     0.19541   0.53907   0.92080   0.00000  Uiso   1.00
N181   N     0.35975   0.18861   0.72665   0.00000  Uiso   1.00
N182   N     0.14029   0.18863   0.27289   0.00000  Uiso   1.00
N183   N     0.30467   0.53908   0.07873   0.00000  Uiso   1.00
N184   N     0.46902   0.18862   0.88458   0.00000  Uiso   1.00
