data_job_00400
_audit_creation_date              2018-12-19
_audit_creation_method            'Materials Studio'
_symmetry_space_group_name_H-M    'P1'
_symmetry_Int_Tables_number       1
_symmetry_cell_setting            triclinic
loop_
_symmetry_equiv_pos_as_xyz
  x,y,z
_cell_length_a                    23.4656
_cell_length_b                    7.5127
_cell_length_c                    37.8130
_cell_angle_alpha                 90.0000
_cell_angle_beta                  135.3586
_cell_angle_gamma                 90.0000
loop_
_atom_site_label
_atom_site_type_symbol
_atom_site_fract_x
_atom_site_fract_y
_atom_site_fract_z
_atom_site_U_iso_or_equiv
_atom_site_adp_type
_atom_site_occupancy
C1     C     0.74674   0.13631   0.38367   0.00000  Uiso   1.00
C2     C     0.70716   0.24351   0.39578   0.00000  Uiso   1.00
C3     C     0.69587   0.18624   0.42534   0.00000  Uiso   1.00
C4     C     0.65841   0.30410   0.43189   0.00000  Uiso   1.00
C5     C     0.60076   0.44480   0.45404   0.00000  Uiso   1.00
C6     C     0.68467   0.12850   0.32641   0.00000  Uiso   1.00
C7     C     0.65449   0.97454   0.29765   0.00000  Uiso   1.00
C8     C     0.59812   0.99560   0.24580   0.00000  Uiso   1.00
C9     C     0.50560   0.95776   0.16027   0.00000  Uiso   1.00
C10    C     0.81654   0.25015   0.40078   0.00000  Uiso   1.00
C11    C     0.89723   0.19846   0.43453   0.00000  Uiso   1.00
C12    C     0.95188   0.32193   0.44529   0.00000  Uiso   1.00
C13    C     0.06410   0.47297   0.47522   0.00000  Uiso   1.00
C14    C     0.70029   0.44747   0.34274   0.00000  Uiso   1.00
C15    C     0.68193   0.41251   0.37354   0.00000  Uiso   1.00
C16    C     0.64448   0.53050   0.38005   0.00000  Uiso   1.00
C17    C     0.63314   0.47342   0.40961   0.00000  Uiso   1.00
C18    C     0.65944   0.29751   0.30417   0.00000  Uiso   1.00
C19    C     0.60310   0.31880   0.25236   0.00000  Uiso   1.00
C20    C     0.57284   0.16492   0.22353   0.00000  Uiso   1.00
C21    C     0.79131   0.41917   0.37854   0.00000  Uiso   1.00
C22    C     0.84584   0.54273   0.38925   0.00000  Uiso   1.00
C23    C     0.92660   0.49124   0.42302   0.00000  Uiso   1.00
H24    H     0.76637   0.00473   0.40098   0.00000  Uiso   1.00
H25    H     0.71540   0.05542   0.44253   0.00000  Uiso   1.00
H26    H     0.67403   0.84377   0.31487   0.00000  Uiso   1.00
H27    H     0.91673   0.06766   0.45173   0.00000  Uiso   1.00
H28    H     0.64772   0.18614   0.47878   0.00000  Uiso   1.00
H29    H     0.56053   0.73986   0.20959   0.00000  Uiso   1.00
H30    H     0.07231   0.21197   0.49820   0.00000  Uiso   1.00
H31    H     0.68065   0.57906   0.32543   0.00000  Uiso   1.00
H32    H     0.62496   0.66128   0.36284   0.00000  Uiso   1.00
H33    H     0.58360   0.44962   0.23517   0.00000  Uiso   1.00
H34    H     0.82630   0.67351   0.37203   0.00000  Uiso   1.00
H35    H     0.57432   0.67787   0.41410   0.00000  Uiso   1.00
H36    H     0.48713   0.23158   0.14490   0.00000  Uiso   1.00
H37    H     0.99891   0.70370   0.43351   0.00000  Uiso   1.00
O38    O     0.57592   0.47571   0.47240   0.00000  Uiso   1.00
O39    O     0.46153   0.89019   0.11923   0.00000  Uiso   1.00
O40    O     0.13297   0.50960   0.49788   0.00000  Uiso   1.00
N41    N     0.63811   0.29060   0.45843   0.00000  Uiso   1.00
N42    N     0.55657   0.87335   0.20675   0.00000  Uiso   1.00
N43    N     0.03504   0.31472   0.47657   0.00000  Uiso   1.00
N44    N     0.59861   0.55520   0.42363   0.00000  Uiso   1.00
N45    N     0.51708   0.13794   0.17195   0.00000  Uiso   1.00
N46    N     0.99555   0.57931   0.44176   0.00000  Uiso   1.00
C47    C     0.24674   0.63631   0.38367   0.00000  Uiso   1.00
C48    C     0.20716   0.74351   0.39578   0.00000  Uiso   1.00
C49    C     0.19587   0.68624   0.42534   0.00000  Uiso   1.00
C50    C     0.15841   0.80410   0.43189   0.00000  Uiso   1.00
C51    C     0.10076   0.94480   0.45404   0.00000  Uiso   1.00
C52    C     0.18467   0.62850   0.32641   0.00000  Uiso   1.00
C53    C     0.15449   0.47454   0.29765   0.00000  Uiso   1.00
C54    C     0.09812   0.49560   0.24580   0.00000  Uiso   1.00
C55    C     0.00560   0.45776   0.16027   0.00000  Uiso   1.00
C56    C     0.31654   0.75015   0.40078   0.00000  Uiso   1.00
C57    C     0.39723   0.69846   0.43453   0.00000  Uiso   1.00
C58    C     0.45188   0.82193   0.44529   0.00000  Uiso   1.00
C59    C     0.56410   0.97297   0.47522   0.00000  Uiso   1.00
C60    C     0.20029   0.94747   0.34274   0.00000  Uiso   1.00
C61    C     0.18193   0.91251   0.37354   0.00000  Uiso   1.00
C62    C     0.14448   0.03050   0.38005   0.00000  Uiso   1.00
C63    C     0.13314   0.97342   0.40961   0.00000  Uiso   1.00
C64    C     0.15944   0.79751   0.30417   0.00000  Uiso   1.00
C65    C     0.10310   0.81880   0.25236   0.00000  Uiso   1.00
C66    C     0.07284   0.66492   0.22353   0.00000  Uiso   1.00
C67    C     0.29131   0.91917   0.37854   0.00000  Uiso   1.00
C68    C     0.34584   0.04273   0.38925   0.00000  Uiso   1.00
C69    C     0.42660   0.99124   0.42302   0.00000  Uiso   1.00
H70    H     0.26637   0.50473   0.40098   0.00000  Uiso   1.00
H71    H     0.21540   0.55542   0.44253   0.00000  Uiso   1.00
H72    H     0.17403   0.34377   0.31487   0.00000  Uiso   1.00
H73    H     0.41673   0.56766   0.45173   0.00000  Uiso   1.00
H74    H     0.14772   0.68614   0.47878   0.00000  Uiso   1.00
H75    H     0.06053   0.23986   0.20959   0.00000  Uiso   1.00
H76    H     0.57231   0.71197   0.49820   0.00000  Uiso   1.00
H77    H     0.18065   0.07906   0.32543   0.00000  Uiso   1.00
H78    H     0.12496   0.16128   0.36284   0.00000  Uiso   1.00
H79    H     0.08360   0.94962   0.23517   0.00000  Uiso   1.00
H80    H     0.32630   0.17351   0.37203   0.00000  Uiso   1.00
H81    H     0.07432   0.17787   0.41410   0.00000  Uiso   1.00
H82    H     0.98713   0.73158   0.14490   0.00000  Uiso   1.00
H83    H     0.49891   0.20370   0.43351   0.00000  Uiso   1.00
O84    O     0.07592   0.97571   0.47240   0.00000  Uiso   1.00
O85    O     0.96153   0.39019   0.11923   0.00000  Uiso   1.00
O86    O     0.63297   0.00960   0.49788   0.00000  Uiso   1.00
N87    N     0.13811   0.79060   0.45843   0.00000  Uiso   1.00
N88    N     0.05657   0.37335   0.20675   0.00000  Uiso   1.00
N89    N     0.53504   0.81472   0.47657   0.00000  Uiso   1.00
N90    N     0.09861   0.05520   0.42363   0.00000  Uiso   1.00
N91    N     0.01708   0.63794   0.17195   0.00000  Uiso   1.00
N92    N     0.49555   0.07931   0.44176   0.00000  Uiso   1.00
C93    C     0.25326   0.13631   0.11633   0.00000  Uiso   1.00
C94    C     0.29284   0.24351   0.10422   0.00000  Uiso   1.00
C95    C     0.30413   0.18624   0.07466   0.00000  Uiso   1.00
C96    C     0.34159   0.30410   0.06811   0.00000  Uiso   1.00
C97    C     0.39924   0.44480   0.04596   0.00000  Uiso   1.00
C98    C     0.31533   0.12850   0.17359   0.00000  Uiso   1.00
C99    C     0.34551   0.97454   0.20235   0.00000  Uiso   1.00
C100   C     0.40188   0.99560   0.25420   0.00000  Uiso   1.00
C101   C     0.49440   0.95776   0.33973   0.00000  Uiso   1.00
C102   C     0.18346   0.25015   0.09922   0.00000  Uiso   1.00
C103   C     0.10277   0.19846   0.06547   0.00000  Uiso   1.00
C104   C     0.04812   0.32193   0.05471   0.00000  Uiso   1.00
C105   C     0.93590   0.47297   0.02478   0.00000  Uiso   1.00
C106   C     0.29971   0.44747   0.15726   0.00000  Uiso   1.00
C107   C     0.31807   0.41251   0.12646   0.00000  Uiso   1.00
C108   C     0.35552   0.53050   0.11995   0.00000  Uiso   1.00
C109   C     0.36686   0.47342   0.09039   0.00000  Uiso   1.00
C110   C     0.34056   0.29751   0.19583   0.00000  Uiso   1.00
C111   C     0.39690   0.31880   0.24764   0.00000  Uiso   1.00
C112   C     0.42716   0.16492   0.27647   0.00000  Uiso   1.00
C113   C     0.20869   0.41917   0.12146   0.00000  Uiso   1.00
C114   C     0.15416   0.54273   0.11075   0.00000  Uiso   1.00
C115   C     0.07340   0.49124   0.07698   0.00000  Uiso   1.00
H116   H     0.23363   0.00473   0.09902   0.00000  Uiso   1.00
H117   H     0.28460   0.05542   0.05747   0.00000  Uiso   1.00
H118   H     0.32597   0.84377   0.18513   0.00000  Uiso   1.00
H119   H     0.08327   0.06766   0.04827   0.00000  Uiso   1.00
H120   H     0.35228   0.18614   0.02122   0.00000  Uiso   1.00
H121   H     0.43947   0.73986   0.29041   0.00000  Uiso   1.00
H122   H     0.92769   0.21197   0.00180   0.00000  Uiso   1.00
H123   H     0.31935   0.57906   0.17457   0.00000  Uiso   1.00
H124   H     0.37504   0.66128   0.13716   0.00000  Uiso   1.00
H125   H     0.41640   0.44962   0.26483   0.00000  Uiso   1.00
H126   H     0.17370   0.67351   0.12797   0.00000  Uiso   1.00
H127   H     0.42568   0.67787   0.08590   0.00000  Uiso   1.00
H128   H     0.51287   0.23158   0.35510   0.00000  Uiso   1.00
H129   H     0.00109   0.70370   0.06649   0.00000  Uiso   1.00
O130   O     0.42408   0.47571   0.02760   0.00000  Uiso   1.00
O131   O     0.53847   0.89019   0.38077   0.00000  Uiso   1.00
O132   O     0.86703   0.50960   0.00212   0.00000  Uiso   1.00
N133   N     0.36189   0.29060   0.04157   0.00000  Uiso   1.00
N134   N     0.44343   0.87335   0.29325   0.00000  Uiso   1.00
N135   N     0.96496   0.31472   0.02343   0.00000  Uiso   1.00
N136   N     0.40139   0.55520   0.07637   0.00000  Uiso   1.00
N137   N     0.48292   0.13794   0.32805   0.00000  Uiso   1.00
N138   N     0.00445   0.57931   0.05824   0.00000  Uiso   1.00
C139   C     0.75326   0.63631   0.11633   0.00000  Uiso   1.00
C140   C     0.79284   0.74351   0.10422   0.00000  Uiso   1.00
C141   C     0.80413   0.68624   0.07466   0.00000  Uiso   1.00
C142   C     0.84159   0.80410   0.06811   0.00000  Uiso   1.00
C143   C     0.89924   0.94480   0.04596   0.00000  Uiso   1.00
C144   C     0.81533   0.62850   0.17359   0.00000  Uiso   1.00
C145   C     0.84551   0.47454   0.20235   0.00000  Uiso   1.00
C146   C     0.90188   0.49560   0.25420   0.00000  Uiso   1.00
C147   C     0.99440   0.45776   0.33973   0.00000  Uiso   1.00
C148   C     0.68346   0.75015   0.09922   0.00000  Uiso   1.00
C149   C     0.60277   0.69846   0.06547   0.00000  Uiso   1.00
C150   C     0.54812   0.82193   0.05471   0.00000  Uiso   1.00
C151   C     0.43590   0.97297   0.02478   0.00000  Uiso   1.00
C152   C     0.79971   0.94747   0.15726   0.00000  Uiso   1.00
C153   C     0.81807   0.91251   0.12646   0.00000  Uiso   1.00
C154   C     0.85552   0.03050   0.11995   0.00000  Uiso   1.00
C155   C     0.86686   0.97342   0.09039   0.00000  Uiso   1.00
C156   C     0.84056   0.79751   0.19583   0.00000  Uiso   1.00
C157   C     0.89690   0.81880   0.24764   0.00000  Uiso   1.00
C158   C     0.92716   0.66492   0.27647   0.00000  Uiso   1.00
C159   C     0.70869   0.91917   0.12146   0.00000  Uiso   1.00
C160   C     0.65416   0.04273   0.11075   0.00000  Uiso   1.00
C161   C     0.57340   0.99124   0.07698   0.00000  Uiso   1.00
H162   H     0.73363   0.50473   0.09902   0.00000  Uiso   1.00
H163   H     0.78460   0.55542   0.05747   0.00000  Uiso   1.00
H164   H     0.82597   0.34377   0.18513   0.00000  Uiso   1.00
H165   H     0.58327   0.56766   0.04827   0.00000  Uiso   1.00
H166   H     0.85228   0.68614   0.02122   0.00000  Uiso   1.00
H167   H     0.93947   0.23986   0.29041   0.00000  Uiso   1.00
H168   H     0.42769   0.71197   0.00180   0.00000  Uiso   1.00
H169   H     0.81935   0.07906   0.17457   0.00000  Uiso   1.00
H170   H     0.87504   0.16128   0.13716   0.00000  Uiso   1.00
H171   H     0.91640   0.94962   0.26483   0.00000  Uiso   1.00
H172   H     0.67370   0.17351   0.12797   0.00000  Uiso   1.00
H173   H     0.92568   0.17787   0.08590   0.00000  Uiso   1.00
H174   H     0.01287   0.73158   0.35510   0.00000  Uiso   1.00
H175   H     0.50109   0.20370   0.06649   0.00000  Uiso   1.00
O176   O     0.92408   0.97571   0.02760   0.00000  Uiso   1.00
O177   O     0.03847   0.39019   0.38077   0.00000  Uiso   1.00
O178   O     0.36703   0.00960   0.00212   0.00000  Uiso   1.00
N179   N     0.86189   0.79060   0.04157   0.00000  Uiso   1.00
N180   N     0.94343   0.37335   0.29325   0.00000  Uiso   1.00
N181   N     0.46496   0.81472   0.02343   0.00000  Uiso   1.00
N182   N     0.90139   0.05520   0.07637   0.00000  Uiso   1.00
N183   N     0.98292   0.63794   0.32805   0.00000  Uiso   1.00
N184   N     0.50445   0.07931   0.05824   0.00000  Uiso   1.00
C185   C     0.25326   0.86369   0.61633   0.00000  Uiso   1.00
C186   C     0.29284   0.75649   0.60422   0.00000  Uiso   1.00
C187   C     0.30413   0.81376   0.57466   0.00000  Uiso   1.00
C188   C     0.34159   0.69590   0.56811   0.00000  Uiso   1.00
C189   C     0.39924   0.55520   0.54596   0.00000  Uiso   1.00
C190   C     0.31533   0.87150   0.67359   0.00000  Uiso   1.00
C191   C     0.34551   0.02546   0.70235   0.00000  Uiso   1.00
C192   C     0.40188   0.00440   0.75420   0.00000  Uiso   1.00
C193   C     0.49440   0.04224   0.83973   0.00000  Uiso   1.00
C194   C     0.18346   0.74985   0.59922   0.00000  Uiso   1.00
C195   C     0.10277   0.80154   0.56547   0.00000  Uiso   1.00
C196   C     0.04812   0.67807   0.55471   0.00000  Uiso   1.00
C197   C     0.93590   0.52703   0.52478   0.00000  Uiso   1.00
C198   C     0.29971   0.55253   0.65726   0.00000  Uiso   1.00
C199   C     0.31807   0.58749   0.62646   0.00000  Uiso   1.00
C200   C     0.35552   0.46950   0.61995   0.00000  Uiso   1.00
C201   C     0.36686   0.52658   0.59039   0.00000  Uiso   1.00
C202   C     0.34056   0.70249   0.69583   0.00000  Uiso   1.00
C203   C     0.39690   0.68120   0.74764   0.00000  Uiso   1.00
C204   C     0.42716   0.83508   0.77647   0.00000  Uiso   1.00
C205   C     0.20869   0.58083   0.62146   0.00000  Uiso   1.00
C206   C     0.15416   0.45727   0.61075   0.00000  Uiso   1.00
C207   C     0.07340   0.50876   0.57698   0.00000  Uiso   1.00
H208   H     0.23363   0.99527   0.59902   0.00000  Uiso   1.00
H209   H     0.28460   0.94458   0.55747   0.00000  Uiso   1.00
H210   H     0.32597   0.15623   0.68513   0.00000  Uiso   1.00
H211   H     0.08327   0.93234   0.54827   0.00000  Uiso   1.00
H212   H     0.35228   0.81386   0.52122   0.00000  Uiso   1.00
H213   H     0.43947   0.26014   0.79041   0.00000  Uiso   1.00
H214   H     0.92769   0.78803   0.50180   0.00000  Uiso   1.00
H215   H     0.31935   0.42094   0.67457   0.00000  Uiso   1.00
H216   H     0.37504   0.33872   0.63716   0.00000  Uiso   1.00
H217   H     0.41640   0.55038   0.76483   0.00000  Uiso   1.00
H218   H     0.17370   0.32649   0.62797   0.00000  Uiso   1.00
H219   H     0.42568   0.32213   0.58590   0.00000  Uiso   1.00
H220   H     0.51287   0.76842   0.85510   0.00000  Uiso   1.00
H221   H     0.00109   0.29630   0.56649   0.00000  Uiso   1.00
O222   O     0.42408   0.52429   0.52760   0.00000  Uiso   1.00
O223   O     0.53847   0.10981   0.88077   0.00000  Uiso   1.00
O224   O     0.86703   0.49040   0.50212   0.00000  Uiso   1.00
N225   N     0.36189   0.70940   0.54157   0.00000  Uiso   1.00
N226   N     0.44343   0.12665   0.79325   0.00000  Uiso   1.00
N227   N     0.96496   0.68528   0.52343   0.00000  Uiso   1.00
N228   N     0.40139   0.44480   0.57637   0.00000  Uiso   1.00
N229   N     0.48292   0.86206   0.82805   0.00000  Uiso   1.00
N230   N     0.00445   0.42069   0.55824   0.00000  Uiso   1.00
C231   C     0.75326   0.36369   0.61633   0.00000  Uiso   1.00
C232   C     0.79284   0.25649   0.60422   0.00000  Uiso   1.00
C233   C     0.80413   0.31376   0.57466   0.00000  Uiso   1.00
C234   C     0.84159   0.19590   0.56811   0.00000  Uiso   1.00
C235   C     0.89924   0.05520   0.54596   0.00000  Uiso   1.00
C236   C     0.81533   0.37150   0.67359   0.00000  Uiso   1.00
C237   C     0.84551   0.52546   0.70235   0.00000  Uiso   1.00
C238   C     0.90188   0.50440   0.75420   0.00000  Uiso   1.00
C239   C     0.99440   0.54224   0.83973   0.00000  Uiso   1.00
C240   C     0.68346   0.24985   0.59922   0.00000  Uiso   1.00
C241   C     0.60277   0.30154   0.56547   0.00000  Uiso   1.00
C242   C     0.54812   0.17807   0.55471   0.00000  Uiso   1.00
C243   C     0.43590   0.02703   0.52478   0.00000  Uiso   1.00
C244   C     0.79971   0.05253   0.65726   0.00000  Uiso   1.00
C245   C     0.81807   0.08749   0.62646   0.00000  Uiso   1.00
C246   C     0.85552   0.96950   0.61995   0.00000  Uiso   1.00
C247   C     0.86686   0.02658   0.59039   0.00000  Uiso   1.00
C248   C     0.84056   0.20249   0.69583   0.00000  Uiso   1.00
C249   C     0.89690   0.18120   0.74764   0.00000  Uiso   1.00
C250   C     0.92716   0.33508   0.77647   0.00000  Uiso   1.00
C251   C     0.70869   0.08083   0.62146   0.00000  Uiso   1.00
C252   C     0.65416   0.95727   0.61075   0.00000  Uiso   1.00
C253   C     0.57340   0.00876   0.57698   0.00000  Uiso   1.00
H254   H     0.73363   0.49527   0.59902   0.00000  Uiso   1.00
H255   H     0.78460   0.44458   0.55747   0.00000  Uiso   1.00
H256   H     0.82597   0.65623   0.68513   0.00000  Uiso   1.00
H257   H     0.58327   0.43234   0.54827   0.00000  Uiso   1.00
H258   H     0.85228   0.31386   0.52122   0.00000  Uiso   1.00
H259   H     0.93947   0.76014   0.79041   0.00000  Uiso   1.00
H260   H     0.42769   0.28803   0.50180   0.00000  Uiso   1.00
H261   H     0.81935   0.92094   0.67457   0.00000  Uiso   1.00
H262   H     0.87504   0.83872   0.63716   0.00000  Uiso   1.00
H263   H     0.91640   0.05038   0.76483   0.00000  Uiso   1.00
H264   H     0.67370   0.82649   0.62797   0.00000  Uiso   1.00
H265   H     0.92568   0.82213   0.58590   0.00000  Uiso   1.00
H266   H     0.01287   0.26842   0.85510   0.00000  Uiso   1.00
H267   H     0.50109   0.79630   0.56649   0.00000  Uiso   1.00
O268   O     0.92408   0.02429   0.52760   0.00000  Uiso   1.00
O269   O     0.03847   0.60981   0.88077   0.00000  Uiso   1.00
O270   O     0.36703   0.99040   0.50212   0.00000  Uiso   1.00
N271   N     0.86189   0.20940   0.54157   0.00000  Uiso   1.00
N272   N     0.94343   0.62665   0.79325   0.00000  Uiso   1.00
N273   N     0.46496   0.18528   0.52343   0.00000  Uiso   1.00
N274   N     0.90139   0.94480   0.57637   0.00000  Uiso   1.00
N275   N     0.98292   0.36206   0.82805   0.00000  Uiso   1.00
N276   N     0.50445   0.92069   0.55824   0.00000  Uiso   1.00
C277   C     0.74674   0.86369   0.88367   0.00000  Uiso   1.00
C278   C     0.70716   0.75649   0.89578   0.00000  Uiso   1.00
C279   C     0.69587   0.81376   0.92534   0.00000  Uiso   1.00
C280   C     0.65841   0.69590   0.93189   0.00000  Uiso   1.00
C281   C     0.60076   0.55520   0.95404   0.00000  Uiso   1.00
C282   C     0.68467   0.87150   0.82641   0.00000  Uiso   1.00
C283   C     0.65449   0.02546   0.79765   0.00000  Uiso   1.00
C284   C     0.59812   0.00440   0.74580   0.00000  Uiso   1.00
C285   C     0.50560   0.04224   0.66027   0.00000  Uiso   1.00
C286   C     0.81654   0.74985   0.90078   0.00000  Uiso   1.00
C287   C     0.89723   0.80154   0.93453   0.00000  Uiso   1.00
C288   C     0.95188   0.67807   0.94529   0.00000  Uiso   1.00
C289   C     0.06410   0.52703   0.97522   0.00000  Uiso   1.00
C290   C     0.70029   0.55253   0.84274   0.00000  Uiso   1.00
C291   C     0.68193   0.58749   0.87354   0.00000  Uiso   1.00
C292   C     0.64448   0.46950   0.88005   0.00000  Uiso   1.00
C293   C     0.63314   0.52658   0.90961   0.00000  Uiso   1.00
C294   C     0.65944   0.70249   0.80417   0.00000  Uiso   1.00
C295   C     0.60310   0.68120   0.75236   0.00000  Uiso   1.00
C296   C     0.57284   0.83508   0.72353   0.00000  Uiso   1.00
C297   C     0.79131   0.58083   0.87854   0.00000  Uiso   1.00
C298   C     0.84584   0.45727   0.88925   0.00000  Uiso   1.00
C299   C     0.92660   0.50876   0.92302   0.00000  Uiso   1.00
H300   H     0.76637   0.99527   0.90098   0.00000  Uiso   1.00
H301   H     0.71540   0.94458   0.94253   0.00000  Uiso   1.00
H302   H     0.67403   0.15623   0.81487   0.00000  Uiso   1.00
H303   H     0.91673   0.93234   0.95173   0.00000  Uiso   1.00
H304   H     0.64772   0.81386   0.97878   0.00000  Uiso   1.00
H305   H     0.56053   0.26014   0.70959   0.00000  Uiso   1.00
H306   H     0.07231   0.78803   0.99820   0.00000  Uiso   1.00
H307   H     0.68065   0.42094   0.82543   0.00000  Uiso   1.00
H308   H     0.62496   0.33872   0.86284   0.00000  Uiso   1.00
H309   H     0.58360   0.55038   0.73517   0.00000  Uiso   1.00
H310   H     0.82630   0.32649   0.87203   0.00000  Uiso   1.00
H311   H     0.57432   0.32213   0.91410   0.00000  Uiso   1.00
H312   H     0.48713   0.76842   0.64490   0.00000  Uiso   1.00
H313   H     0.99891   0.29630   0.93351   0.00000  Uiso   1.00
O314   O     0.57592   0.52429   0.97240   0.00000  Uiso   1.00
O315   O     0.46153   0.10981   0.61923   0.00000  Uiso   1.00
O316   O     0.13297   0.49040   0.99788   0.00000  Uiso   1.00
N317   N     0.63811   0.70940   0.95843   0.00000  Uiso   1.00
N318   N     0.55657   0.12665   0.70675   0.00000  Uiso   1.00
N319   N     0.03504   0.68528   0.97657   0.00000  Uiso   1.00
N320   N     0.59861   0.44480   0.92363   0.00000  Uiso   1.00
N321   N     0.51708   0.86206   0.67195   0.00000  Uiso   1.00
N322   N     0.99555   0.42069   0.94176   0.00000  Uiso   1.00
C323   C     0.24674   0.36369   0.88367   0.00000  Uiso   1.00
C324   C     0.20716   0.25649   0.89578   0.00000  Uiso   1.00
C325   C     0.19587   0.31376   0.92534   0.00000  Uiso   1.00
C326   C     0.15841   0.19590   0.93189   0.00000  Uiso   1.00
C327   C     0.10076   0.05520   0.95404   0.00000  Uiso   1.00
C328   C     0.18467   0.37150   0.82641   0.00000  Uiso   1.00
C329   C     0.15449   0.52546   0.79765   0.00000  Uiso   1.00
C330   C     0.09812   0.50440   0.74580   0.00000  Uiso   1.00
C331   C     0.00560   0.54224   0.66027   0.00000  Uiso   1.00
C332   C     0.31654   0.24985   0.90078   0.00000  Uiso   1.00
C333   C     0.39723   0.30154   0.93453   0.00000  Uiso   1.00
C334   C     0.45188   0.17807   0.94529   0.00000  Uiso   1.00
C335   C     0.56410   0.02703   0.97522   0.00000  Uiso   1.00
C336   C     0.20029   0.05253   0.84274   0.00000  Uiso   1.00
C337   C     0.18193   0.08749   0.87354   0.00000  Uiso   1.00
C338   C     0.14448   0.96950   0.88005   0.00000  Uiso   1.00
C339   C     0.13314   0.02658   0.90961   0.00000  Uiso   1.00
C340   C     0.15944   0.20249   0.80417   0.00000  Uiso   1.00
C341   C     0.10310   0.18120   0.75236   0.00000  Uiso   1.00
C342   C     0.07284   0.33508   0.72353   0.00000  Uiso   1.00
C343   C     0.29131   0.08083   0.87854   0.00000  Uiso   1.00
C344   C     0.34584   0.95727   0.88925   0.00000  Uiso   1.00
C345   C     0.42660   0.00876   0.92302   0.00000  Uiso   1.00
H346   H     0.26637   0.49527   0.90098   0.00000  Uiso   1.00
H347   H     0.21540   0.44458   0.94253   0.00000  Uiso   1.00
H348   H     0.17403   0.65623   0.81487   0.00000  Uiso   1.00
H349   H     0.41673   0.43234   0.95173   0.00000  Uiso   1.00
H350   H     0.14772   0.31386   0.97878   0.00000  Uiso   1.00
H351   H     0.06053   0.76014   0.70959   0.00000  Uiso   1.00
H352   H     0.57231   0.28803   0.99820   0.00000  Uiso   1.00
H353   H     0.18065   0.92094   0.82543   0.00000  Uiso   1.00
H354   H     0.12496   0.83872   0.86284   0.00000  Uiso   1.00
H355   H     0.08360   0.05038   0.73517   0.00000  Uiso   1.00
H356   H     0.32630   0.82649   0.87203   0.00000  Uiso   1.00
H357   H     0.07432   0.82213   0.91410   0.00000  Uiso   1.00
H358   H     0.98713   0.26842   0.64490   0.00000  Uiso   1.00
H359   H     0.49891   0.79630   0.93351   0.00000  Uiso   1.00
O360   O     0.07592   0.02429   0.97240   0.00000  Uiso   1.00
O361   O     0.96153   0.60981   0.61923   0.00000  Uiso   1.00
O362   O     0.63297   0.99040   0.99788   0.00000  Uiso   1.00
N363   N     0.13811   0.20940   0.95843   0.00000  Uiso   1.00
N364   N     0.05657   0.62665   0.70675   0.00000  Uiso   1.00
N365   N     0.53504   0.18528   0.97657   0.00000  Uiso   1.00
N366   N     0.09861   0.94480   0.92363   0.00000  Uiso   1.00
N367   N     0.01708   0.36206   0.67195   0.00000  Uiso   1.00
N368   N     0.49555   0.92069   0.94176   0.00000  Uiso   1.00
