data_job_00526
_audit_creation_date              2018-12-19
_audit_creation_method            'Materials Studio'
_symmetry_space_group_name_H-M    'P1'
_symmetry_Int_Tables_number       1
_symmetry_cell_setting            triclinic
loop_
_symmetry_equiv_pos_as_xyz
  x,y,z
_cell_length_a                    16.2935
_cell_length_b                    16.2935
_cell_length_c                    21.1534
_cell_angle_alpha                 90.0000
_cell_angle_beta                  90.0000
_cell_angle_gamma                 90.0000
loop_
_atom_site_label
_atom_site_type_symbol
_atom_site_fract_x
_atom_site_fract_y
_atom_site_fract_z
_atom_site_U_iso_or_equiv
_atom_site_adp_type
_atom_site_occupancy
C1     C     0.16968   0.62128   0.71265   0.00000  Uiso   1.00
C2     C     0.24247   0.57032   0.73531   0.00000  Uiso   1.00
C3     C     0.26942   0.56395   0.79735   0.00000  Uiso   1.00
C4     C     0.33712   0.51423   0.80836   0.00000  Uiso   1.00
C5     C     0.44419   0.44150   0.85104   0.00000  Uiso   1.00
C6     C     0.20333   0.67896   0.66214   0.00000  Uiso   1.00
C7     C     0.19736   0.76393   0.66266   0.00000  Uiso   1.00
C8     C     0.23211   0.80565   0.61207   0.00000  Uiso   1.00
C9     C     0.27835   0.90159   0.54114   0.00000  Uiso   1.00
C10    C     0.11282   0.56181   0.67830   0.00000  Uiso   1.00
C11    C     0.03074   0.54828   0.69239   0.00000  Uiso   1.00
C12    C     0.98929   0.49139   0.65540   0.00000  Uiso   1.00
C13    C     0.89501   0.40542   0.60955   0.00000  Uiso   1.00
C14    C     0.24201   0.54431   0.62188   0.00000  Uiso   1.00
C15    C     0.28175   0.52852   0.68600   0.00000  Uiso   1.00
C16    C     0.34944   0.47879   0.69693   0.00000  Uiso   1.00
C17    C     0.37648   0.47234   0.75898   0.00000  Uiso   1.00
C18    C     0.24261   0.63716   0.61284   0.00000  Uiso   1.00
C19    C     0.27738   0.67877   0.56224   0.00000  Uiso   1.00
C20    C     0.27146   0.76377   0.56269   0.00000  Uiso   1.00
C21    C     0.15211   0.52000   0.62900   0.00000  Uiso   1.00
C22    C     0.11077   0.46312   0.59197   0.00000  Uiso   1.00
C23    C     0.02864   0.44951   0.60601   0.00000  Uiso   1.00
H24    H     0.13910   0.65383   0.75102   0.00000  Uiso   1.00
H25    H     0.23900   0.59632   0.83548   0.00000  Uiso   1.00
H26    H     0.16695   0.79626   0.70081   0.00000  Uiso   1.00
H27    H     0.00036   0.58065   0.73054   0.00000  Uiso   1.00
H28    H     0.36710   0.51415   0.90738   0.00000  Uiso   1.00
H29    H     0.21514   0.93573   0.62340   0.00000  Uiso   1.00
H30    H     0.86387   0.48107   0.68609   0.00000  Uiso   1.00
H31    H     0.27260   0.51176   0.58350   0.00000  Uiso   1.00
H32    H     0.37982   0.44645   0.65877   0.00000  Uiso   1.00
H33    H     0.30777   0.64639   0.52410   0.00000  Uiso   1.00
H34    H     0.14119   0.43078   0.55383   0.00000  Uiso   1.00
H35    H     0.48140   0.39251   0.76395   0.00000  Uiso   1.00
H36    H     0.32944   0.81410   0.47998   0.00000  Uiso   1.00
H37    H     0.97817   0.35943   0.54267   0.00000  Uiso   1.00
O38    O     0.49240   0.41295   0.88820   0.00000  Uiso   1.00
O39    O     0.29302   0.96605   0.51563   0.00000  Uiso   1.00
O40    O     0.83216   0.36955   0.59788   0.00000  Uiso   1.00
N41    N     0.37928   0.49447   0.86330   0.00000  Uiso   1.00
N42    N     0.23722   0.88863   0.59780   0.00000  Uiso   1.00
N43    N     0.90880   0.46357   0.65640   0.00000  Uiso   1.00
N44    N     0.44078   0.42901   0.78612   0.00000  Uiso   1.00
N45    N     0.29872   0.82317   0.52062   0.00000  Uiso   1.00
N46    N     0.97030   0.39812   0.57922   0.00000  Uiso   1.00
C47    C     0.83032   0.37872   0.21265   0.00000  Uiso   1.00
C48    C     0.75753   0.42968   0.23531   0.00000  Uiso   1.00
C49    C     0.73058   0.43605   0.29735   0.00000  Uiso   1.00
C50    C     0.66288   0.48577   0.30836   0.00000  Uiso   1.00
C51    C     0.55581   0.55850   0.35104   0.00000  Uiso   1.00
C52    C     0.79667   0.32104   0.16214   0.00000  Uiso   1.00
C53    C     0.80264   0.23607   0.16266   0.00000  Uiso   1.00
C54    C     0.76789   0.19435   0.11207   0.00000  Uiso   1.00
C55    C     0.72165   0.09841   0.04114   0.00000  Uiso   1.00
C56    C     0.88718   0.43819   0.17830   0.00000  Uiso   1.00
C57    C     0.96926   0.45172   0.19239   0.00000  Uiso   1.00
C58    C     0.01071   0.50861   0.15540   0.00000  Uiso   1.00
C59    C     0.10499   0.59458   0.10955   0.00000  Uiso   1.00
C60    C     0.75799   0.45569   0.12188   0.00000  Uiso   1.00
C61    C     0.71825   0.47148   0.18600   0.00000  Uiso   1.00
C62    C     0.65056   0.52121   0.19693   0.00000  Uiso   1.00
C63    C     0.62352   0.52766   0.25898   0.00000  Uiso   1.00
C64    C     0.75739   0.36284   0.11284   0.00000  Uiso   1.00
C65    C     0.72262   0.32123   0.06224   0.00000  Uiso   1.00
C66    C     0.72854   0.23623   0.06269   0.00000  Uiso   1.00
C67    C     0.84789   0.48000   0.12900   0.00000  Uiso   1.00
C68    C     0.88923   0.53688   0.09197   0.00000  Uiso   1.00
C69    C     0.97136   0.55049   0.10601   0.00000  Uiso   1.00
H70    H     0.86090   0.34617   0.25102   0.00000  Uiso   1.00
H71    H     0.76100   0.40368   0.33548   0.00000  Uiso   1.00
H72    H     0.83305   0.20374   0.20081   0.00000  Uiso   1.00
H73    H     0.99964   0.41935   0.23054   0.00000  Uiso   1.00
H74    H     0.63290   0.48585   0.40738   0.00000  Uiso   1.00
H75    H     0.78486   0.06427   0.12340   0.00000  Uiso   1.00
H76    H     0.13613   0.51893   0.18609   0.00000  Uiso   1.00
H77    H     0.72740   0.48824   0.08350   0.00000  Uiso   1.00
H78    H     0.62018   0.55355   0.15877   0.00000  Uiso   1.00
H79    H     0.69223   0.35361   0.02410   0.00000  Uiso   1.00
H80    H     0.85881   0.56922   0.05383   0.00000  Uiso   1.00
H81    H     0.51860   0.60749   0.26395   0.00000  Uiso   1.00
H82    H     0.67056   0.18590   0.97998   0.00000  Uiso   1.00
H83    H     0.02183   0.64057   0.04267   0.00000  Uiso   1.00
O84    O     0.50760   0.58705   0.38820   0.00000  Uiso   1.00
O85    O     0.70698   0.03395   0.01563   0.00000  Uiso   1.00
O86    O     0.16784   0.63045   0.09788   0.00000  Uiso   1.00
N87    N     0.62072   0.50553   0.36330   0.00000  Uiso   1.00
N88    N     0.76278   0.11137   0.09780   0.00000  Uiso   1.00
N89    N     0.09120   0.53643   0.15640   0.00000  Uiso   1.00
N90    N     0.55922   0.57099   0.28612   0.00000  Uiso   1.00
N91    N     0.70128   0.17683   0.02062   0.00000  Uiso   1.00
N92    N     0.02970   0.60188   0.07922   0.00000  Uiso   1.00
C93    C     0.87872   0.66968   0.46265   0.00000  Uiso   1.00
C94    C     0.92968   0.74247   0.48531   0.00000  Uiso   1.00
C95    C     0.93605   0.76942   0.54735   0.00000  Uiso   1.00
C96    C     0.98577   0.83712   0.55836   0.00000  Uiso   1.00
C97    C     0.05850   0.94419   0.60104   0.00000  Uiso   1.00
C98    C     0.82104   0.70333   0.41214   0.00000  Uiso   1.00
C99    C     0.73607   0.69736   0.41266   0.00000  Uiso   1.00
C100   C     0.69435   0.73211   0.36207   0.00000  Uiso   1.00
C101   C     0.59841   0.77835   0.29114   0.00000  Uiso   1.00
C102   C     0.93819   0.61282   0.42830   0.00000  Uiso   1.00
C103   C     0.95172   0.53074   0.44239   0.00000  Uiso   1.00
C104   C     0.00861   0.48929   0.40540   0.00000  Uiso   1.00
C105   C     0.09458   0.39501   0.35955   0.00000  Uiso   1.00
C106   C     0.95569   0.74201   0.37188   0.00000  Uiso   1.00
C107   C     0.97148   0.78175   0.43600   0.00000  Uiso   1.00
C108   C     0.02121   0.84944   0.44693   0.00000  Uiso   1.00
C109   C     0.02766   0.87648   0.50898   0.00000  Uiso   1.00
C110   C     0.86284   0.74261   0.36284   0.00000  Uiso   1.00
C111   C     0.82123   0.77738   0.31224   0.00000  Uiso   1.00
C112   C     0.73623   0.77146   0.31269   0.00000  Uiso   1.00
C113   C     0.98000   0.65211   0.37900   0.00000  Uiso   1.00
C114   C     0.03688   0.61077   0.34197   0.00000  Uiso   1.00
C115   C     0.05049   0.52864   0.35601   0.00000  Uiso   1.00
H116   H     0.84617   0.63910   0.50102   0.00000  Uiso   1.00
H117   H     0.90368   0.73900   0.58548   0.00000  Uiso   1.00
H118   H     0.70374   0.66695   0.45081   0.00000  Uiso   1.00
H119   H     0.91935   0.50036   0.48054   0.00000  Uiso   1.00
H120   H     0.98585   0.86710   0.65738   0.00000  Uiso   1.00
H121   H     0.56427   0.71514   0.37340   0.00000  Uiso   1.00
H122   H     0.01893   0.36387   0.43609   0.00000  Uiso   1.00
H123   H     0.98824   0.77260   0.33350   0.00000  Uiso   1.00
H124   H     0.05355   0.87982   0.40877   0.00000  Uiso   1.00
H125   H     0.85361   0.80777   0.27410   0.00000  Uiso   1.00
H126   H     0.06922   0.64119   0.30383   0.00000  Uiso   1.00
H127   H     0.10749   0.98140   0.51395   0.00000  Uiso   1.00
H128   H     0.68590   0.82944   0.22998   0.00000  Uiso   1.00
H129   H     0.14057   0.47817   0.29267   0.00000  Uiso   1.00
O130   O     0.08705   0.99240   0.63820   0.00000  Uiso   1.00
O131   O     0.53395   0.79302   0.26563   0.00000  Uiso   1.00
O132   O     0.13045   0.33216   0.34788   0.00000  Uiso   1.00
N133   N     0.00553   0.87928   0.61330   0.00000  Uiso   1.00
N134   N     0.61137   0.73722   0.34780   0.00000  Uiso   1.00
N135   N     0.03643   0.40880   0.40640   0.00000  Uiso   1.00
N136   N     0.07099   0.94078   0.53612   0.00000  Uiso   1.00
N137   N     0.67683   0.79872   0.27062   0.00000  Uiso   1.00
N138   N     0.10188   0.47030   0.32922   0.00000  Uiso   1.00
C139   C     0.12128   0.33032   0.96265   0.00000  Uiso   1.00
C140   C     0.07032   0.25753   0.98531   0.00000  Uiso   1.00
C141   C     0.06395   0.23058   0.04735   0.00000  Uiso   1.00
C142   C     0.01423   0.16288   0.05836   0.00000  Uiso   1.00
C143   C     0.94150   0.05581   0.10104   0.00000  Uiso   1.00
C144   C     0.17896   0.29667   0.91214   0.00000  Uiso   1.00
C145   C     0.26393   0.30264   0.91266   0.00000  Uiso   1.00
C146   C     0.30565   0.26789   0.86207   0.00000  Uiso   1.00
C147   C     0.40159   0.22165   0.79114   0.00000  Uiso   1.00
C148   C     0.06181   0.38718   0.92830   0.00000  Uiso   1.00
C149   C     0.04828   0.46926   0.94239   0.00000  Uiso   1.00
C150   C     0.99139   0.51071   0.90540   0.00000  Uiso   1.00
C151   C     0.90542   0.60499   0.85955   0.00000  Uiso   1.00
C152   C     0.04431   0.25799   0.87188   0.00000  Uiso   1.00
C153   C     0.02852   0.21825   0.93600   0.00000  Uiso   1.00
C154   C     0.97879   0.15056   0.94693   0.00000  Uiso   1.00
C155   C     0.97234   0.12352   0.00898   0.00000  Uiso   1.00
C156   C     0.13716   0.25739   0.86284   0.00000  Uiso   1.00
C157   C     0.17877   0.22262   0.81224   0.00000  Uiso   1.00
C158   C     0.26377   0.22854   0.81269   0.00000  Uiso   1.00
C159   C     0.02000   0.34789   0.87900   0.00000  Uiso   1.00
C160   C     0.96312   0.38923   0.84197   0.00000  Uiso   1.00
C161   C     0.94951   0.47136   0.85601   0.00000  Uiso   1.00
H162   H     0.15383   0.36090   0.00102   0.00000  Uiso   1.00
H163   H     0.09632   0.26100   0.08548   0.00000  Uiso   1.00
H164   H     0.29626   0.33305   0.95081   0.00000  Uiso   1.00
H165   H     0.08065   0.49964   0.98054   0.00000  Uiso   1.00
H166   H     0.01415   0.13290   0.15738   0.00000  Uiso   1.00
H167   H     0.43573   0.28486   0.87340   0.00000  Uiso   1.00
H168   H     0.98107   0.63613   0.93609   0.00000  Uiso   1.00
H169   H     0.01176   0.22740   0.83350   0.00000  Uiso   1.00
H170   H     0.94645   0.12018   0.90877   0.00000  Uiso   1.00
H171   H     0.14639   0.19223   0.77410   0.00000  Uiso   1.00
H172   H     0.93078   0.35881   0.80383   0.00000  Uiso   1.00
H173   H     0.89251   0.01860   0.01395   0.00000  Uiso   1.00
H174   H     0.31410   0.17056   0.72998   0.00000  Uiso   1.00
H175   H     0.85943   0.52183   0.79267   0.00000  Uiso   1.00
O176   O     0.91295   0.00760   0.13820   0.00000  Uiso   1.00
O177   O     0.46605   0.20698   0.76563   0.00000  Uiso   1.00
O178   O     0.86955   0.66784   0.84788   0.00000  Uiso   1.00
N179   N     0.99447   0.12072   0.11330   0.00000  Uiso   1.00
N180   N     0.38863   0.26278   0.84780   0.00000  Uiso   1.00
N181   N     0.96357   0.59120   0.90640   0.00000  Uiso   1.00
N182   N     0.92901   0.05922   0.03612   0.00000  Uiso   1.00
N183   N     0.32317   0.20128   0.77062   0.00000  Uiso   1.00
N184   N     0.89812   0.52970   0.82922   0.00000  Uiso   1.00
C185   C     0.33032   0.12128   0.03735   0.00000  Uiso   1.00
C186   C     0.25753   0.07032   0.01469   0.00000  Uiso   1.00
C187   C     0.23058   0.06395   0.95265   0.00000  Uiso   1.00
C188   C     0.16288   0.01423   0.94164   0.00000  Uiso   1.00
C189   C     0.05581   0.94150   0.89896   0.00000  Uiso   1.00
C190   C     0.29667   0.17896   0.08786   0.00000  Uiso   1.00
C191   C     0.30264   0.26393   0.08734   0.00000  Uiso   1.00
C192   C     0.26789   0.30565   0.13793   0.00000  Uiso   1.00
C193   C     0.22165   0.40159   0.20886   0.00000  Uiso   1.00
C194   C     0.38718   0.06181   0.07170   0.00000  Uiso   1.00
C195   C     0.46926   0.04828   0.05761   0.00000  Uiso   1.00
C196   C     0.51071   0.99139   0.09460   0.00000  Uiso   1.00
C197   C     0.60499   0.90542   0.14045   0.00000  Uiso   1.00
C198   C     0.25799   0.04431   0.12812   0.00000  Uiso   1.00
C199   C     0.21825   0.02852   0.06400   0.00000  Uiso   1.00
C200   C     0.15056   0.97879   0.05307   0.00000  Uiso   1.00
C201   C     0.12352   0.97234   0.99102   0.00000  Uiso   1.00
C202   C     0.25739   0.13716   0.13716   0.00000  Uiso   1.00
C203   C     0.22262   0.17877   0.18776   0.00000  Uiso   1.00
C204   C     0.22854   0.26377   0.18731   0.00000  Uiso   1.00
C205   C     0.34789   0.02000   0.12100   0.00000  Uiso   1.00
C206   C     0.38923   0.96312   0.15803   0.00000  Uiso   1.00
C207   C     0.47136   0.94951   0.14399   0.00000  Uiso   1.00
H208   H     0.36090   0.15383   0.99898   0.00000  Uiso   1.00
H209   H     0.26100   0.09632   0.91452   0.00000  Uiso   1.00
H210   H     0.33305   0.29626   0.04919   0.00000  Uiso   1.00
H211   H     0.49964   0.08065   0.01946   0.00000  Uiso   1.00
H212   H     0.13290   0.01415   0.84262   0.00000  Uiso   1.00
H213   H     0.28486   0.43573   0.12660   0.00000  Uiso   1.00
H214   H     0.63613   0.98107   0.06391   0.00000  Uiso   1.00
H215   H     0.22740   0.01176   0.16650   0.00000  Uiso   1.00
H216   H     0.12018   0.94645   0.09123   0.00000  Uiso   1.00
H217   H     0.19223   0.14639   0.22590   0.00000  Uiso   1.00
H218   H     0.35881   0.93078   0.19617   0.00000  Uiso   1.00
H219   H     0.01860   0.89251   0.98605   0.00000  Uiso   1.00
H220   H     0.17056   0.31410   0.27002   0.00000  Uiso   1.00
H221   H     0.52183   0.85943   0.20733   0.00000  Uiso   1.00
O222   O     0.00760   0.91295   0.86180   0.00000  Uiso   1.00
O223   O     0.20698   0.46605   0.23437   0.00000  Uiso   1.00
O224   O     0.66784   0.86955   0.15212   0.00000  Uiso   1.00
N225   N     0.12072   0.99447   0.88670   0.00000  Uiso   1.00
N226   N     0.26278   0.38863   0.15220   0.00000  Uiso   1.00
N227   N     0.59120   0.96357   0.09360   0.00000  Uiso   1.00
N228   N     0.05922   0.92901   0.96388   0.00000  Uiso   1.00
N229   N     0.20128   0.32317   0.22938   0.00000  Uiso   1.00
N230   N     0.52970   0.89812   0.17078   0.00000  Uiso   1.00
C231   C     0.66968   0.87872   0.53735   0.00000  Uiso   1.00
C232   C     0.74247   0.92968   0.51469   0.00000  Uiso   1.00
C233   C     0.76942   0.93605   0.45265   0.00000  Uiso   1.00
C234   C     0.83712   0.98577   0.44164   0.00000  Uiso   1.00
C235   C     0.94419   0.05850   0.39896   0.00000  Uiso   1.00
C236   C     0.70333   0.82104   0.58786   0.00000  Uiso   1.00
C237   C     0.69736   0.73607   0.58734   0.00000  Uiso   1.00
C238   C     0.73211   0.69435   0.63793   0.00000  Uiso   1.00
C239   C     0.77835   0.59841   0.70886   0.00000  Uiso   1.00
C240   C     0.61282   0.93819   0.57170   0.00000  Uiso   1.00
C241   C     0.53074   0.95172   0.55761   0.00000  Uiso   1.00
C242   C     0.48929   0.00861   0.59460   0.00000  Uiso   1.00
C243   C     0.39501   0.09458   0.64045   0.00000  Uiso   1.00
C244   C     0.74201   0.95569   0.62812   0.00000  Uiso   1.00
C245   C     0.78175   0.97148   0.56400   0.00000  Uiso   1.00
C246   C     0.84944   0.02121   0.55307   0.00000  Uiso   1.00
C247   C     0.87648   0.02766   0.49102   0.00000  Uiso   1.00
C248   C     0.74261   0.86284   0.63716   0.00000  Uiso   1.00
C249   C     0.77738   0.82123   0.68776   0.00000  Uiso   1.00
C250   C     0.77146   0.73623   0.68731   0.00000  Uiso   1.00
C251   C     0.65211   0.98000   0.62100   0.00000  Uiso   1.00
C252   C     0.61077   0.03688   0.65803   0.00000  Uiso   1.00
C253   C     0.52864   0.05049   0.64399   0.00000  Uiso   1.00
H254   H     0.63910   0.84617   0.49898   0.00000  Uiso   1.00
H255   H     0.73900   0.90368   0.41452   0.00000  Uiso   1.00
H256   H     0.66695   0.70374   0.54919   0.00000  Uiso   1.00
H257   H     0.50036   0.91935   0.51946   0.00000  Uiso   1.00
H258   H     0.86710   0.98585   0.34262   0.00000  Uiso   1.00
H259   H     0.71514   0.56427   0.62660   0.00000  Uiso   1.00
H260   H     0.36387   0.01893   0.56391   0.00000  Uiso   1.00
H261   H     0.77260   0.98824   0.66650   0.00000  Uiso   1.00
H262   H     0.87982   0.05355   0.59123   0.00000  Uiso   1.00
H263   H     0.80777   0.85361   0.72590   0.00000  Uiso   1.00
H264   H     0.64119   0.06922   0.69617   0.00000  Uiso   1.00
H265   H     0.98140   0.10749   0.48605   0.00000  Uiso   1.00
H266   H     0.82944   0.68590   0.77002   0.00000  Uiso   1.00
H267   H     0.47817   0.14057   0.70733   0.00000  Uiso   1.00
O268   O     0.99240   0.08705   0.36180   0.00000  Uiso   1.00
O269   O     0.79302   0.53395   0.73437   0.00000  Uiso   1.00
O270   O     0.33216   0.13045   0.65212   0.00000  Uiso   1.00
N271   N     0.87928   0.00553   0.38670   0.00000  Uiso   1.00
N272   N     0.73722   0.61137   0.65220   0.00000  Uiso   1.00
N273   N     0.40880   0.03643   0.59360   0.00000  Uiso   1.00
N274   N     0.94078   0.07099   0.46388   0.00000  Uiso   1.00
N275   N     0.79872   0.67683   0.72938   0.00000  Uiso   1.00
N276   N     0.47030   0.10188   0.67078   0.00000  Uiso   1.00
C277   C     0.62128   0.16968   0.28735   0.00000  Uiso   1.00
C278   C     0.57032   0.24247   0.26469   0.00000  Uiso   1.00
C279   C     0.56395   0.26942   0.20265   0.00000  Uiso   1.00
C280   C     0.51423   0.33712   0.19164   0.00000  Uiso   1.00
C281   C     0.44150   0.44419   0.14896   0.00000  Uiso   1.00
C282   C     0.67896   0.20333   0.33786   0.00000  Uiso   1.00
C283   C     0.76393   0.19736   0.33734   0.00000  Uiso   1.00
C284   C     0.80565   0.23211   0.38793   0.00000  Uiso   1.00
C285   C     0.90159   0.27835   0.45886   0.00000  Uiso   1.00
C286   C     0.56181   0.11282   0.32170   0.00000  Uiso   1.00
C287   C     0.54828   0.03074   0.30761   0.00000  Uiso   1.00
C288   C     0.49139   0.98929   0.34460   0.00000  Uiso   1.00
C289   C     0.40542   0.89501   0.39045   0.00000  Uiso   1.00
C290   C     0.54431   0.24201   0.37812   0.00000  Uiso   1.00
C291   C     0.52852   0.28175   0.31400   0.00000  Uiso   1.00
C292   C     0.47879   0.34944   0.30307   0.00000  Uiso   1.00
C293   C     0.47234   0.37648   0.24102   0.00000  Uiso   1.00
C294   C     0.63716   0.24261   0.38716   0.00000  Uiso   1.00
C295   C     0.67877   0.27738   0.43776   0.00000  Uiso   1.00
C296   C     0.76377   0.27146   0.43731   0.00000  Uiso   1.00
C297   C     0.52000   0.15211   0.37100   0.00000  Uiso   1.00
C298   C     0.46312   0.11077   0.40803   0.00000  Uiso   1.00
C299   C     0.44951   0.02864   0.39399   0.00000  Uiso   1.00
H300   H     0.65383   0.13910   0.24898   0.00000  Uiso   1.00
H301   H     0.59632   0.23900   0.16452   0.00000  Uiso   1.00
H302   H     0.79626   0.16695   0.29919   0.00000  Uiso   1.00
H303   H     0.58065   0.00036   0.26946   0.00000  Uiso   1.00
H304   H     0.51415   0.36710   0.09262   0.00000  Uiso   1.00
H305   H     0.93573   0.21514   0.37660   0.00000  Uiso   1.00
H306   H     0.48107   0.86387   0.31391   0.00000  Uiso   1.00
H307   H     0.51176   0.27260   0.41650   0.00000  Uiso   1.00
H308   H     0.44645   0.37982   0.34123   0.00000  Uiso   1.00
H309   H     0.64639   0.30777   0.47590   0.00000  Uiso   1.00
H310   H     0.43078   0.14119   0.44617   0.00000  Uiso   1.00
H311   H     0.39251   0.48140   0.23605   0.00000  Uiso   1.00
H312   H     0.81410   0.32944   0.52002   0.00000  Uiso   1.00
H313   H     0.35943   0.97817   0.45733   0.00000  Uiso   1.00
O314   O     0.41295   0.49240   0.11180   0.00000  Uiso   1.00
O315   O     0.96605   0.29302   0.48437   0.00000  Uiso   1.00
O316   O     0.36955   0.83216   0.40212   0.00000  Uiso   1.00
N317   N     0.49447   0.37928   0.13670   0.00000  Uiso   1.00
N318   N     0.88863   0.23722   0.40220   0.00000  Uiso   1.00
N319   N     0.46357   0.90880   0.34360   0.00000  Uiso   1.00
N320   N     0.42901   0.44078   0.21388   0.00000  Uiso   1.00
N321   N     0.82317   0.29872   0.47938   0.00000  Uiso   1.00
N322   N     0.39812   0.97030   0.42078   0.00000  Uiso   1.00
C323   C     0.37872   0.83032   0.78735   0.00000  Uiso   1.00
C324   C     0.42968   0.75753   0.76469   0.00000  Uiso   1.00
C325   C     0.43605   0.73058   0.70265   0.00000  Uiso   1.00
C326   C     0.48577   0.66288   0.69164   0.00000  Uiso   1.00
C327   C     0.55850   0.55581   0.64896   0.00000  Uiso   1.00
C328   C     0.32104   0.79667   0.83786   0.00000  Uiso   1.00
C329   C     0.23607   0.80264   0.83734   0.00000  Uiso   1.00
C330   C     0.19435   0.76789   0.88793   0.00000  Uiso   1.00
C331   C     0.09841   0.72165   0.95886   0.00000  Uiso   1.00
C332   C     0.43819   0.88718   0.82170   0.00000  Uiso   1.00
C333   C     0.45172   0.96926   0.80761   0.00000  Uiso   1.00
C334   C     0.50861   0.01071   0.84460   0.00000  Uiso   1.00
C335   C     0.59458   0.10499   0.89045   0.00000  Uiso   1.00
C336   C     0.45569   0.75799   0.87812   0.00000  Uiso   1.00
C337   C     0.47148   0.71825   0.81400   0.00000  Uiso   1.00
C338   C     0.52121   0.65056   0.80307   0.00000  Uiso   1.00
C339   C     0.52766   0.62352   0.74102   0.00000  Uiso   1.00
C340   C     0.36284   0.75739   0.88716   0.00000  Uiso   1.00
C341   C     0.32123   0.72262   0.93776   0.00000  Uiso   1.00
C342   C     0.23623   0.72854   0.93731   0.00000  Uiso   1.00
C343   C     0.48000   0.84789   0.87100   0.00000  Uiso   1.00
C344   C     0.53688   0.88923   0.90803   0.00000  Uiso   1.00
C345   C     0.55049   0.97136   0.89399   0.00000  Uiso   1.00
H346   H     0.34617   0.86090   0.74898   0.00000  Uiso   1.00
H347   H     0.40368   0.76100   0.66452   0.00000  Uiso   1.00
H348   H     0.20374   0.83305   0.79919   0.00000  Uiso   1.00
H349   H     0.41935   0.99964   0.76946   0.00000  Uiso   1.00
H350   H     0.48585   0.63290   0.59262   0.00000  Uiso   1.00
H351   H     0.06427   0.78486   0.87660   0.00000  Uiso   1.00
H352   H     0.51893   0.13613   0.81391   0.00000  Uiso   1.00
H353   H     0.48824   0.72740   0.91650   0.00000  Uiso   1.00
H354   H     0.55355   0.62018   0.84123   0.00000  Uiso   1.00
H355   H     0.35361   0.69223   0.97590   0.00000  Uiso   1.00
H356   H     0.56922   0.85881   0.94617   0.00000  Uiso   1.00
H357   H     0.60749   0.51860   0.73605   0.00000  Uiso   1.00
H358   H     0.18590   0.67056   0.02002   0.00000  Uiso   1.00
H359   H     0.64057   0.02183   0.95733   0.00000  Uiso   1.00
O360   O     0.58705   0.50760   0.61180   0.00000  Uiso   1.00
O361   O     0.03395   0.70698   0.98437   0.00000  Uiso   1.00
O362   O     0.63045   0.16784   0.90212   0.00000  Uiso   1.00
N363   N     0.50553   0.62072   0.63670   0.00000  Uiso   1.00
N364   N     0.11137   0.76278   0.90220   0.00000  Uiso   1.00
N365   N     0.53643   0.09120   0.84360   0.00000  Uiso   1.00
N366   N     0.57099   0.55922   0.71388   0.00000  Uiso   1.00
N367   N     0.17683   0.70128   0.97938   0.00000  Uiso   1.00
N368   N     0.60188   0.02970   0.92078   0.00000  Uiso   1.00
