data_job_01971
_audit_creation_date              2018-12-19
_audit_creation_method            'Materials Studio'
_symmetry_space_group_name_H-M    'P1'
_symmetry_Int_Tables_number       1
_symmetry_cell_setting            triclinic
loop_
_symmetry_equiv_pos_as_xyz
  x,y,z
_cell_length_a                    20.1233
_cell_length_b                    9.7877
_cell_length_c                    11.9681
_cell_angle_alpha                 90.0000
_cell_angle_beta                  90.0000
_cell_angle_gamma                 90.0000
loop_
_atom_site_label
_atom_site_type_symbol
_atom_site_fract_x
_atom_site_fract_y
_atom_site_fract_z
_atom_site_U_iso_or_equiv
_atom_site_adp_type
_atom_site_occupancy
C1     C     0.74822   0.16354   0.19559   0.00000  Uiso   1.00
C2     C     0.78648   0.05891   0.12649   0.00000  Uiso   1.00
C3     C     0.78193   0.91804   0.13716   0.00000  Uiso   1.00
C4     C     0.82103   0.83987   0.06612   0.00000  Uiso   1.00
C5     C     0.87407   0.66818   0.97086   0.00000  Uiso   1.00
C6     C     0.80044   0.25573   0.24888   0.00000  Uiso   1.00
C7     C     0.80761   0.28036   0.36244   0.00000  Uiso   1.00
C8     C     0.85847   0.36789   0.39441   0.00000  Uiso   1.00
C9     C     0.93314   0.50185   0.48915   0.00000  Uiso   1.00
C10    C     0.71088   0.25252   0.11194   0.00000  Uiso   1.00
C11    C     0.64275   0.27447   0.11038   0.00000  Uiso   1.00
C12    C     0.61820   0.35933   0.02707   0.00000  Uiso   1.00
C13    C     0.55381   0.48829   0.90920   0.00000  Uiso   1.00
C14    C     0.82576   0.27523   0.05045   0.00000  Uiso   1.00
C15    C     0.82860   0.11958   0.04766   0.00000  Uiso   1.00
C16    C     0.86773   0.04161   0.97658   0.00000  Uiso   1.00
C17    C     0.86323   0.90064   0.98714   0.00000  Uiso   1.00
C18    C     0.84256   0.31640   0.17005   0.00000  Uiso   1.00
C19    C     0.89341   0.40393   0.20186   0.00000  Uiso   1.00
C20    C     0.90067   0.42867   0.31544   0.00000  Uiso   1.00
C21    C     0.75300   0.31318   0.03310   0.00000  Uiso   1.00
C22    C     0.72855   0.39803   0.94979   0.00000  Uiso   1.00
C23    C     0.66040   0.42010   0.94810   0.00000  Uiso   1.00
H24    H     0.71543   0.11631   0.25697   0.00000  Uiso   1.00
H25    H     0.74933   0.87113   0.19819   0.00000  Uiso   1.00
H26    H     0.77501   0.23341   0.42342   0.00000  Uiso   1.00
H27    H     0.61017   0.22751   0.17139   0.00000  Uiso   1.00
H28    H     0.80551   0.62604   0.09828   0.00000  Uiso   1.00
H29    H     0.85964   0.38996   0.57320   0.00000  Uiso   1.00
H30    H     0.51205   0.37753   0.04175   0.00000  Uiso   1.00
H31    H     0.85856   0.32247   0.98907   0.00000  Uiso   1.00
H32    H     0.90032   0.08858   0.91559   0.00000  Uiso   1.00
H33    H     0.92600   0.45086   0.14083   0.00000  Uiso   1.00
H34    H     0.76116   0.44496   0.88880   0.00000  Uiso   1.00
H35    H     0.92806   0.80254   0.86891   0.00000  Uiso   1.00
H36    H     0.98219   0.56647   0.34384   0.00000  Uiso   1.00
H37    H     0.63460   0.55403   0.81239   0.00000  Uiso   1.00
O38    O     0.89169   0.55672   0.94011   0.00000  Uiso   1.00
O39    O     0.96270   0.55897   0.56319   0.00000  Uiso   1.00
O40    O     0.50666   0.54265   0.86594   0.00000  Uiso   1.00
N41    N     0.82861   0.69968   0.05437   0.00000  Uiso   1.00
N42    N     0.87923   0.41388   0.49839   0.00000  Uiso   1.00
N43    N     0.55426   0.40229   0.00155   0.00000  Uiso   1.00
N44    N     0.89455   0.79465   0.93095   0.00000  Uiso   1.00
N45    N     0.94517   0.50885   0.37497   0.00000  Uiso   1.00
N46    N     0.62020   0.49726   0.87813   0.00000  Uiso   1.00
C47    C     0.25178   0.83646   0.69559   0.00000  Uiso   1.00
C48    C     0.21352   0.94109   0.62649   0.00000  Uiso   1.00
C49    C     0.21807   0.08196   0.63716   0.00000  Uiso   1.00
C50    C     0.17897   0.16013   0.56612   0.00000  Uiso   1.00
C51    C     0.12593   0.33182   0.47086   0.00000  Uiso   1.00
C52    C     0.19956   0.74427   0.74888   0.00000  Uiso   1.00
C53    C     0.19239   0.71964   0.86244   0.00000  Uiso   1.00
C54    C     0.14153   0.63211   0.89441   0.00000  Uiso   1.00
C55    C     0.06686   0.49815   0.98915   0.00000  Uiso   1.00
C56    C     0.28912   0.74748   0.61194   0.00000  Uiso   1.00
C57    C     0.35725   0.72553   0.61038   0.00000  Uiso   1.00
C58    C     0.38180   0.64067   0.52707   0.00000  Uiso   1.00
C59    C     0.44619   0.51171   0.40920   0.00000  Uiso   1.00
C60    C     0.17424   0.72477   0.55045   0.00000  Uiso   1.00
C61    C     0.17140   0.88042   0.54766   0.00000  Uiso   1.00
C62    C     0.13227   0.95839   0.47658   0.00000  Uiso   1.00
C63    C     0.13677   0.09936   0.48714   0.00000  Uiso   1.00
C64    C     0.15744   0.68360   0.67005   0.00000  Uiso   1.00
C65    C     0.10659   0.59607   0.70186   0.00000  Uiso   1.00
C66    C     0.09933   0.57133   0.81544   0.00000  Uiso   1.00
C67    C     0.24700   0.68682   0.53310   0.00000  Uiso   1.00
C68    C     0.27145   0.60197   0.44979   0.00000  Uiso   1.00
C69    C     0.33960   0.57990   0.44810   0.00000  Uiso   1.00
H70    H     0.28457   0.88369   0.75697   0.00000  Uiso   1.00
H71    H     0.25067   0.12887   0.69819   0.00000  Uiso   1.00
H72    H     0.22499   0.76659   0.92342   0.00000  Uiso   1.00
H73    H     0.38983   0.77249   0.67139   0.00000  Uiso   1.00
H74    H     0.19449   0.37396   0.59828   0.00000  Uiso   1.00
H75    H     0.14036   0.61004   0.07320   0.00000  Uiso   1.00
H76    H     0.48795   0.62247   0.54175   0.00000  Uiso   1.00
H77    H     0.14144   0.67753   0.48907   0.00000  Uiso   1.00
H78    H     0.09968   0.91142   0.41559   0.00000  Uiso   1.00
H79    H     0.07400   0.54914   0.64083   0.00000  Uiso   1.00
H80    H     0.23884   0.55504   0.38880   0.00000  Uiso   1.00
H81    H     0.07194   0.19746   0.36891   0.00000  Uiso   1.00
H82    H     0.01781   0.43353   0.84384   0.00000  Uiso   1.00
H83    H     0.36540   0.44597   0.31239   0.00000  Uiso   1.00
O84    O     0.10831   0.44328   0.44011   0.00000  Uiso   1.00
O85    O     0.03730   0.44103   0.06319   0.00000  Uiso   1.00
O86    O     0.49334   0.45735   0.36594   0.00000  Uiso   1.00
N87    N     0.17139   0.30032   0.55437   0.00000  Uiso   1.00
N88    N     0.12077   0.58612   0.99839   0.00000  Uiso   1.00
N89    N     0.44574   0.59771   0.50155   0.00000  Uiso   1.00
N90    N     0.10545   0.20535   0.43095   0.00000  Uiso   1.00
N91    N     0.05483   0.49115   0.87497   0.00000  Uiso   1.00
N92    N     0.37980   0.50274   0.37813   0.00000  Uiso   1.00
C93    C     0.24822   0.33646   0.19559   0.00000  Uiso   1.00
C94    C     0.28648   0.44109   0.12649   0.00000  Uiso   1.00
C95    C     0.28193   0.58196   0.13716   0.00000  Uiso   1.00
C96    C     0.32103   0.66013   0.06612   0.00000  Uiso   1.00
C97    C     0.37407   0.83182   0.97086   0.00000  Uiso   1.00
C98    C     0.30044   0.24427   0.24888   0.00000  Uiso   1.00
C99    C     0.30761   0.21964   0.36244   0.00000  Uiso   1.00
C100   C     0.35847   0.13211   0.39441   0.00000  Uiso   1.00
C101   C     0.43314   0.99815   0.48915   0.00000  Uiso   1.00
C102   C     0.21088   0.24748   0.11194   0.00000  Uiso   1.00
C103   C     0.14275   0.22553   0.11038   0.00000  Uiso   1.00
C104   C     0.11820   0.14067   0.02707   0.00000  Uiso   1.00
C105   C     0.05381   0.01171   0.90920   0.00000  Uiso   1.00
C106   C     0.32576   0.22477   0.05045   0.00000  Uiso   1.00
C107   C     0.32860   0.38042   0.04766   0.00000  Uiso   1.00
C108   C     0.36773   0.45839   0.97658   0.00000  Uiso   1.00
C109   C     0.36323   0.59936   0.98714   0.00000  Uiso   1.00
C110   C     0.34256   0.18360   0.17005   0.00000  Uiso   1.00
C111   C     0.39341   0.09607   0.20186   0.00000  Uiso   1.00
C112   C     0.40067   0.07133   0.31544   0.00000  Uiso   1.00
C113   C     0.25300   0.18682   0.03310   0.00000  Uiso   1.00
C114   C     0.22855   0.10197   0.94979   0.00000  Uiso   1.00
C115   C     0.16040   0.07990   0.94810   0.00000  Uiso   1.00
H116   H     0.21543   0.38369   0.25697   0.00000  Uiso   1.00
H117   H     0.24933   0.62887   0.19819   0.00000  Uiso   1.00
H118   H     0.27501   0.26659   0.42342   0.00000  Uiso   1.00
H119   H     0.11017   0.27249   0.17139   0.00000  Uiso   1.00
H120   H     0.30551   0.87396   0.09828   0.00000  Uiso   1.00
H121   H     0.35964   0.11004   0.57320   0.00000  Uiso   1.00
H122   H     0.01205   0.12247   0.04175   0.00000  Uiso   1.00
H123   H     0.35856   0.17753   0.98907   0.00000  Uiso   1.00
H124   H     0.40032   0.41142   0.91559   0.00000  Uiso   1.00
H125   H     0.42600   0.04914   0.14083   0.00000  Uiso   1.00
H126   H     0.26116   0.05504   0.88880   0.00000  Uiso   1.00
H127   H     0.42806   0.69746   0.86891   0.00000  Uiso   1.00
H128   H     0.48219   0.93353   0.34384   0.00000  Uiso   1.00
H129   H     0.13460   0.94597   0.81239   0.00000  Uiso   1.00
O130   O     0.39169   0.94328   0.94011   0.00000  Uiso   1.00
O131   O     0.46270   0.94103   0.56319   0.00000  Uiso   1.00
O132   O     0.00666   0.95735   0.86594   0.00000  Uiso   1.00
N133   N     0.32861   0.80032   0.05437   0.00000  Uiso   1.00
N134   N     0.37923   0.08612   0.49839   0.00000  Uiso   1.00
N135   N     0.05426   0.09771   0.00155   0.00000  Uiso   1.00
N136   N     0.39455   0.70535   0.93095   0.00000  Uiso   1.00
N137   N     0.44517   0.99115   0.37497   0.00000  Uiso   1.00
N138   N     0.12020   0.00274   0.87813   0.00000  Uiso   1.00
C139   C     0.75178   0.66354   0.69559   0.00000  Uiso   1.00
C140   C     0.71352   0.55891   0.62649   0.00000  Uiso   1.00
C141   C     0.71807   0.41804   0.63716   0.00000  Uiso   1.00
C142   C     0.67897   0.33987   0.56612   0.00000  Uiso   1.00
C143   C     0.62593   0.16818   0.47086   0.00000  Uiso   1.00
C144   C     0.69956   0.75573   0.74888   0.00000  Uiso   1.00
C145   C     0.69239   0.78036   0.86244   0.00000  Uiso   1.00
C146   C     0.64153   0.86789   0.89441   0.00000  Uiso   1.00
C147   C     0.56686   0.00185   0.98915   0.00000  Uiso   1.00
C148   C     0.78912   0.75252   0.61194   0.00000  Uiso   1.00
C149   C     0.85725   0.77447   0.61038   0.00000  Uiso   1.00
C150   C     0.88180   0.85933   0.52707   0.00000  Uiso   1.00
C151   C     0.94619   0.98829   0.40920   0.00000  Uiso   1.00
C152   C     0.67424   0.77523   0.55045   0.00000  Uiso   1.00
C153   C     0.67140   0.61958   0.54766   0.00000  Uiso   1.00
C154   C     0.63227   0.54161   0.47658   0.00000  Uiso   1.00
C155   C     0.63677   0.40064   0.48714   0.00000  Uiso   1.00
C156   C     0.65744   0.81640   0.67005   0.00000  Uiso   1.00
C157   C     0.60659   0.90393   0.70186   0.00000  Uiso   1.00
C158   C     0.59933   0.92867   0.81544   0.00000  Uiso   1.00
C159   C     0.74700   0.81318   0.53310   0.00000  Uiso   1.00
C160   C     0.77145   0.89803   0.44979   0.00000  Uiso   1.00
C161   C     0.83960   0.92010   0.44810   0.00000  Uiso   1.00
H162   H     0.78457   0.61631   0.75697   0.00000  Uiso   1.00
H163   H     0.75067   0.37113   0.69819   0.00000  Uiso   1.00
H164   H     0.72499   0.73341   0.92342   0.00000  Uiso   1.00
H165   H     0.88983   0.72751   0.67139   0.00000  Uiso   1.00
H166   H     0.69449   0.12604   0.59828   0.00000  Uiso   1.00
H167   H     0.64036   0.88996   0.07320   0.00000  Uiso   1.00
H168   H     0.98795   0.87753   0.54175   0.00000  Uiso   1.00
H169   H     0.64144   0.82247   0.48907   0.00000  Uiso   1.00
H170   H     0.59968   0.58858   0.41559   0.00000  Uiso   1.00
H171   H     0.57400   0.95086   0.64083   0.00000  Uiso   1.00
H172   H     0.73884   0.94496   0.38880   0.00000  Uiso   1.00
H173   H     0.57194   0.30254   0.36891   0.00000  Uiso   1.00
H174   H     0.51781   0.06647   0.84384   0.00000  Uiso   1.00
H175   H     0.86540   0.05403   0.31239   0.00000  Uiso   1.00
O176   O     0.60831   0.05672   0.44011   0.00000  Uiso   1.00
O177   O     0.53730   0.05897   0.06319   0.00000  Uiso   1.00
O178   O     0.99334   0.04265   0.36594   0.00000  Uiso   1.00
N179   N     0.67139   0.19968   0.55437   0.00000  Uiso   1.00
N180   N     0.62077   0.91388   0.99839   0.00000  Uiso   1.00
N181   N     0.94574   0.90229   0.50155   0.00000  Uiso   1.00
N182   N     0.60545   0.29465   0.43095   0.00000  Uiso   1.00
N183   N     0.55483   0.00885   0.87497   0.00000  Uiso   1.00
N184   N     0.87980   0.99726   0.37813   0.00000  Uiso   1.00
