data_job_02126
_audit_creation_date              2018-12-19
_audit_creation_method            'Materials Studio'
_symmetry_space_group_name_H-M    'P1'
_symmetry_Int_Tables_number       1
_symmetry_cell_setting            triclinic
loop_
_symmetry_equiv_pos_as_xyz
  x,y,z
_cell_length_a                    19.3158
_cell_length_b                    16.4066
_cell_length_c                    21.2881
_cell_angle_alpha                 90.0000
_cell_angle_beta                  49.8502
_cell_angle_gamma                 90.0000
loop_
_atom_site_label
_atom_site_type_symbol
_atom_site_fract_x
_atom_site_fract_y
_atom_site_fract_z
_atom_site_U_iso_or_equiv
_atom_site_adp_type
_atom_site_occupancy
C1     C     0.13126   0.96350   0.10130   0.00000  Uiso   1.00
C2     C     0.11781   0.05562   0.11118   0.00000  Uiso   1.00
C3     C     0.03611   0.09610   0.15090   0.00000  Uiso   1.00
C4     C     0.03799   0.18059   0.15331   0.00000  Uiso   1.00
C5     C     0.00484   0.31718   0.17408   0.00000  Uiso   1.00
C6     C     0.20275   0.94789   0.00920   0.00000  Uiso   1.00
C7     C     0.19245   0.89779   0.96318   0.00000  Uiso   1.00
C8     C     0.26584   0.89158   0.87974   0.00000  Uiso   1.00
C9     C     0.36457   0.86088   0.74220   0.00000  Uiso   1.00
C10    C     0.17508   0.94048   0.13806   0.00000  Uiso   1.00
C11    C     0.14154   0.88413   0.20038   0.00000  Uiso   1.00
C12    C     0.19164   0.87166   0.22542   0.00000  Uiso   1.00
C13    C     0.24741   0.82944   0.28796   0.00000  Uiso   1.00
C14    C     0.27989   0.04155   0.03495   0.00000  Uiso   1.00
C15    C     0.19855   0.09801   0.07513   0.00000  Uiso   1.00
C16    C     0.20055   0.18246   0.07749   0.00000  Uiso   1.00
C17    C     0.11886   0.22306   0.11721   0.00000  Uiso   1.00
C18    C     0.28347   0.99028   0.97316   0.00000  Uiso   1.00
C19    C     0.35689   0.98414   0.88977   0.00000  Uiso   1.00
C20    C     0.34671   0.93405   0.84363   0.00000  Uiso   1.00
C21    C     0.25581   0.98287   0.10202   0.00000  Uiso   1.00
C22    C     0.30598   0.97049   0.12696   0.00000  Uiso   1.00
C23    C     0.27252   0.91413   0.18931   0.00000  Uiso   1.00
H24    H     0.06841   0.93049   0.12936   0.00000  Uiso   1.00
H25    H     0.97365   0.06327   0.17878   0.00000  Uiso   1.00
H26    H     0.12997   0.86498   0.99109   0.00000  Uiso   1.00
H27    H     0.07906   0.85133   0.22825   0.00000  Uiso   1.00
H28    H     0.90419   0.22918   0.21764   0.00000  Uiso   1.00
H29    H     0.23382   0.81106   0.82190   0.00000  Uiso   1.00
H30    H     0.12647   0.78226   0.32200   0.00000  Uiso   1.00
H31    H     0.34275   0.07456   0.00689   0.00000  Uiso   1.00
H32    H     0.26304   0.21525   0.04959   0.00000  Uiso   1.00
H33    H     0.41936   0.01696   0.86190   0.00000  Uiso   1.00
H34    H     0.36845   0.00330   0.09906   0.00000  Uiso   1.00
H35    H     0.13907   0.35253   0.11279   0.00000  Uiso   1.00
H36    H     0.46870   0.93440   0.71704   0.00000  Uiso   1.00
H37    H     0.36134   0.90561   0.21714   0.00000  Uiso   1.00
O38    O     0.96425   0.38081   0.19549   0.00000  Uiso   1.00
O39    O     0.39671   0.83223   0.67629   0.00000  Uiso   1.00
O40    O     0.25586   0.79446   0.33242   0.00000  Uiso   1.00
N41    N     0.97041   0.23890   0.18712   0.00000  Uiso   1.00
N42    N     0.27859   0.84799   0.81712   0.00000  Uiso   1.00
N43    N     0.17823   0.82105   0.28466   0.00000  Uiso   1.00
N44    N     0.09679   0.30527   0.13070   0.00000  Uiso   1.00
N45    N     0.40497   0.91437   0.76070   0.00000  Uiso   1.00
N46    N     0.30462   0.88743   0.22824   0.00000  Uiso   1.00
C47    C     0.63126   0.46350   0.10130   0.00000  Uiso   1.00
C48    C     0.61781   0.55562   0.11118   0.00000  Uiso   1.00
C49    C     0.53611   0.59610   0.15090   0.00000  Uiso   1.00
C50    C     0.53799   0.68059   0.15331   0.00000  Uiso   1.00
C51    C     0.50484   0.81718   0.17408   0.00000  Uiso   1.00
C52    C     0.70275   0.44789   0.00920   0.00000  Uiso   1.00
C53    C     0.69245   0.39779   0.96318   0.00000  Uiso   1.00
C54    C     0.76584   0.39158   0.87974   0.00000  Uiso   1.00
C55    C     0.86457   0.36088   0.74220   0.00000  Uiso   1.00
C56    C     0.67508   0.44048   0.13806   0.00000  Uiso   1.00
C57    C     0.64154   0.38413   0.20038   0.00000  Uiso   1.00
C58    C     0.69164   0.37166   0.22542   0.00000  Uiso   1.00
C59    C     0.74741   0.32944   0.28796   0.00000  Uiso   1.00
C60    C     0.77989   0.54155   0.03495   0.00000  Uiso   1.00
C61    C     0.69855   0.59801   0.07513   0.00000  Uiso   1.00
C62    C     0.70055   0.68246   0.07749   0.00000  Uiso   1.00
C63    C     0.61886   0.72306   0.11721   0.00000  Uiso   1.00
C64    C     0.78347   0.49028   0.97316   0.00000  Uiso   1.00
C65    C     0.85689   0.48414   0.88977   0.00000  Uiso   1.00
C66    C     0.84671   0.43405   0.84363   0.00000  Uiso   1.00
C67    C     0.75581   0.48287   0.10202   0.00000  Uiso   1.00
C68    C     0.80598   0.47049   0.12696   0.00000  Uiso   1.00
C69    C     0.77252   0.41413   0.18931   0.00000  Uiso   1.00
H70    H     0.56841   0.43049   0.12936   0.00000  Uiso   1.00
H71    H     0.47365   0.56327   0.17878   0.00000  Uiso   1.00
H72    H     0.62997   0.36498   0.99109   0.00000  Uiso   1.00
H73    H     0.57906   0.35133   0.22825   0.00000  Uiso   1.00
H74    H     0.40419   0.72918   0.21764   0.00000  Uiso   1.00
H75    H     0.73382   0.31106   0.82190   0.00000  Uiso   1.00
H76    H     0.62647   0.28226   0.32200   0.00000  Uiso   1.00
H77    H     0.84275   0.57456   0.00689   0.00000  Uiso   1.00
H78    H     0.76304   0.71525   0.04959   0.00000  Uiso   1.00
H79    H     0.91936   0.51696   0.86190   0.00000  Uiso   1.00
H80    H     0.86845   0.50330   0.09906   0.00000  Uiso   1.00
H81    H     0.63907   0.85253   0.11279   0.00000  Uiso   1.00
H82    H     0.96870   0.43440   0.71704   0.00000  Uiso   1.00
H83    H     0.86134   0.40561   0.21714   0.00000  Uiso   1.00
O84    O     0.46425   0.88081   0.19549   0.00000  Uiso   1.00
O85    O     0.89671   0.33223   0.67629   0.00000  Uiso   1.00
O86    O     0.75586   0.29446   0.33242   0.00000  Uiso   1.00
N87    N     0.47041   0.73890   0.18712   0.00000  Uiso   1.00
N88    N     0.77859   0.34799   0.81712   0.00000  Uiso   1.00
N89    N     0.67823   0.32105   0.28466   0.00000  Uiso   1.00
N90    N     0.59679   0.80527   0.13070   0.00000  Uiso   1.00
N91    N     0.90497   0.41437   0.76070   0.00000  Uiso   1.00
N92    N     0.80462   0.38743   0.22824   0.00000  Uiso   1.00
C93    C     0.86874   0.96350   0.39870   0.00000  Uiso   1.00
C94    C     0.88219   0.05562   0.38882   0.00000  Uiso   1.00
C95    C     0.96389   0.09610   0.34910   0.00000  Uiso   1.00
C96    C     0.96201   0.18059   0.34669   0.00000  Uiso   1.00
C97    C     0.99516   0.31718   0.32592   0.00000  Uiso   1.00
C98    C     0.79725   0.94789   0.49080   0.00000  Uiso   1.00
C99    C     0.80755   0.89779   0.53682   0.00000  Uiso   1.00
C100   C     0.73416   0.89158   0.62026   0.00000  Uiso   1.00
C101   C     0.63543   0.86088   0.75780   0.00000  Uiso   1.00
C102   C     0.82492   0.94048   0.36194   0.00000  Uiso   1.00
C103   C     0.85846   0.88413   0.29962   0.00000  Uiso   1.00
C104   C     0.80836   0.87166   0.27458   0.00000  Uiso   1.00
C105   C     0.75259   0.82944   0.21204   0.00000  Uiso   1.00
C106   C     0.72011   0.04155   0.46505   0.00000  Uiso   1.00
C107   C     0.80145   0.09801   0.42487   0.00000  Uiso   1.00
C108   C     0.79945   0.18246   0.42251   0.00000  Uiso   1.00
C109   C     0.88114   0.22306   0.38279   0.00000  Uiso   1.00
C110   C     0.71653   0.99028   0.52684   0.00000  Uiso   1.00
C111   C     0.64311   0.98414   0.61023   0.00000  Uiso   1.00
C112   C     0.65329   0.93405   0.65637   0.00000  Uiso   1.00
C113   C     0.74419   0.98287   0.39798   0.00000  Uiso   1.00
C114   C     0.69402   0.97049   0.37304   0.00000  Uiso   1.00
C115   C     0.72748   0.91413   0.31069   0.00000  Uiso   1.00
H116   H     0.93159   0.93049   0.37064   0.00000  Uiso   1.00
H117   H     0.02635   0.06327   0.32122   0.00000  Uiso   1.00
H118   H     0.87003   0.86498   0.50891   0.00000  Uiso   1.00
H119   H     0.92094   0.85133   0.27175   0.00000  Uiso   1.00
H120   H     0.09581   0.22918   0.28236   0.00000  Uiso   1.00
H121   H     0.76618   0.81106   0.67810   0.00000  Uiso   1.00
H122   H     0.87353   0.78226   0.17800   0.00000  Uiso   1.00
H123   H     0.65725   0.07456   0.49311   0.00000  Uiso   1.00
H124   H     0.73696   0.21525   0.45041   0.00000  Uiso   1.00
H125   H     0.58064   0.01696   0.63810   0.00000  Uiso   1.00
H126   H     0.63155   0.00330   0.40094   0.00000  Uiso   1.00
H127   H     0.86093   0.35253   0.38721   0.00000  Uiso   1.00
H128   H     0.53130   0.93440   0.78296   0.00000  Uiso   1.00
H129   H     0.63866   0.90561   0.28286   0.00000  Uiso   1.00
O130   O     0.03575   0.38081   0.30451   0.00000  Uiso   1.00
O131   O     0.60329   0.83223   0.82371   0.00000  Uiso   1.00
O132   O     0.74414   0.79446   0.16758   0.00000  Uiso   1.00
N133   N     0.02959   0.23890   0.31288   0.00000  Uiso   1.00
N134   N     0.72141   0.84799   0.68288   0.00000  Uiso   1.00
N135   N     0.82177   0.82105   0.21534   0.00000  Uiso   1.00
N136   N     0.90321   0.30527   0.36930   0.00000  Uiso   1.00
N137   N     0.59503   0.91437   0.73930   0.00000  Uiso   1.00
N138   N     0.69538   0.88743   0.27176   0.00000  Uiso   1.00
C139   C     0.36874   0.46350   0.39870   0.00000  Uiso   1.00
C140   C     0.38219   0.55562   0.38882   0.00000  Uiso   1.00
C141   C     0.46389   0.59610   0.34910   0.00000  Uiso   1.00
C142   C     0.46201   0.68059   0.34669   0.00000  Uiso   1.00
C143   C     0.49516   0.81718   0.32592   0.00000  Uiso   1.00
C144   C     0.29725   0.44789   0.49080   0.00000  Uiso   1.00
C145   C     0.30755   0.39779   0.53682   0.00000  Uiso   1.00
C146   C     0.23416   0.39158   0.62026   0.00000  Uiso   1.00
C147   C     0.13543   0.36088   0.75780   0.00000  Uiso   1.00
C148   C     0.32492   0.44048   0.36194   0.00000  Uiso   1.00
C149   C     0.35846   0.38413   0.29962   0.00000  Uiso   1.00
C150   C     0.30836   0.37166   0.27458   0.00000  Uiso   1.00
C151   C     0.25259   0.32944   0.21204   0.00000  Uiso   1.00
C152   C     0.22011   0.54155   0.46505   0.00000  Uiso   1.00
C153   C     0.30145   0.59801   0.42487   0.00000  Uiso   1.00
C154   C     0.29945   0.68246   0.42251   0.00000  Uiso   1.00
C155   C     0.38114   0.72306   0.38279   0.00000  Uiso   1.00
C156   C     0.21653   0.49028   0.52684   0.00000  Uiso   1.00
C157   C     0.14311   0.48414   0.61023   0.00000  Uiso   1.00
C158   C     0.15329   0.43405   0.65637   0.00000  Uiso   1.00
C159   C     0.24419   0.48287   0.39798   0.00000  Uiso   1.00
C160   C     0.19402   0.47049   0.37304   0.00000  Uiso   1.00
C161   C     0.22748   0.41413   0.31069   0.00000  Uiso   1.00
H162   H     0.43159   0.43049   0.37064   0.00000  Uiso   1.00
H163   H     0.52635   0.56327   0.32122   0.00000  Uiso   1.00
H164   H     0.37003   0.36498   0.50891   0.00000  Uiso   1.00
H165   H     0.42094   0.35133   0.27175   0.00000  Uiso   1.00
H166   H     0.59581   0.72918   0.28236   0.00000  Uiso   1.00
H167   H     0.26618   0.31106   0.67810   0.00000  Uiso   1.00
H168   H     0.37353   0.28226   0.17800   0.00000  Uiso   1.00
H169   H     0.15725   0.57456   0.49311   0.00000  Uiso   1.00
H170   H     0.23696   0.71525   0.45041   0.00000  Uiso   1.00
H171   H     0.08064   0.51696   0.63810   0.00000  Uiso   1.00
H172   H     0.13155   0.50330   0.40094   0.00000  Uiso   1.00
H173   H     0.36093   0.85253   0.38721   0.00000  Uiso   1.00
H174   H     0.03130   0.43440   0.78296   0.00000  Uiso   1.00
H175   H     0.13866   0.40561   0.28286   0.00000  Uiso   1.00
O176   O     0.53575   0.88081   0.30451   0.00000  Uiso   1.00
O177   O     0.10329   0.33223   0.82371   0.00000  Uiso   1.00
O178   O     0.24414   0.29446   0.16758   0.00000  Uiso   1.00
N179   N     0.52959   0.73890   0.31288   0.00000  Uiso   1.00
N180   N     0.22141   0.34799   0.68288   0.00000  Uiso   1.00
N181   N     0.32177   0.32105   0.21534   0.00000  Uiso   1.00
N182   N     0.40321   0.80527   0.36930   0.00000  Uiso   1.00
N183   N     0.09503   0.41437   0.73930   0.00000  Uiso   1.00
N184   N     0.19538   0.38743   0.27176   0.00000  Uiso   1.00
C185   C     0.86874   0.03650   0.89870   0.00000  Uiso   1.00
C186   C     0.88219   0.94438   0.88882   0.00000  Uiso   1.00
C187   C     0.96389   0.90390   0.84910   0.00000  Uiso   1.00
C188   C     0.96201   0.81941   0.84669   0.00000  Uiso   1.00
C189   C     0.99516   0.68282   0.82592   0.00000  Uiso   1.00
C190   C     0.79725   0.05211   0.99080   0.00000  Uiso   1.00
C191   C     0.80755   0.10221   0.03682   0.00000  Uiso   1.00
C192   C     0.73416   0.10842   0.12026   0.00000  Uiso   1.00
C193   C     0.63543   0.13912   0.25780   0.00000  Uiso   1.00
C194   C     0.82492   0.05952   0.86194   0.00000  Uiso   1.00
C195   C     0.85846   0.11587   0.79962   0.00000  Uiso   1.00
C196   C     0.80836   0.12834   0.77458   0.00000  Uiso   1.00
C197   C     0.75259   0.17056   0.71204   0.00000  Uiso   1.00
C198   C     0.72011   0.95845   0.96505   0.00000  Uiso   1.00
C199   C     0.80145   0.90199   0.92487   0.00000  Uiso   1.00
C200   C     0.79945   0.81754   0.92251   0.00000  Uiso   1.00
C201   C     0.88114   0.77694   0.88279   0.00000  Uiso   1.00
C202   C     0.71653   0.00972   0.02684   0.00000  Uiso   1.00
C203   C     0.64311   0.01586   0.11023   0.00000  Uiso   1.00
C204   C     0.65329   0.06595   0.15637   0.00000  Uiso   1.00
C205   C     0.74419   0.01713   0.89798   0.00000  Uiso   1.00
C206   C     0.69402   0.02951   0.87304   0.00000  Uiso   1.00
C207   C     0.72748   0.08587   0.81069   0.00000  Uiso   1.00
H208   H     0.93159   0.06951   0.87064   0.00000  Uiso   1.00
H209   H     0.02635   0.93673   0.82122   0.00000  Uiso   1.00
H210   H     0.87003   0.13502   0.00891   0.00000  Uiso   1.00
H211   H     0.92094   0.14867   0.77175   0.00000  Uiso   1.00
H212   H     0.09581   0.77082   0.78236   0.00000  Uiso   1.00
H213   H     0.76618   0.18894   0.17810   0.00000  Uiso   1.00
H214   H     0.87353   0.21774   0.67800   0.00000  Uiso   1.00
H215   H     0.65725   0.92544   0.99311   0.00000  Uiso   1.00
H216   H     0.73696   0.78475   0.95041   0.00000  Uiso   1.00
H217   H     0.58064   0.98304   0.13810   0.00000  Uiso   1.00
H218   H     0.63155   0.99670   0.90094   0.00000  Uiso   1.00
H219   H     0.86093   0.64747   0.88721   0.00000  Uiso   1.00
H220   H     0.53130   0.06560   0.28296   0.00000  Uiso   1.00
H221   H     0.63866   0.09439   0.78286   0.00000  Uiso   1.00
O222   O     0.03575   0.61919   0.80451   0.00000  Uiso   1.00
O223   O     0.60329   0.16777   0.32371   0.00000  Uiso   1.00
O224   O     0.74414   0.20554   0.66758   0.00000  Uiso   1.00
N225   N     0.02959   0.76110   0.81288   0.00000  Uiso   1.00
N226   N     0.72141   0.15201   0.18288   0.00000  Uiso   1.00
N227   N     0.82177   0.17895   0.71534   0.00000  Uiso   1.00
N228   N     0.90321   0.69473   0.86930   0.00000  Uiso   1.00
N229   N     0.59503   0.08563   0.23930   0.00000  Uiso   1.00
N230   N     0.69538   0.11257   0.77176   0.00000  Uiso   1.00
C231   C     0.36874   0.53650   0.89870   0.00000  Uiso   1.00
C232   C     0.38219   0.44438   0.88882   0.00000  Uiso   1.00
C233   C     0.46389   0.40390   0.84910   0.00000  Uiso   1.00
C234   C     0.46201   0.31941   0.84669   0.00000  Uiso   1.00
C235   C     0.49516   0.18282   0.82592   0.00000  Uiso   1.00
C236   C     0.29725   0.55211   0.99080   0.00000  Uiso   1.00
C237   C     0.30755   0.60221   0.03682   0.00000  Uiso   1.00
C238   C     0.23416   0.60842   0.12026   0.00000  Uiso   1.00
C239   C     0.13543   0.63912   0.25780   0.00000  Uiso   1.00
C240   C     0.32492   0.55952   0.86194   0.00000  Uiso   1.00
C241   C     0.35846   0.61587   0.79962   0.00000  Uiso   1.00
C242   C     0.30836   0.62834   0.77458   0.00000  Uiso   1.00
C243   C     0.25259   0.67056   0.71204   0.00000  Uiso   1.00
C244   C     0.22011   0.45845   0.96505   0.00000  Uiso   1.00
C245   C     0.30145   0.40199   0.92487   0.00000  Uiso   1.00
C246   C     0.29945   0.31754   0.92251   0.00000  Uiso   1.00
C247   C     0.38114   0.27694   0.88279   0.00000  Uiso   1.00
C248   C     0.21653   0.50972   0.02684   0.00000  Uiso   1.00
C249   C     0.14311   0.51586   0.11023   0.00000  Uiso   1.00
C250   C     0.15329   0.56595   0.15637   0.00000  Uiso   1.00
C251   C     0.24419   0.51713   0.89798   0.00000  Uiso   1.00
C252   C     0.19402   0.52951   0.87304   0.00000  Uiso   1.00
C253   C     0.22748   0.58587   0.81069   0.00000  Uiso   1.00
H254   H     0.43159   0.56951   0.87064   0.00000  Uiso   1.00
H255   H     0.52635   0.43673   0.82122   0.00000  Uiso   1.00
H256   H     0.37003   0.63502   0.00891   0.00000  Uiso   1.00
H257   H     0.42094   0.64867   0.77175   0.00000  Uiso   1.00
H258   H     0.59581   0.27082   0.78236   0.00000  Uiso   1.00
H259   H     0.26618   0.68894   0.17810   0.00000  Uiso   1.00
H260   H     0.37353   0.71774   0.67800   0.00000  Uiso   1.00
H261   H     0.15725   0.42544   0.99311   0.00000  Uiso   1.00
H262   H     0.23696   0.28475   0.95041   0.00000  Uiso   1.00
H263   H     0.08064   0.48304   0.13810   0.00000  Uiso   1.00
H264   H     0.13155   0.49670   0.90094   0.00000  Uiso   1.00
H265   H     0.36093   0.14747   0.88721   0.00000  Uiso   1.00
H266   H     0.03130   0.56560   0.28296   0.00000  Uiso   1.00
H267   H     0.13866   0.59439   0.78286   0.00000  Uiso   1.00
O268   O     0.53575   0.11919   0.80451   0.00000  Uiso   1.00
O269   O     0.10329   0.66777   0.32371   0.00000  Uiso   1.00
O270   O     0.24414   0.70554   0.66758   0.00000  Uiso   1.00
N271   N     0.52959   0.26110   0.81288   0.00000  Uiso   1.00
N272   N     0.22141   0.65201   0.18288   0.00000  Uiso   1.00
N273   N     0.32177   0.67895   0.71534   0.00000  Uiso   1.00
N274   N     0.40321   0.19473   0.86930   0.00000  Uiso   1.00
N275   N     0.09503   0.58563   0.23930   0.00000  Uiso   1.00
N276   N     0.19538   0.61257   0.77176   0.00000  Uiso   1.00
C277   C     0.13126   0.03650   0.60130   0.00000  Uiso   1.00
C278   C     0.11781   0.94438   0.61118   0.00000  Uiso   1.00
C279   C     0.03611   0.90390   0.65090   0.00000  Uiso   1.00
C280   C     0.03799   0.81941   0.65331   0.00000  Uiso   1.00
C281   C     0.00484   0.68282   0.67408   0.00000  Uiso   1.00
C282   C     0.20275   0.05211   0.50920   0.00000  Uiso   1.00
C283   C     0.19245   0.10221   0.46318   0.00000  Uiso   1.00
C284   C     0.26584   0.10842   0.37974   0.00000  Uiso   1.00
C285   C     0.36457   0.13912   0.24220   0.00000  Uiso   1.00
C286   C     0.17508   0.05952   0.63806   0.00000  Uiso   1.00
C287   C     0.14154   0.11587   0.70038   0.00000  Uiso   1.00
C288   C     0.19164   0.12834   0.72542   0.00000  Uiso   1.00
C289   C     0.24741   0.17056   0.78796   0.00000  Uiso   1.00
C290   C     0.27989   0.95845   0.53495   0.00000  Uiso   1.00
C291   C     0.19855   0.90199   0.57513   0.00000  Uiso   1.00
C292   C     0.20055   0.81754   0.57749   0.00000  Uiso   1.00
C293   C     0.11886   0.77694   0.61721   0.00000  Uiso   1.00
C294   C     0.28347   0.00972   0.47316   0.00000  Uiso   1.00
C295   C     0.35689   0.01586   0.38977   0.00000  Uiso   1.00
C296   C     0.34671   0.06595   0.34363   0.00000  Uiso   1.00
C297   C     0.25581   0.01713   0.60202   0.00000  Uiso   1.00
C298   C     0.30598   0.02951   0.62696   0.00000  Uiso   1.00
C299   C     0.27252   0.08587   0.68931   0.00000  Uiso   1.00
H300   H     0.06841   0.06951   0.62936   0.00000  Uiso   1.00
H301   H     0.97365   0.93673   0.67878   0.00000  Uiso   1.00
H302   H     0.12997   0.13502   0.49109   0.00000  Uiso   1.00
H303   H     0.07906   0.14867   0.72825   0.00000  Uiso   1.00
H304   H     0.90419   0.77082   0.71764   0.00000  Uiso   1.00
H305   H     0.23382   0.18894   0.32190   0.00000  Uiso   1.00
H306   H     0.12647   0.21774   0.82200   0.00000  Uiso   1.00
H307   H     0.34275   0.92544   0.50689   0.00000  Uiso   1.00
H308   H     0.26304   0.78475   0.54959   0.00000  Uiso   1.00
H309   H     0.41936   0.98304   0.36190   0.00000  Uiso   1.00
H310   H     0.36845   0.99670   0.59906   0.00000  Uiso   1.00
H311   H     0.13907   0.64747   0.61279   0.00000  Uiso   1.00
H312   H     0.46870   0.06560   0.21704   0.00000  Uiso   1.00
H313   H     0.36134   0.09439   0.71714   0.00000  Uiso   1.00
O314   O     0.96425   0.61919   0.69549   0.00000  Uiso   1.00
O315   O     0.39671   0.16777   0.17629   0.00000  Uiso   1.00
O316   O     0.25586   0.20554   0.83242   0.00000  Uiso   1.00
N317   N     0.97041   0.76110   0.68712   0.00000  Uiso   1.00
N318   N     0.27859   0.15201   0.31712   0.00000  Uiso   1.00
N319   N     0.17823   0.17895   0.78466   0.00000  Uiso   1.00
N320   N     0.09679   0.69473   0.63070   0.00000  Uiso   1.00
N321   N     0.40497   0.08563   0.26070   0.00000  Uiso   1.00
N322   N     0.30462   0.11257   0.72824   0.00000  Uiso   1.00
C323   C     0.63126   0.53650   0.60130   0.00000  Uiso   1.00
C324   C     0.61781   0.44438   0.61118   0.00000  Uiso   1.00
C325   C     0.53611   0.40390   0.65090   0.00000  Uiso   1.00
C326   C     0.53799   0.31941   0.65331   0.00000  Uiso   1.00
C327   C     0.50484   0.18282   0.67408   0.00000  Uiso   1.00
C328   C     0.70275   0.55211   0.50920   0.00000  Uiso   1.00
C329   C     0.69245   0.60221   0.46318   0.00000  Uiso   1.00
C330   C     0.76584   0.60842   0.37974   0.00000  Uiso   1.00
C331   C     0.86457   0.63912   0.24220   0.00000  Uiso   1.00
C332   C     0.67508   0.55952   0.63806   0.00000  Uiso   1.00
C333   C     0.64154   0.61587   0.70038   0.00000  Uiso   1.00
C334   C     0.69164   0.62834   0.72542   0.00000  Uiso   1.00
C335   C     0.74741   0.67056   0.78796   0.00000  Uiso   1.00
C336   C     0.77989   0.45845   0.53495   0.00000  Uiso   1.00
C337   C     0.69855   0.40199   0.57513   0.00000  Uiso   1.00
C338   C     0.70055   0.31754   0.57749   0.00000  Uiso   1.00
C339   C     0.61886   0.27694   0.61721   0.00000  Uiso   1.00
C340   C     0.78347   0.50972   0.47316   0.00000  Uiso   1.00
C341   C     0.85689   0.51586   0.38977   0.00000  Uiso   1.00
C342   C     0.84671   0.56595   0.34363   0.00000  Uiso   1.00
C343   C     0.75581   0.51713   0.60202   0.00000  Uiso   1.00
C344   C     0.80598   0.52951   0.62696   0.00000  Uiso   1.00
C345   C     0.77252   0.58587   0.68931   0.00000  Uiso   1.00
H346   H     0.56841   0.56951   0.62936   0.00000  Uiso   1.00
H347   H     0.47365   0.43673   0.67878   0.00000  Uiso   1.00
H348   H     0.62997   0.63502   0.49109   0.00000  Uiso   1.00
H349   H     0.57906   0.64867   0.72825   0.00000  Uiso   1.00
H350   H     0.40419   0.27082   0.71764   0.00000  Uiso   1.00
H351   H     0.73382   0.68894   0.32190   0.00000  Uiso   1.00
H352   H     0.62647   0.71774   0.82200   0.00000  Uiso   1.00
H353   H     0.84275   0.42544   0.50689   0.00000  Uiso   1.00
H354   H     0.76304   0.28475   0.54959   0.00000  Uiso   1.00
H355   H     0.91936   0.48304   0.36190   0.00000  Uiso   1.00
H356   H     0.86845   0.49670   0.59906   0.00000  Uiso   1.00
H357   H     0.63907   0.14747   0.61279   0.00000  Uiso   1.00
H358   H     0.96870   0.56560   0.21704   0.00000  Uiso   1.00
H359   H     0.86134   0.59439   0.71714   0.00000  Uiso   1.00
O360   O     0.46425   0.11919   0.69549   0.00000  Uiso   1.00
O361   O     0.89671   0.66777   0.17629   0.00000  Uiso   1.00
O362   O     0.75586   0.70554   0.83242   0.00000  Uiso   1.00
N363   N     0.47041   0.26110   0.68712   0.00000  Uiso   1.00
N364   N     0.77859   0.65201   0.31712   0.00000  Uiso   1.00
N365   N     0.67823   0.67895   0.78466   0.00000  Uiso   1.00
N366   N     0.59679   0.19473   0.63070   0.00000  Uiso   1.00
N367   N     0.90497   0.58563   0.26070   0.00000  Uiso   1.00
N368   N     0.80462   0.61257   0.72824   0.00000  Uiso   1.00
