data_job_05352
_audit_creation_date              2018-12-19
_audit_creation_method            'Materials Studio'
_symmetry_space_group_name_H-M    'P1'
_symmetry_Int_Tables_number       1
_symmetry_cell_setting            triclinic
loop_
_symmetry_equiv_pos_as_xyz
  x,y,z
_cell_length_a                    26.7554
_cell_length_b                    7.5141
_cell_length_c                    12.6488
_cell_angle_alpha                 90.0000
_cell_angle_beta                  89.0218
_cell_angle_gamma                 90.0000
loop_
_atom_site_label
_atom_site_type_symbol
_atom_site_fract_x
_atom_site_fract_y
_atom_site_fract_z
_atom_site_U_iso_or_equiv
_atom_site_adp_type
_atom_site_occupancy
C1     C     0.59845   0.28010   0.63926   0.00000  Uiso   1.00
C2     C     0.63727   0.34526   0.55851   0.00000  Uiso   1.00
C3     C     0.65215   0.25588   0.46727   0.00000  Uiso   1.00
C4     C     0.68817   0.33774   0.40368   0.00000  Uiso   1.00
C5     C     0.74537   0.41373   0.27425   0.00000  Uiso   1.00
C6     C     0.62465   0.27702   0.74536   0.00000  Uiso   1.00
C7     C     0.62891   0.13026   0.81122   0.00000  Uiso   1.00
C8     C     0.65430   0.15469   0.90493   0.00000  Uiso   1.00
C9     C     0.69188   0.12476   0.06563   0.00000  Uiso   1.00
C10    C     0.55914   0.42658   0.64771   0.00000  Uiso   1.00
C11    C     0.50831   0.40557   0.63149   0.00000  Uiso   1.00
C12    C     0.47854   0.55592   0.64300   0.00000  Uiso   1.00
C13    C     0.41440   0.75820   0.65208   0.00000  Uiso   1.00
C14    C     0.63597   0.58444   0.68859   0.00000  Uiso   1.00
C15    C     0.65765   0.51056   0.58531   0.00000  Uiso   1.00
C16    C     0.69365   0.59259   0.52184   0.00000  Uiso   1.00
C17    C     0.70858   0.50335   0.43052   0.00000  Uiso   1.00
C18    C     0.64503   0.44231   0.77216   0.00000  Uiso   1.00
C19    C     0.67042   0.46697   0.86580   0.00000  Uiso   1.00
C20    C     0.67472   0.32029   0.93178   0.00000  Uiso   1.00
C21    C     0.57951   0.59188   0.67450   0.00000  Uiso   1.00
C22    C     0.54982   0.74228   0.68606   0.00000  Uiso   1.00
C23    C     0.49895   0.72151   0.66985   0.00000  Uiso   1.00
H24    H     0.58259   0.15140   0.61840   0.00000  Uiso   1.00
H25    H     0.63637   0.12794   0.44656   0.00000  Uiso   1.00
H26    H     0.61314   0.00236   0.79047   0.00000  Uiso   1.00
H27    H     0.49255   0.27763   0.61075   0.00000  Uiso   1.00
H28    H     0.70500   0.17481   0.26788   0.00000  Uiso   1.00
H29    H     0.65599   0.91002   0.99304   0.00000  Uiso   1.00
H30    H     0.40172   0.49047   0.61408   0.00000  Uiso   1.00
H31    H     0.65183   0.71313   0.70945   0.00000  Uiso   1.00
H32    H     0.70942   0.72051   0.54260   0.00000  Uiso   1.00
H33    H     0.68618   0.59491   0.88651   0.00000  Uiso   1.00
H34    H     0.56560   0.87018   0.70680   0.00000  Uiso   1.00
H35    H     0.76429   0.65575   0.34583   0.00000  Uiso   1.00
H36    H     0.71528   0.39095   0.07100   0.00000  Uiso   1.00
H37    H     0.46101   0.97141   0.69203   0.00000  Uiso   1.00
O38    O     0.77129   0.40996   0.19547   0.00000  Uiso   1.00
O39    O     0.70698   0.06257   0.14686   0.00000  Uiso   1.00
O40    O     0.37339   0.82412   0.64967   0.00000  Uiso   1.00
N41    N     0.71105   0.28700   0.30911   0.00000  Uiso   1.00
N42    N     0.66523   0.03943   0.98709   0.00000  Uiso   1.00
N43    N     0.42751   0.58210   0.63282   0.00000  Uiso   1.00
N44    N     0.74295   0.54579   0.35106   0.00000  Uiso   1.00
N45    N     0.69713   0.29822   0.02903   0.00000  Uiso   1.00
N46    N     0.45941   0.84089   0.67477   0.00000  Uiso   1.00
C47    C     0.09845   0.78010   0.63926   0.00000  Uiso   1.00
C48    C     0.13727   0.84526   0.55851   0.00000  Uiso   1.00
C49    C     0.15215   0.75588   0.46727   0.00000  Uiso   1.00
C50    C     0.18817   0.83774   0.40368   0.00000  Uiso   1.00
C51    C     0.24537   0.91373   0.27425   0.00000  Uiso   1.00
C52    C     0.12465   0.77702   0.74536   0.00000  Uiso   1.00
C53    C     0.12891   0.63026   0.81122   0.00000  Uiso   1.00
C54    C     0.15430   0.65469   0.90493   0.00000  Uiso   1.00
C55    C     0.19188   0.62476   0.06563   0.00000  Uiso   1.00
C56    C     0.05914   0.92658   0.64771   0.00000  Uiso   1.00
C57    C     0.00831   0.90557   0.63149   0.00000  Uiso   1.00
C58    C     0.97854   0.05592   0.64300   0.00000  Uiso   1.00
C59    C     0.91440   0.25820   0.65208   0.00000  Uiso   1.00
C60    C     0.13597   0.08444   0.68859   0.00000  Uiso   1.00
C61    C     0.15765   0.01056   0.58531   0.00000  Uiso   1.00
C62    C     0.19365   0.09259   0.52184   0.00000  Uiso   1.00
C63    C     0.20858   0.00335   0.43052   0.00000  Uiso   1.00
C64    C     0.14503   0.94231   0.77216   0.00000  Uiso   1.00
C65    C     0.17042   0.96697   0.86580   0.00000  Uiso   1.00
C66    C     0.17472   0.82029   0.93178   0.00000  Uiso   1.00
C67    C     0.07951   0.09188   0.67450   0.00000  Uiso   1.00
C68    C     0.04982   0.24228   0.68606   0.00000  Uiso   1.00
C69    C     0.99895   0.22151   0.66985   0.00000  Uiso   1.00
H70    H     0.08259   0.65140   0.61840   0.00000  Uiso   1.00
H71    H     0.13637   0.62794   0.44656   0.00000  Uiso   1.00
H72    H     0.11314   0.50236   0.79047   0.00000  Uiso   1.00
H73    H     0.99255   0.77763   0.61075   0.00000  Uiso   1.00
H74    H     0.20500   0.67481   0.26788   0.00000  Uiso   1.00
H75    H     0.15599   0.41002   0.99304   0.00000  Uiso   1.00
H76    H     0.90172   0.99047   0.61408   0.00000  Uiso   1.00
H77    H     0.15183   0.21313   0.70945   0.00000  Uiso   1.00
H78    H     0.20942   0.22051   0.54260   0.00000  Uiso   1.00
H79    H     0.18618   0.09491   0.88651   0.00000  Uiso   1.00
H80    H     0.06560   0.37018   0.70680   0.00000  Uiso   1.00
H81    H     0.26429   0.15575   0.34583   0.00000  Uiso   1.00
H82    H     0.21528   0.89095   0.07100   0.00000  Uiso   1.00
H83    H     0.96101   0.47141   0.69203   0.00000  Uiso   1.00
O84    O     0.27129   0.90996   0.19547   0.00000  Uiso   1.00
O85    O     0.20698   0.56257   0.14686   0.00000  Uiso   1.00
O86    O     0.87339   0.32412   0.64967   0.00000  Uiso   1.00
N87    N     0.21105   0.78700   0.30911   0.00000  Uiso   1.00
N88    N     0.16523   0.53943   0.98709   0.00000  Uiso   1.00
N89    N     0.92751   0.08210   0.63282   0.00000  Uiso   1.00
N90    N     0.24295   0.04579   0.35106   0.00000  Uiso   1.00
N91    N     0.19713   0.79822   0.02903   0.00000  Uiso   1.00
N92    N     0.95941   0.34089   0.67477   0.00000  Uiso   1.00
C93    C     0.40155   0.28010   0.36074   0.00000  Uiso   1.00
C94    C     0.36273   0.34526   0.44149   0.00000  Uiso   1.00
C95    C     0.34785   0.25588   0.53273   0.00000  Uiso   1.00
C96    C     0.31183   0.33774   0.59632   0.00000  Uiso   1.00
C97    C     0.25463   0.41373   0.72575   0.00000  Uiso   1.00
C98    C     0.37535   0.27702   0.25464   0.00000  Uiso   1.00
C99    C     0.37109   0.13026   0.18878   0.00000  Uiso   1.00
C100   C     0.34570   0.15469   0.09507   0.00000  Uiso   1.00
C101   C     0.30812   0.12476   0.93437   0.00000  Uiso   1.00
C102   C     0.44086   0.42658   0.35229   0.00000  Uiso   1.00
C103   C     0.49169   0.40557   0.36851   0.00000  Uiso   1.00
C104   C     0.52146   0.55592   0.35700   0.00000  Uiso   1.00
C105   C     0.58560   0.75820   0.34792   0.00000  Uiso   1.00
C106   C     0.36403   0.58444   0.31141   0.00000  Uiso   1.00
C107   C     0.34235   0.51056   0.41469   0.00000  Uiso   1.00
C108   C     0.30635   0.59259   0.47816   0.00000  Uiso   1.00
C109   C     0.29142   0.50335   0.56948   0.00000  Uiso   1.00
C110   C     0.35497   0.44231   0.22784   0.00000  Uiso   1.00
C111   C     0.32958   0.46697   0.13420   0.00000  Uiso   1.00
C112   C     0.32528   0.32029   0.06822   0.00000  Uiso   1.00
C113   C     0.42049   0.59188   0.32550   0.00000  Uiso   1.00
C114   C     0.45018   0.74228   0.31394   0.00000  Uiso   1.00
C115   C     0.50105   0.72151   0.33015   0.00000  Uiso   1.00
H116   H     0.41741   0.15140   0.38160   0.00000  Uiso   1.00
H117   H     0.36363   0.12794   0.55344   0.00000  Uiso   1.00
H118   H     0.38686   0.00236   0.20953   0.00000  Uiso   1.00
H119   H     0.50745   0.27763   0.38925   0.00000  Uiso   1.00
H120   H     0.29500   0.17481   0.73212   0.00000  Uiso   1.00
H121   H     0.34401   0.91002   0.00696   0.00000  Uiso   1.00
H122   H     0.59828   0.49047   0.38592   0.00000  Uiso   1.00
H123   H     0.34817   0.71313   0.29055   0.00000  Uiso   1.00
H124   H     0.29058   0.72051   0.45740   0.00000  Uiso   1.00
H125   H     0.31382   0.59491   0.11349   0.00000  Uiso   1.00
H126   H     0.43440   0.87018   0.29320   0.00000  Uiso   1.00
H127   H     0.23571   0.65575   0.65417   0.00000  Uiso   1.00
H128   H     0.28472   0.39095   0.92900   0.00000  Uiso   1.00
H129   H     0.53899   0.97141   0.30797   0.00000  Uiso   1.00
O130   O     0.22871   0.40996   0.80453   0.00000  Uiso   1.00
O131   O     0.29302   0.06257   0.85314   0.00000  Uiso   1.00
O132   O     0.62661   0.82412   0.35033   0.00000  Uiso   1.00
N133   N     0.28895   0.28700   0.69089   0.00000  Uiso   1.00
N134   N     0.33477   0.03943   0.01291   0.00000  Uiso   1.00
N135   N     0.57249   0.58210   0.36718   0.00000  Uiso   1.00
N136   N     0.25705   0.54579   0.64894   0.00000  Uiso   1.00
N137   N     0.30287   0.29822   0.97097   0.00000  Uiso   1.00
N138   N     0.54059   0.84089   0.32523   0.00000  Uiso   1.00
C139   C     0.90155   0.78010   0.36074   0.00000  Uiso   1.00
C140   C     0.86273   0.84526   0.44149   0.00000  Uiso   1.00
C141   C     0.84785   0.75588   0.53273   0.00000  Uiso   1.00
C142   C     0.81183   0.83774   0.59632   0.00000  Uiso   1.00
C143   C     0.75463   0.91373   0.72575   0.00000  Uiso   1.00
C144   C     0.87535   0.77702   0.25464   0.00000  Uiso   1.00
C145   C     0.87109   0.63026   0.18878   0.00000  Uiso   1.00
C146   C     0.84570   0.65469   0.09507   0.00000  Uiso   1.00
C147   C     0.80812   0.62476   0.93437   0.00000  Uiso   1.00
C148   C     0.94086   0.92658   0.35229   0.00000  Uiso   1.00
C149   C     0.99169   0.90557   0.36851   0.00000  Uiso   1.00
C150   C     0.02146   0.05592   0.35700   0.00000  Uiso   1.00
C151   C     0.08560   0.25820   0.34792   0.00000  Uiso   1.00
C152   C     0.86403   0.08444   0.31141   0.00000  Uiso   1.00
C153   C     0.84235   0.01056   0.41469   0.00000  Uiso   1.00
C154   C     0.80635   0.09259   0.47816   0.00000  Uiso   1.00
C155   C     0.79142   0.00335   0.56948   0.00000  Uiso   1.00
C156   C     0.85497   0.94231   0.22784   0.00000  Uiso   1.00
C157   C     0.82958   0.96697   0.13420   0.00000  Uiso   1.00
C158   C     0.82528   0.82029   0.06822   0.00000  Uiso   1.00
C159   C     0.92049   0.09188   0.32550   0.00000  Uiso   1.00
C160   C     0.95018   0.24228   0.31394   0.00000  Uiso   1.00
C161   C     0.00105   0.22151   0.33015   0.00000  Uiso   1.00
H162   H     0.91741   0.65140   0.38160   0.00000  Uiso   1.00
H163   H     0.86363   0.62794   0.55344   0.00000  Uiso   1.00
H164   H     0.88686   0.50236   0.20953   0.00000  Uiso   1.00
H165   H     0.00745   0.77763   0.38925   0.00000  Uiso   1.00
H166   H     0.79500   0.67481   0.73212   0.00000  Uiso   1.00
H167   H     0.84401   0.41002   0.00696   0.00000  Uiso   1.00
H168   H     0.09828   0.99047   0.38592   0.00000  Uiso   1.00
H169   H     0.84817   0.21313   0.29055   0.00000  Uiso   1.00
H170   H     0.79058   0.22051   0.45740   0.00000  Uiso   1.00
H171   H     0.81382   0.09491   0.11349   0.00000  Uiso   1.00
H172   H     0.93440   0.37018   0.29320   0.00000  Uiso   1.00
H173   H     0.73571   0.15575   0.65417   0.00000  Uiso   1.00
H174   H     0.78472   0.89095   0.92900   0.00000  Uiso   1.00
H175   H     0.03899   0.47141   0.30797   0.00000  Uiso   1.00
O176   O     0.72871   0.90996   0.80453   0.00000  Uiso   1.00
O177   O     0.79302   0.56257   0.85314   0.00000  Uiso   1.00
O178   O     0.12661   0.32412   0.35033   0.00000  Uiso   1.00
N179   N     0.78895   0.78700   0.69089   0.00000  Uiso   1.00
N180   N     0.83477   0.53943   0.01291   0.00000  Uiso   1.00
N181   N     0.07249   0.08210   0.36718   0.00000  Uiso   1.00
N182   N     0.75705   0.04579   0.64894   0.00000  Uiso   1.00
N183   N     0.80287   0.79822   0.97097   0.00000  Uiso   1.00
N184   N     0.04059   0.34089   0.32523   0.00000  Uiso   1.00
