data_job_03342
_audit_creation_date              2018-12-19
_audit_creation_method            'Materials Studio'
_symmetry_space_group_name_H-M    'P1'
_symmetry_Int_Tables_number       1
_symmetry_cell_setting            triclinic
loop_
_symmetry_equiv_pos_as_xyz
  x,y,z
_cell_length_a                    22.1048
_cell_length_b                    13.7691
_cell_length_c                    20.0425
_cell_angle_alpha                 90.0000
_cell_angle_beta                  90.0000
_cell_angle_gamma                 90.0000
loop_
_atom_site_label
_atom_site_type_symbol
_atom_site_fract_x
_atom_site_fract_y
_atom_site_fract_z
_atom_site_U_iso_or_equiv
_atom_site_adp_type
_atom_site_occupancy
C1     C     0.32442   0.58895   0.98697   0.00000  Uiso   1.00
C2     C     0.35323   0.49224   0.00607   0.00000  Uiso   1.00
C3     C     0.39471   0.47805   0.05713   0.00000  Uiso   1.00
C4     C     0.41574   0.38405   0.06664   0.00000  Uiso   1.00
C5     C     0.46351   0.24560   0.10238   0.00000  Uiso   1.00
C6     C     0.33885   0.60425   0.91332   0.00000  Uiso   1.00
C7     C     0.36824   0.68423   0.88639   0.00000  Uiso   1.00
C8     C     0.37716   0.68453   0.81782   0.00000  Uiso   1.00
C9     C     0.40257   0.72000   0.70955   0.00000  Uiso   1.00
C10    C     0.25622   0.57327   0.99088   0.00000  Uiso   1.00
C11    C     0.21612   0.62722   0.02915   0.00000  Uiso   1.00
C12    C     0.15546   0.60144   0.02587   0.00000  Uiso   1.00
C13    C     0.05257   0.58882   0.03803   0.00000  Uiso   1.00
C14    C     0.28801   0.44726   0.91307   0.00000  Uiso   1.00
C15    C     0.33345   0.41528   0.96593   0.00000  Uiso   1.00
C16    C     0.35443   0.32128   0.97537   0.00000  Uiso   1.00
C17    C     0.39593   0.30694   0.02643   0.00000  Uiso   1.00
C18    C     0.31908   0.52729   0.87318   0.00000  Uiso   1.00
C19    C     0.32796   0.52747   0.80463   0.00000  Uiso   1.00
C20    C     0.35735   0.60743   0.77760   0.00000  Uiso   1.00
C21    C     0.23644   0.49630   0.95074   0.00000  Uiso   1.00
C22    C     0.17584   0.47044   0.94739   0.00000  Uiso   1.00
C23    C     0.13565   0.52434   0.98566   0.00000  Uiso   1.00
H24    H     0.33981   0.64887   0.01821   0.00000  Uiso   1.00
H25    H     0.41000   0.53763   0.08817   0.00000  Uiso   1.00
H26    H     0.38353   0.74379   0.91746   0.00000  Uiso   1.00
H27    H     0.23144   0.68677   0.06020   0.00000  Uiso   1.00
H28    H     0.47912   0.38036   0.14802   0.00000  Uiso   1.00
H29    H     0.42328   0.81507   0.78806   0.00000  Uiso   1.00
H30    H     0.10256   0.69485   0.08906   0.00000  Uiso   1.00
H31    H     0.27261   0.38734   0.88182   0.00000  Uiso   1.00
H32    H     0.33912   0.26173   0.94430   0.00000  Uiso   1.00
H33    H     0.31265   0.46790   0.77358   0.00000  Uiso   1.00
H34    H     0.16055   0.41088   0.91633   0.00000  Uiso   1.00
H35    H     0.42159   0.15643   0.03124   0.00000  Uiso   1.00
H36    H     0.36575   0.59115   0.67128   0.00000  Uiso   1.00
H37    H     0.04503   0.47093   0.97228   0.00000  Uiso   1.00
O38    O     0.49533   0.19049   0.13317   0.00000  Uiso   1.00
O39    O     0.42206   0.76083   0.66092   0.00000  Uiso   1.00
O40    O     0.00129   0.60310   0.05583   0.00000  Uiso   1.00
N41    N     0.45644   0.34489   0.11197   0.00000  Uiso   1.00
N42    N     0.40425   0.75131   0.77543   0.00000  Uiso   1.00
N43    N     0.10440   0.63894   0.05683   0.00000  Uiso   1.00
N44    N     0.42549   0.22440   0.04913   0.00000  Uiso   1.00
N45    N     0.37329   0.63082   0.71259   0.00000  Uiso   1.00
N46    N     0.07344   0.51844   0.99399   0.00000  Uiso   1.00
C47    C     0.17558   0.91105   0.98697   0.00000  Uiso   1.00
C48    C     0.14677   0.00776   0.00607   0.00000  Uiso   1.00
C49    C     0.10529   0.02195   0.05713   0.00000  Uiso   1.00
C50    C     0.08426   0.11595   0.06664   0.00000  Uiso   1.00
C51    C     0.03649   0.25440   0.10238   0.00000  Uiso   1.00
C52    C     0.16115   0.89575   0.91332   0.00000  Uiso   1.00
C53    C     0.13176   0.81577   0.88639   0.00000  Uiso   1.00
C54    C     0.12284   0.81547   0.81782   0.00000  Uiso   1.00
C55    C     0.09743   0.78000   0.70955   0.00000  Uiso   1.00
C56    C     0.24378   0.92673   0.99088   0.00000  Uiso   1.00
C57    C     0.28388   0.87278   0.02915   0.00000  Uiso   1.00
C58    C     0.34454   0.89856   0.02587   0.00000  Uiso   1.00
C59    C     0.44743   0.91118   0.03803   0.00000  Uiso   1.00
C60    C     0.21199   0.05274   0.91307   0.00000  Uiso   1.00
C61    C     0.16655   0.08472   0.96593   0.00000  Uiso   1.00
C62    C     0.14557   0.17872   0.97537   0.00000  Uiso   1.00
C63    C     0.10407   0.19306   0.02643   0.00000  Uiso   1.00
C64    C     0.18092   0.97271   0.87318   0.00000  Uiso   1.00
C65    C     0.17204   0.97253   0.80463   0.00000  Uiso   1.00
C66    C     0.14265   0.89257   0.77760   0.00000  Uiso   1.00
C67    C     0.26356   0.00370   0.95074   0.00000  Uiso   1.00
C68    C     0.32416   0.02956   0.94739   0.00000  Uiso   1.00
C69    C     0.36435   0.97566   0.98566   0.00000  Uiso   1.00
H70    H     0.16019   0.85113   0.01821   0.00000  Uiso   1.00
H71    H     0.09000   0.96237   0.08817   0.00000  Uiso   1.00
H72    H     0.11647   0.75621   0.91746   0.00000  Uiso   1.00
H73    H     0.26856   0.81323   0.06020   0.00000  Uiso   1.00
H74    H     0.02088   0.11964   0.14802   0.00000  Uiso   1.00
H75    H     0.07672   0.68493   0.78806   0.00000  Uiso   1.00
H76    H     0.39744   0.80515   0.08906   0.00000  Uiso   1.00
H77    H     0.22739   0.11266   0.88182   0.00000  Uiso   1.00
H78    H     0.16088   0.23827   0.94430   0.00000  Uiso   1.00
H79    H     0.18735   0.03210   0.77358   0.00000  Uiso   1.00
H80    H     0.33945   0.08912   0.91633   0.00000  Uiso   1.00
H81    H     0.07841   0.34357   0.03124   0.00000  Uiso   1.00
H82    H     0.13425   0.90885   0.67128   0.00000  Uiso   1.00
H83    H     0.45497   0.02907   0.97228   0.00000  Uiso   1.00
O84    O     0.00467   0.30951   0.13317   0.00000  Uiso   1.00
O85    O     0.07794   0.73917   0.66092   0.00000  Uiso   1.00
O86    O     0.49871   0.89690   0.05583   0.00000  Uiso   1.00
N87    N     0.04356   0.15511   0.11197   0.00000  Uiso   1.00
N88    N     0.09575   0.74869   0.77543   0.00000  Uiso   1.00
N89    N     0.39560   0.86106   0.05683   0.00000  Uiso   1.00
N90    N     0.07451   0.27560   0.04913   0.00000  Uiso   1.00
N91    N     0.12671   0.86918   0.71259   0.00000  Uiso   1.00
N92    N     0.42656   0.98156   0.99399   0.00000  Uiso   1.00
C93    C     0.67558   0.08895   0.51303   0.00000  Uiso   1.00
C94    C     0.64677   0.99224   0.49393   0.00000  Uiso   1.00
C95    C     0.60529   0.97805   0.44287   0.00000  Uiso   1.00
C96    C     0.58426   0.88405   0.43336   0.00000  Uiso   1.00
C97    C     0.53649   0.74560   0.39762   0.00000  Uiso   1.00
C98    C     0.66115   0.10425   0.58668   0.00000  Uiso   1.00
C99    C     0.63176   0.18423   0.61361   0.00000  Uiso   1.00
C100   C     0.62284   0.18453   0.68218   0.00000  Uiso   1.00
C101   C     0.59743   0.22000   0.79045   0.00000  Uiso   1.00
C102   C     0.74378   0.07327   0.50912   0.00000  Uiso   1.00
C103   C     0.78388   0.12722   0.47085   0.00000  Uiso   1.00
C104   C     0.84454   0.10144   0.47413   0.00000  Uiso   1.00
C105   C     0.94743   0.08882   0.46197   0.00000  Uiso   1.00
C106   C     0.71199   0.94726   0.58693   0.00000  Uiso   1.00
C107   C     0.66655   0.91528   0.53407   0.00000  Uiso   1.00
C108   C     0.64557   0.82128   0.52463   0.00000  Uiso   1.00
C109   C     0.60407   0.80694   0.47357   0.00000  Uiso   1.00
C110   C     0.68092   0.02729   0.62682   0.00000  Uiso   1.00
C111   C     0.67204   0.02747   0.69537   0.00000  Uiso   1.00
C112   C     0.64265   0.10743   0.72240   0.00000  Uiso   1.00
C113   C     0.76356   0.99630   0.54926   0.00000  Uiso   1.00
C114   C     0.82416   0.97044   0.55261   0.00000  Uiso   1.00
C115   C     0.86435   0.02434   0.51434   0.00000  Uiso   1.00
H116   H     0.66019   0.14887   0.48179   0.00000  Uiso   1.00
H117   H     0.59000   0.03763   0.41183   0.00000  Uiso   1.00
H118   H     0.61647   0.24379   0.58254   0.00000  Uiso   1.00
H119   H     0.76856   0.18677   0.43980   0.00000  Uiso   1.00
H120   H     0.52088   0.88036   0.35198   0.00000  Uiso   1.00
H121   H     0.57672   0.31507   0.71194   0.00000  Uiso   1.00
H122   H     0.89744   0.19485   0.41094   0.00000  Uiso   1.00
H123   H     0.72739   0.88734   0.61818   0.00000  Uiso   1.00
H124   H     0.66088   0.76173   0.55570   0.00000  Uiso   1.00
H125   H     0.68735   0.96790   0.72642   0.00000  Uiso   1.00
H126   H     0.83945   0.91088   0.58367   0.00000  Uiso   1.00
H127   H     0.57841   0.65643   0.46876   0.00000  Uiso   1.00
H128   H     0.63425   0.09115   0.82872   0.00000  Uiso   1.00
H129   H     0.95497   0.97093   0.52772   0.00000  Uiso   1.00
O130   O     0.50467   0.69049   0.36683   0.00000  Uiso   1.00
O131   O     0.57794   0.26083   0.83908   0.00000  Uiso   1.00
O132   O     0.99871   0.10310   0.44417   0.00000  Uiso   1.00
N133   N     0.54356   0.84489   0.38803   0.00000  Uiso   1.00
N134   N     0.59575   0.25131   0.72457   0.00000  Uiso   1.00
N135   N     0.89560   0.13894   0.44317   0.00000  Uiso   1.00
N136   N     0.57451   0.72440   0.45087   0.00000  Uiso   1.00
N137   N     0.62671   0.13082   0.78741   0.00000  Uiso   1.00
N138   N     0.92656   0.01844   0.50601   0.00000  Uiso   1.00
C139   C     0.82442   0.41105   0.51303   0.00000  Uiso   1.00
C140   C     0.85323   0.50776   0.49393   0.00000  Uiso   1.00
C141   C     0.89471   0.52195   0.44287   0.00000  Uiso   1.00
C142   C     0.91574   0.61595   0.43336   0.00000  Uiso   1.00
C143   C     0.96351   0.75440   0.39762   0.00000  Uiso   1.00
C144   C     0.83885   0.39575   0.58668   0.00000  Uiso   1.00
C145   C     0.86824   0.31577   0.61361   0.00000  Uiso   1.00
C146   C     0.87716   0.31547   0.68218   0.00000  Uiso   1.00
C147   C     0.90257   0.28000   0.79045   0.00000  Uiso   1.00
C148   C     0.75622   0.42673   0.50912   0.00000  Uiso   1.00
C149   C     0.71612   0.37278   0.47085   0.00000  Uiso   1.00
C150   C     0.65546   0.39856   0.47413   0.00000  Uiso   1.00
C151   C     0.55257   0.41118   0.46197   0.00000  Uiso   1.00
C152   C     0.78801   0.55274   0.58693   0.00000  Uiso   1.00
C153   C     0.83345   0.58472   0.53407   0.00000  Uiso   1.00
C154   C     0.85443   0.67872   0.52463   0.00000  Uiso   1.00
C155   C     0.89593   0.69306   0.47357   0.00000  Uiso   1.00
C156   C     0.81908   0.47271   0.62682   0.00000  Uiso   1.00
C157   C     0.82796   0.47253   0.69537   0.00000  Uiso   1.00
C158   C     0.85735   0.39257   0.72240   0.00000  Uiso   1.00
C159   C     0.73644   0.50370   0.54926   0.00000  Uiso   1.00
C160   C     0.67584   0.52956   0.55261   0.00000  Uiso   1.00
C161   C     0.63565   0.47566   0.51434   0.00000  Uiso   1.00
H162   H     0.83981   0.35113   0.48179   0.00000  Uiso   1.00
H163   H     0.91000   0.46237   0.41183   0.00000  Uiso   1.00
H164   H     0.88353   0.25621   0.58254   0.00000  Uiso   1.00
H165   H     0.73144   0.31323   0.43980   0.00000  Uiso   1.00
H166   H     0.97912   0.61964   0.35198   0.00000  Uiso   1.00
H167   H     0.92328   0.18493   0.71194   0.00000  Uiso   1.00
H168   H     0.60256   0.30515   0.41094   0.00000  Uiso   1.00
H169   H     0.77261   0.61266   0.61818   0.00000  Uiso   1.00
H170   H     0.83912   0.73827   0.55570   0.00000  Uiso   1.00
H171   H     0.81265   0.53210   0.72642   0.00000  Uiso   1.00
H172   H     0.66055   0.58912   0.58367   0.00000  Uiso   1.00
H173   H     0.92159   0.84357   0.46876   0.00000  Uiso   1.00
H174   H     0.86575   0.40885   0.82872   0.00000  Uiso   1.00
H175   H     0.54503   0.52907   0.52772   0.00000  Uiso   1.00
O176   O     0.99533   0.80951   0.36683   0.00000  Uiso   1.00
O177   O     0.92206   0.23917   0.83908   0.00000  Uiso   1.00
O178   O     0.50129   0.39690   0.44417   0.00000  Uiso   1.00
N179   N     0.95644   0.65511   0.38803   0.00000  Uiso   1.00
N180   N     0.90425   0.24869   0.72457   0.00000  Uiso   1.00
N181   N     0.60440   0.36106   0.44317   0.00000  Uiso   1.00
N182   N     0.92549   0.77560   0.45087   0.00000  Uiso   1.00
N183   N     0.87329   0.36918   0.78741   0.00000  Uiso   1.00
N184   N     0.57344   0.48156   0.50601   0.00000  Uiso   1.00
C185   C     0.67558   0.41105   0.01303   0.00000  Uiso   1.00
C186   C     0.64677   0.50776   0.99393   0.00000  Uiso   1.00
C187   C     0.60529   0.52195   0.94287   0.00000  Uiso   1.00
C188   C     0.58426   0.61595   0.93336   0.00000  Uiso   1.00
C189   C     0.53649   0.75440   0.89762   0.00000  Uiso   1.00
C190   C     0.66115   0.39575   0.08668   0.00000  Uiso   1.00
C191   C     0.63176   0.31577   0.11361   0.00000  Uiso   1.00
C192   C     0.62284   0.31547   0.18218   0.00000  Uiso   1.00
C193   C     0.59743   0.28000   0.29045   0.00000  Uiso   1.00
C194   C     0.74378   0.42673   0.00912   0.00000  Uiso   1.00
C195   C     0.78388   0.37278   0.97085   0.00000  Uiso   1.00
C196   C     0.84454   0.39856   0.97413   0.00000  Uiso   1.00
C197   C     0.94743   0.41118   0.96197   0.00000  Uiso   1.00
C198   C     0.71199   0.55274   0.08693   0.00000  Uiso   1.00
C199   C     0.66655   0.58472   0.03407   0.00000  Uiso   1.00
C200   C     0.64557   0.67872   0.02463   0.00000  Uiso   1.00
C201   C     0.60407   0.69306   0.97357   0.00000  Uiso   1.00
C202   C     0.68092   0.47271   0.12682   0.00000  Uiso   1.00
C203   C     0.67204   0.47253   0.19537   0.00000  Uiso   1.00
C204   C     0.64265   0.39257   0.22240   0.00000  Uiso   1.00
C205   C     0.76356   0.50370   0.04926   0.00000  Uiso   1.00
C206   C     0.82416   0.52956   0.05261   0.00000  Uiso   1.00
C207   C     0.86435   0.47566   0.01434   0.00000  Uiso   1.00
H208   H     0.66019   0.35113   0.98179   0.00000  Uiso   1.00
H209   H     0.59000   0.46237   0.91183   0.00000  Uiso   1.00
H210   H     0.61647   0.25621   0.08254   0.00000  Uiso   1.00
H211   H     0.76856   0.31323   0.93980   0.00000  Uiso   1.00
H212   H     0.52088   0.61964   0.85198   0.00000  Uiso   1.00
H213   H     0.57672   0.18493   0.21194   0.00000  Uiso   1.00
H214   H     0.89744   0.30515   0.91094   0.00000  Uiso   1.00
H215   H     0.72739   0.61266   0.11818   0.00000  Uiso   1.00
H216   H     0.66088   0.73827   0.05570   0.00000  Uiso   1.00
H217   H     0.68735   0.53210   0.22642   0.00000  Uiso   1.00
H218   H     0.83945   0.58912   0.08367   0.00000  Uiso   1.00
H219   H     0.57841   0.84357   0.96876   0.00000  Uiso   1.00
H220   H     0.63425   0.40885   0.32872   0.00000  Uiso   1.00
H221   H     0.95497   0.52907   0.02772   0.00000  Uiso   1.00
O222   O     0.50467   0.80951   0.86683   0.00000  Uiso   1.00
O223   O     0.57794   0.23917   0.33908   0.00000  Uiso   1.00
O224   O     0.99871   0.39690   0.94417   0.00000  Uiso   1.00
N225   N     0.54356   0.65511   0.88803   0.00000  Uiso   1.00
N226   N     0.59575   0.24869   0.22457   0.00000  Uiso   1.00
N227   N     0.89560   0.36106   0.94317   0.00000  Uiso   1.00
N228   N     0.57451   0.77560   0.95087   0.00000  Uiso   1.00
N229   N     0.62671   0.36918   0.28741   0.00000  Uiso   1.00
N230   N     0.92656   0.48156   0.00601   0.00000  Uiso   1.00
C231   C     0.82442   0.08895   0.01303   0.00000  Uiso   1.00
C232   C     0.85323   0.99224   0.99393   0.00000  Uiso   1.00
C233   C     0.89471   0.97805   0.94287   0.00000  Uiso   1.00
C234   C     0.91574   0.88405   0.93336   0.00000  Uiso   1.00
C235   C     0.96351   0.74560   0.89762   0.00000  Uiso   1.00
C236   C     0.83885   0.10425   0.08668   0.00000  Uiso   1.00
C237   C     0.86824   0.18423   0.11361   0.00000  Uiso   1.00
C238   C     0.87716   0.18453   0.18218   0.00000  Uiso   1.00
C239   C     0.90257   0.22000   0.29045   0.00000  Uiso   1.00
C240   C     0.75622   0.07327   0.00912   0.00000  Uiso   1.00
C241   C     0.71612   0.12722   0.97085   0.00000  Uiso   1.00
C242   C     0.65546   0.10144   0.97413   0.00000  Uiso   1.00
C243   C     0.55257   0.08882   0.96197   0.00000  Uiso   1.00
C244   C     0.78801   0.94726   0.08693   0.00000  Uiso   1.00
C245   C     0.83345   0.91528   0.03407   0.00000  Uiso   1.00
C246   C     0.85443   0.82128   0.02463   0.00000  Uiso   1.00
C247   C     0.89593   0.80694   0.97357   0.00000  Uiso   1.00
C248   C     0.81908   0.02729   0.12682   0.00000  Uiso   1.00
C249   C     0.82796   0.02747   0.19537   0.00000  Uiso   1.00
C250   C     0.85735   0.10743   0.22240   0.00000  Uiso   1.00
C251   C     0.73644   0.99630   0.04926   0.00000  Uiso   1.00
C252   C     0.67584   0.97044   0.05261   0.00000  Uiso   1.00
C253   C     0.63565   0.02434   0.01434   0.00000  Uiso   1.00
H254   H     0.83981   0.14887   0.98179   0.00000  Uiso   1.00
H255   H     0.91000   0.03763   0.91183   0.00000  Uiso   1.00
H256   H     0.88353   0.24379   0.08254   0.00000  Uiso   1.00
H257   H     0.73144   0.18677   0.93980   0.00000  Uiso   1.00
H258   H     0.97912   0.88036   0.85198   0.00000  Uiso   1.00
H259   H     0.92328   0.31507   0.21194   0.00000  Uiso   1.00
H260   H     0.60256   0.19485   0.91094   0.00000  Uiso   1.00
H261   H     0.77261   0.88734   0.11818   0.00000  Uiso   1.00
H262   H     0.83912   0.76173   0.05570   0.00000  Uiso   1.00
H263   H     0.81265   0.96790   0.22642   0.00000  Uiso   1.00
H264   H     0.66055   0.91088   0.08367   0.00000  Uiso   1.00
H265   H     0.92159   0.65643   0.96876   0.00000  Uiso   1.00
H266   H     0.86575   0.09115   0.32872   0.00000  Uiso   1.00
H267   H     0.54503   0.97093   0.02772   0.00000  Uiso   1.00
O268   O     0.99533   0.69049   0.86683   0.00000  Uiso   1.00
O269   O     0.92206   0.26083   0.33908   0.00000  Uiso   1.00
O270   O     0.50129   0.10310   0.94417   0.00000  Uiso   1.00
N271   N     0.95644   0.84489   0.88803   0.00000  Uiso   1.00
N272   N     0.90425   0.25131   0.22457   0.00000  Uiso   1.00
N273   N     0.60440   0.13894   0.94317   0.00000  Uiso   1.00
N274   N     0.92549   0.72440   0.95087   0.00000  Uiso   1.00
N275   N     0.87329   0.13082   0.28741   0.00000  Uiso   1.00
N276   N     0.57344   0.01844   0.00601   0.00000  Uiso   1.00
C277   C     0.32442   0.91105   0.48697   0.00000  Uiso   1.00
C278   C     0.35323   0.00776   0.50607   0.00000  Uiso   1.00
C279   C     0.39471   0.02195   0.55713   0.00000  Uiso   1.00
C280   C     0.41574   0.11595   0.56664   0.00000  Uiso   1.00
C281   C     0.46351   0.25440   0.60238   0.00000  Uiso   1.00
C282   C     0.33885   0.89575   0.41332   0.00000  Uiso   1.00
C283   C     0.36824   0.81577   0.38639   0.00000  Uiso   1.00
C284   C     0.37716   0.81547   0.31782   0.00000  Uiso   1.00
C285   C     0.40257   0.78000   0.20955   0.00000  Uiso   1.00
C286   C     0.25622   0.92673   0.49088   0.00000  Uiso   1.00
C287   C     0.21612   0.87278   0.52915   0.00000  Uiso   1.00
C288   C     0.15546   0.89856   0.52587   0.00000  Uiso   1.00
C289   C     0.05257   0.91118   0.53803   0.00000  Uiso   1.00
C290   C     0.28801   0.05274   0.41307   0.00000  Uiso   1.00
C291   C     0.33345   0.08472   0.46593   0.00000  Uiso   1.00
C292   C     0.35443   0.17872   0.47537   0.00000  Uiso   1.00
C293   C     0.39593   0.19306   0.52643   0.00000  Uiso   1.00
C294   C     0.31908   0.97271   0.37318   0.00000  Uiso   1.00
C295   C     0.32796   0.97253   0.30463   0.00000  Uiso   1.00
C296   C     0.35735   0.89257   0.27760   0.00000  Uiso   1.00
C297   C     0.23644   0.00370   0.45074   0.00000  Uiso   1.00
C298   C     0.17584   0.02956   0.44739   0.00000  Uiso   1.00
C299   C     0.13565   0.97566   0.48566   0.00000  Uiso   1.00
H300   H     0.33981   0.85113   0.51821   0.00000  Uiso   1.00
H301   H     0.41000   0.96237   0.58817   0.00000  Uiso   1.00
H302   H     0.38353   0.75621   0.41746   0.00000  Uiso   1.00
H303   H     0.23144   0.81323   0.56020   0.00000  Uiso   1.00
H304   H     0.47912   0.11964   0.64802   0.00000  Uiso   1.00
H305   H     0.42328   0.68493   0.28806   0.00000  Uiso   1.00
H306   H     0.10256   0.80515   0.58906   0.00000  Uiso   1.00
H307   H     0.27261   0.11266   0.38182   0.00000  Uiso   1.00
H308   H     0.33912   0.23827   0.44430   0.00000  Uiso   1.00
H309   H     0.31265   0.03210   0.27358   0.00000  Uiso   1.00
H310   H     0.16055   0.08912   0.41633   0.00000  Uiso   1.00
H311   H     0.42159   0.34357   0.53124   0.00000  Uiso   1.00
H312   H     0.36575   0.90885   0.17128   0.00000  Uiso   1.00
H313   H     0.04503   0.02907   0.47228   0.00000  Uiso   1.00
O314   O     0.49533   0.30951   0.63317   0.00000  Uiso   1.00
O315   O     0.42206   0.73917   0.16092   0.00000  Uiso   1.00
O316   O     0.00129   0.89690   0.55583   0.00000  Uiso   1.00
N317   N     0.45644   0.15511   0.61197   0.00000  Uiso   1.00
N318   N     0.40425   0.74869   0.27543   0.00000  Uiso   1.00
N319   N     0.10440   0.86106   0.55683   0.00000  Uiso   1.00
N320   N     0.42549   0.27560   0.54913   0.00000  Uiso   1.00
N321   N     0.37329   0.86918   0.21259   0.00000  Uiso   1.00
N322   N     0.07344   0.98156   0.49399   0.00000  Uiso   1.00
C323   C     0.17558   0.58895   0.48697   0.00000  Uiso   1.00
C324   C     0.14677   0.49224   0.50607   0.00000  Uiso   1.00
C325   C     0.10529   0.47805   0.55713   0.00000  Uiso   1.00
C326   C     0.08426   0.38405   0.56664   0.00000  Uiso   1.00
C327   C     0.03649   0.24560   0.60238   0.00000  Uiso   1.00
C328   C     0.16115   0.60425   0.41332   0.00000  Uiso   1.00
C329   C     0.13176   0.68423   0.38639   0.00000  Uiso   1.00
C330   C     0.12284   0.68453   0.31782   0.00000  Uiso   1.00
C331   C     0.09743   0.72000   0.20955   0.00000  Uiso   1.00
C332   C     0.24378   0.57327   0.49088   0.00000  Uiso   1.00
C333   C     0.28388   0.62722   0.52915   0.00000  Uiso   1.00
C334   C     0.34454   0.60144   0.52587   0.00000  Uiso   1.00
C335   C     0.44743   0.58882   0.53803   0.00000  Uiso   1.00
C336   C     0.21199   0.44726   0.41307   0.00000  Uiso   1.00
C337   C     0.16655   0.41528   0.46593   0.00000  Uiso   1.00
C338   C     0.14557   0.32128   0.47537   0.00000  Uiso   1.00
C339   C     0.10407   0.30694   0.52643   0.00000  Uiso   1.00
C340   C     0.18092   0.52729   0.37318   0.00000  Uiso   1.00
C341   C     0.17204   0.52747   0.30463   0.00000  Uiso   1.00
C342   C     0.14265   0.60743   0.27760   0.00000  Uiso   1.00
C343   C     0.26356   0.49630   0.45074   0.00000  Uiso   1.00
C344   C     0.32416   0.47044   0.44739   0.00000  Uiso   1.00
C345   C     0.36435   0.52434   0.48566   0.00000  Uiso   1.00
H346   H     0.16019   0.64887   0.51821   0.00000  Uiso   1.00
H347   H     0.09000   0.53763   0.58817   0.00000  Uiso   1.00
H348   H     0.11647   0.74379   0.41746   0.00000  Uiso   1.00
H349   H     0.26856   0.68677   0.56020   0.00000  Uiso   1.00
H350   H     0.02088   0.38036   0.64802   0.00000  Uiso   1.00
H351   H     0.07672   0.81507   0.28806   0.00000  Uiso   1.00
H352   H     0.39744   0.69485   0.58906   0.00000  Uiso   1.00
H353   H     0.22739   0.38734   0.38182   0.00000  Uiso   1.00
H354   H     0.16088   0.26173   0.44430   0.00000  Uiso   1.00
H355   H     0.18735   0.46790   0.27358   0.00000  Uiso   1.00
H356   H     0.33945   0.41088   0.41633   0.00000  Uiso   1.00
H357   H     0.07841   0.15643   0.53124   0.00000  Uiso   1.00
H358   H     0.13425   0.59115   0.17128   0.00000  Uiso   1.00
H359   H     0.45497   0.47093   0.47228   0.00000  Uiso   1.00
O360   O     0.00467   0.19049   0.63317   0.00000  Uiso   1.00
O361   O     0.07794   0.76083   0.16092   0.00000  Uiso   1.00
O362   O     0.49871   0.60310   0.55583   0.00000  Uiso   1.00
N363   N     0.04356   0.34489   0.61197   0.00000  Uiso   1.00
N364   N     0.09575   0.75131   0.27543   0.00000  Uiso   1.00
N365   N     0.39560   0.63894   0.55683   0.00000  Uiso   1.00
N366   N     0.07451   0.22440   0.54913   0.00000  Uiso   1.00
N367   N     0.12671   0.63082   0.21259   0.00000  Uiso   1.00
N368   N     0.42656   0.51844   0.49399   0.00000  Uiso   1.00
