data_job_03148
_audit_creation_date              2018-12-19
_audit_creation_method            'Materials Studio'
_symmetry_space_group_name_H-M    'P1'
_symmetry_Int_Tables_number       1
_symmetry_cell_setting            triclinic
loop_
_symmetry_equiv_pos_as_xyz
  x,y,z
_cell_length_a                    18.6236
_cell_length_b                    22.7649
_cell_length_c                    14.9514
_cell_angle_alpha                 90.0000
_cell_angle_beta                  91.8724
_cell_angle_gamma                 90.0000
loop_
_atom_site_label
_atom_site_type_symbol
_atom_site_fract_x
_atom_site_fract_y
_atom_site_fract_z
_atom_site_U_iso_or_equiv
_atom_site_adp_type
_atom_site_occupancy
C1     C     0.56165   0.29572   0.54770   0.00000  Uiso   1.00
C2     C     0.48156   0.30702   0.53155   0.00000  Uiso   1.00
C3     C     0.42737   0.28992   0.58753   0.00000  Uiso   1.00
C4     C     0.35748   0.30441   0.56089   0.00000  Uiso   1.00
C5     C     0.23542   0.31729   0.54792   0.00000  Uiso   1.00
C6     C     0.58651   0.26286   0.46541   0.00000  Uiso   1.00
C7     C     0.62057   0.20863   0.46577   0.00000  Uiso   1.00
C8     C     0.63903   0.18594   0.38344   0.00000  Uiso   1.00
C9     C     0.67995   0.13028   0.26779   0.00000  Uiso   1.00
C10    C     0.59786   0.35576   0.54551   0.00000  Uiso   1.00
C11    C     0.64147   0.37963   0.61321   0.00000  Uiso   1.00
C12    C     0.66950   0.43517   0.59831   0.00000  Uiso   1.00
C13    C     0.72804   0.52374   0.60703   0.00000  Uiso   1.00
C14    C     0.53390   0.35187   0.40085   0.00000  Uiso   1.00
C15    C     0.46649   0.33752   0.45179   0.00000  Uiso   1.00
C16    C     0.39667   0.35204   0.42505   0.00000  Uiso   1.00
C17    C     0.34238   0.33496   0.48098   0.00000  Uiso   1.00
C18    C     0.57144   0.29335   0.38564   0.00000  Uiso   1.00
C19    C     0.58987   0.27075   0.30329   0.00000  Uiso   1.00
C20    C     0.62394   0.21650   0.30353   0.00000  Uiso   1.00
C21    C     0.58279   0.38626   0.46574   0.00000  Uiso   1.00
C22    C     0.61077   0.44176   0.45073   0.00000  Uiso   1.00
C23    C     0.65441   0.46572   0.51840   0.00000  Uiso   1.00
H24    H     0.57338   0.27197   0.60980   0.00000  Uiso   1.00
H25    H     0.43905   0.26631   0.64925   0.00000  Uiso   1.00
H26    H     0.63222   0.18504   0.52751   0.00000  Uiso   1.00
H27    H     0.65312   0.35602   0.67493   0.00000  Uiso   1.00
H28    H     0.28347   0.27346   0.65779   0.00000  Uiso   1.00
H29    H     0.69081   0.10210   0.40110   0.00000  Uiso   1.00
H30    H     0.73487   0.46265   0.71196   0.00000  Uiso   1.00
H31    H     0.52217   0.37561   0.33874   0.00000  Uiso   1.00
H32    H     0.38503   0.37564   0.36332   0.00000  Uiso   1.00
H33    H     0.57820   0.29436   0.24158   0.00000  Uiso   1.00
H34    H     0.59910   0.46534   0.38900   0.00000  Uiso   1.00
H35    H     0.23962   0.36219   0.42572   0.00000  Uiso   1.00
H36    H     0.64697   0.19083   0.16903   0.00000  Uiso   1.00
H37    H     0.69103   0.55138   0.47989   0.00000  Uiso   1.00
O38    O     0.17225   0.31596   0.56280   0.00000  Uiso   1.00
O39    O     0.70668   0.09115   0.22603   0.00000  Uiso   1.00
O40    O     0.76448   0.56418   0.63387   0.00000  Uiso   1.00
N41    N     0.29197   0.29435   0.59981   0.00000  Uiso   1.00
N42    N     0.67280   0.13414   0.35982   0.00000  Uiso   1.00
N43    N     0.71401   0.47121   0.65043   0.00000  Uiso   1.00
N44    N     0.26838   0.34210   0.47494   0.00000  Uiso   1.00
N45    N     0.64921   0.18188   0.23494   0.00000  Uiso   1.00
N46    N     0.69042   0.51896   0.52556   0.00000  Uiso   1.00
C47    C     0.06165   0.79572   0.54770   0.00000  Uiso   1.00
C48    C     0.98156   0.80702   0.53155   0.00000  Uiso   1.00
C49    C     0.92737   0.78992   0.58753   0.00000  Uiso   1.00
C50    C     0.85748   0.80441   0.56089   0.00000  Uiso   1.00
C51    C     0.73542   0.81729   0.54792   0.00000  Uiso   1.00
C52    C     0.08651   0.76286   0.46541   0.00000  Uiso   1.00
C53    C     0.12057   0.70863   0.46577   0.00000  Uiso   1.00
C54    C     0.13903   0.68594   0.38344   0.00000  Uiso   1.00
C55    C     0.17995   0.63028   0.26779   0.00000  Uiso   1.00
C56    C     0.09786   0.85576   0.54551   0.00000  Uiso   1.00
C57    C     0.14147   0.87963   0.61321   0.00000  Uiso   1.00
C58    C     0.16950   0.93517   0.59831   0.00000  Uiso   1.00
C59    C     0.22804   0.02374   0.60703   0.00000  Uiso   1.00
C60    C     0.03390   0.85187   0.40085   0.00000  Uiso   1.00
C61    C     0.96649   0.83752   0.45179   0.00000  Uiso   1.00
C62    C     0.89667   0.85204   0.42505   0.00000  Uiso   1.00
C63    C     0.84238   0.83496   0.48098   0.00000  Uiso   1.00
C64    C     0.07144   0.79335   0.38564   0.00000  Uiso   1.00
C65    C     0.08987   0.77075   0.30329   0.00000  Uiso   1.00
C66    C     0.12394   0.71650   0.30353   0.00000  Uiso   1.00
C67    C     0.08279   0.88626   0.46574   0.00000  Uiso   1.00
C68    C     0.11077   0.94176   0.45073   0.00000  Uiso   1.00
C69    C     0.15441   0.96572   0.51840   0.00000  Uiso   1.00
H70    H     0.07338   0.77197   0.60980   0.00000  Uiso   1.00
H71    H     0.93905   0.76631   0.64925   0.00000  Uiso   1.00
H72    H     0.13222   0.68504   0.52751   0.00000  Uiso   1.00
H73    H     0.15312   0.85602   0.67493   0.00000  Uiso   1.00
H74    H     0.78347   0.77346   0.65779   0.00000  Uiso   1.00
H75    H     0.19081   0.60210   0.40110   0.00000  Uiso   1.00
H76    H     0.23487   0.96265   0.71196   0.00000  Uiso   1.00
H77    H     0.02217   0.87561   0.33874   0.00000  Uiso   1.00
H78    H     0.88503   0.87564   0.36332   0.00000  Uiso   1.00
H79    H     0.07820   0.79436   0.24158   0.00000  Uiso   1.00
H80    H     0.09910   0.96534   0.38900   0.00000  Uiso   1.00
H81    H     0.73962   0.86219   0.42572   0.00000  Uiso   1.00
H82    H     0.14697   0.69083   0.16903   0.00000  Uiso   1.00
H83    H     0.19103   0.05138   0.47989   0.00000  Uiso   1.00
O84    O     0.67225   0.81596   0.56280   0.00000  Uiso   1.00
O85    O     0.20668   0.59115   0.22603   0.00000  Uiso   1.00
O86    O     0.26448   0.06418   0.63387   0.00000  Uiso   1.00
N87    N     0.79197   0.79435   0.59981   0.00000  Uiso   1.00
N88    N     0.17280   0.63414   0.35982   0.00000  Uiso   1.00
N89    N     0.21401   0.97121   0.65043   0.00000  Uiso   1.00
N90    N     0.76838   0.84210   0.47494   0.00000  Uiso   1.00
N91    N     0.14921   0.68188   0.23494   0.00000  Uiso   1.00
N92    N     0.19042   0.01896   0.52556   0.00000  Uiso   1.00
C93    C     0.43835   0.29572   0.95230   0.00000  Uiso   1.00
C94    C     0.51844   0.30702   0.96845   0.00000  Uiso   1.00
C95    C     0.57263   0.28992   0.91247   0.00000  Uiso   1.00
C96    C     0.64252   0.30441   0.93911   0.00000  Uiso   1.00
C97    C     0.76458   0.31729   0.95208   0.00000  Uiso   1.00
C98    C     0.41349   0.26286   0.03459   0.00000  Uiso   1.00
C99    C     0.37943   0.20863   0.03423   0.00000  Uiso   1.00
C100   C     0.36097   0.18594   0.11656   0.00000  Uiso   1.00
C101   C     0.32005   0.13028   0.23221   0.00000  Uiso   1.00
C102   C     0.40214   0.35576   0.95449   0.00000  Uiso   1.00
C103   C     0.35853   0.37963   0.88679   0.00000  Uiso   1.00
C104   C     0.33050   0.43517   0.90169   0.00000  Uiso   1.00
C105   C     0.27196   0.52374   0.89297   0.00000  Uiso   1.00
C106   C     0.46610   0.35187   0.09915   0.00000  Uiso   1.00
C107   C     0.53351   0.33752   0.04821   0.00000  Uiso   1.00
C108   C     0.60333   0.35204   0.07495   0.00000  Uiso   1.00
C109   C     0.65762   0.33496   0.01902   0.00000  Uiso   1.00
C110   C     0.42856   0.29335   0.11436   0.00000  Uiso   1.00
C111   C     0.41013   0.27075   0.19671   0.00000  Uiso   1.00
C112   C     0.37606   0.21650   0.19647   0.00000  Uiso   1.00
C113   C     0.41721   0.38626   0.03426   0.00000  Uiso   1.00
C114   C     0.38923   0.44176   0.04927   0.00000  Uiso   1.00
C115   C     0.34559   0.46572   0.98160   0.00000  Uiso   1.00
H116   H     0.42662   0.27197   0.89020   0.00000  Uiso   1.00
H117   H     0.56095   0.26631   0.85075   0.00000  Uiso   1.00
H118   H     0.36778   0.18504   0.97249   0.00000  Uiso   1.00
H119   H     0.34688   0.35602   0.82507   0.00000  Uiso   1.00
H120   H     0.71653   0.27346   0.84221   0.00000  Uiso   1.00
H121   H     0.30919   0.10210   0.09890   0.00000  Uiso   1.00
H122   H     0.26513   0.46265   0.78804   0.00000  Uiso   1.00
H123   H     0.47783   0.37561   0.16126   0.00000  Uiso   1.00
H124   H     0.61497   0.37564   0.13668   0.00000  Uiso   1.00
H125   H     0.42180   0.29436   0.25842   0.00000  Uiso   1.00
H126   H     0.40090   0.46534   0.11100   0.00000  Uiso   1.00
H127   H     0.76038   0.36219   0.07428   0.00000  Uiso   1.00
H128   H     0.35303   0.19083   0.33097   0.00000  Uiso   1.00
H129   H     0.30897   0.55138   0.02011   0.00000  Uiso   1.00
O130   O     0.82775   0.31596   0.93720   0.00000  Uiso   1.00
O131   O     0.29332   0.09115   0.27397   0.00000  Uiso   1.00
O132   O     0.23552   0.56418   0.86613   0.00000  Uiso   1.00
N133   N     0.70803   0.29435   0.90019   0.00000  Uiso   1.00
N134   N     0.32720   0.13414   0.14018   0.00000  Uiso   1.00
N135   N     0.28599   0.47121   0.84957   0.00000  Uiso   1.00
N136   N     0.73162   0.34210   0.02506   0.00000  Uiso   1.00
N137   N     0.35079   0.18188   0.26506   0.00000  Uiso   1.00
N138   N     0.30958   0.51896   0.97444   0.00000  Uiso   1.00
C139   C     0.93835   0.79572   0.95230   0.00000  Uiso   1.00
C140   C     0.01844   0.80702   0.96845   0.00000  Uiso   1.00
C141   C     0.07263   0.78992   0.91247   0.00000  Uiso   1.00
C142   C     0.14252   0.80441   0.93911   0.00000  Uiso   1.00
C143   C     0.26458   0.81729   0.95208   0.00000  Uiso   1.00
C144   C     0.91349   0.76286   0.03459   0.00000  Uiso   1.00
C145   C     0.87943   0.70863   0.03423   0.00000  Uiso   1.00
C146   C     0.86097   0.68594   0.11656   0.00000  Uiso   1.00
C147   C     0.82005   0.63028   0.23221   0.00000  Uiso   1.00
C148   C     0.90214   0.85576   0.95449   0.00000  Uiso   1.00
C149   C     0.85853   0.87963   0.88679   0.00000  Uiso   1.00
C150   C     0.83050   0.93517   0.90169   0.00000  Uiso   1.00
C151   C     0.77196   0.02374   0.89297   0.00000  Uiso   1.00
C152   C     0.96610   0.85187   0.09915   0.00000  Uiso   1.00
C153   C     0.03351   0.83752   0.04821   0.00000  Uiso   1.00
C154   C     0.10333   0.85204   0.07495   0.00000  Uiso   1.00
C155   C     0.15762   0.83496   0.01902   0.00000  Uiso   1.00
C156   C     0.92856   0.79335   0.11436   0.00000  Uiso   1.00
C157   C     0.91013   0.77075   0.19671   0.00000  Uiso   1.00
C158   C     0.87606   0.71650   0.19647   0.00000  Uiso   1.00
C159   C     0.91721   0.88626   0.03426   0.00000  Uiso   1.00
C160   C     0.88923   0.94176   0.04927   0.00000  Uiso   1.00
C161   C     0.84559   0.96572   0.98160   0.00000  Uiso   1.00
H162   H     0.92662   0.77197   0.89020   0.00000  Uiso   1.00
H163   H     0.06095   0.76631   0.85075   0.00000  Uiso   1.00
H164   H     0.86778   0.68504   0.97249   0.00000  Uiso   1.00
H165   H     0.84688   0.85602   0.82507   0.00000  Uiso   1.00
H166   H     0.21653   0.77346   0.84221   0.00000  Uiso   1.00
H167   H     0.80919   0.60210   0.09890   0.00000  Uiso   1.00
H168   H     0.76513   0.96265   0.78804   0.00000  Uiso   1.00
H169   H     0.97783   0.87561   0.16126   0.00000  Uiso   1.00
H170   H     0.11497   0.87564   0.13668   0.00000  Uiso   1.00
H171   H     0.92180   0.79436   0.25842   0.00000  Uiso   1.00
H172   H     0.90090   0.96534   0.11100   0.00000  Uiso   1.00
H173   H     0.26038   0.86219   0.07428   0.00000  Uiso   1.00
H174   H     0.85303   0.69083   0.33097   0.00000  Uiso   1.00
H175   H     0.80897   0.05138   0.02011   0.00000  Uiso   1.00
O176   O     0.32775   0.81596   0.93720   0.00000  Uiso   1.00
O177   O     0.79332   0.59115   0.27397   0.00000  Uiso   1.00
O178   O     0.73552   0.06418   0.86613   0.00000  Uiso   1.00
N179   N     0.20803   0.79435   0.90019   0.00000  Uiso   1.00
N180   N     0.82720   0.63414   0.14018   0.00000  Uiso   1.00
N181   N     0.78599   0.97121   0.84957   0.00000  Uiso   1.00
N182   N     0.23162   0.84210   0.02506   0.00000  Uiso   1.00
N183   N     0.85079   0.68188   0.26506   0.00000  Uiso   1.00
N184   N     0.80958   0.01896   0.97444   0.00000  Uiso   1.00
C185   C     0.43835   0.70428   0.45230   0.00000  Uiso   1.00
C186   C     0.51844   0.69298   0.46845   0.00000  Uiso   1.00
C187   C     0.57263   0.71008   0.41247   0.00000  Uiso   1.00
C188   C     0.64252   0.69559   0.43911   0.00000  Uiso   1.00
C189   C     0.76458   0.68271   0.45208   0.00000  Uiso   1.00
C190   C     0.41349   0.73714   0.53459   0.00000  Uiso   1.00
C191   C     0.37943   0.79137   0.53423   0.00000  Uiso   1.00
C192   C     0.36097   0.81406   0.61656   0.00000  Uiso   1.00
C193   C     0.32005   0.86972   0.73221   0.00000  Uiso   1.00
C194   C     0.40214   0.64424   0.45449   0.00000  Uiso   1.00
C195   C     0.35853   0.62037   0.38679   0.00000  Uiso   1.00
C196   C     0.33050   0.56483   0.40169   0.00000  Uiso   1.00
C197   C     0.27196   0.47626   0.39297   0.00000  Uiso   1.00
C198   C     0.46610   0.64813   0.59915   0.00000  Uiso   1.00
C199   C     0.53351   0.66248   0.54821   0.00000  Uiso   1.00
C200   C     0.60333   0.64796   0.57495   0.00000  Uiso   1.00
C201   C     0.65762   0.66504   0.51902   0.00000  Uiso   1.00
C202   C     0.42856   0.70665   0.61436   0.00000  Uiso   1.00
C203   C     0.41013   0.72925   0.69671   0.00000  Uiso   1.00
C204   C     0.37606   0.78350   0.69647   0.00000  Uiso   1.00
C205   C     0.41721   0.61374   0.53426   0.00000  Uiso   1.00
C206   C     0.38923   0.55824   0.54927   0.00000  Uiso   1.00
C207   C     0.34559   0.53428   0.48160   0.00000  Uiso   1.00
H208   H     0.42662   0.72803   0.39020   0.00000  Uiso   1.00
H209   H     0.56095   0.73369   0.35075   0.00000  Uiso   1.00
H210   H     0.36778   0.81496   0.47249   0.00000  Uiso   1.00
H211   H     0.34688   0.64398   0.32507   0.00000  Uiso   1.00
H212   H     0.71653   0.72654   0.34221   0.00000  Uiso   1.00
H213   H     0.30919   0.89790   0.59890   0.00000  Uiso   1.00
H214   H     0.26513   0.53735   0.28804   0.00000  Uiso   1.00
H215   H     0.47783   0.62439   0.66126   0.00000  Uiso   1.00
H216   H     0.61497   0.62436   0.63668   0.00000  Uiso   1.00
H217   H     0.42180   0.70564   0.75842   0.00000  Uiso   1.00
H218   H     0.40090   0.53466   0.61100   0.00000  Uiso   1.00
H219   H     0.76038   0.63781   0.57428   0.00000  Uiso   1.00
H220   H     0.35303   0.80917   0.83097   0.00000  Uiso   1.00
H221   H     0.30897   0.44862   0.52011   0.00000  Uiso   1.00
O222   O     0.82775   0.68404   0.43720   0.00000  Uiso   1.00
O223   O     0.29332   0.90885   0.77397   0.00000  Uiso   1.00
O224   O     0.23552   0.43582   0.36613   0.00000  Uiso   1.00
N225   N     0.70803   0.70565   0.40019   0.00000  Uiso   1.00
N226   N     0.32720   0.86586   0.64018   0.00000  Uiso   1.00
N227   N     0.28599   0.52879   0.34957   0.00000  Uiso   1.00
N228   N     0.73162   0.65790   0.52506   0.00000  Uiso   1.00
N229   N     0.35079   0.81812   0.76506   0.00000  Uiso   1.00
N230   N     0.30958   0.48104   0.47444   0.00000  Uiso   1.00
C231   C     0.93835   0.20428   0.45230   0.00000  Uiso   1.00
C232   C     0.01844   0.19298   0.46845   0.00000  Uiso   1.00
C233   C     0.07263   0.21008   0.41247   0.00000  Uiso   1.00
C234   C     0.14252   0.19559   0.43911   0.00000  Uiso   1.00
C235   C     0.26458   0.18271   0.45208   0.00000  Uiso   1.00
C236   C     0.91349   0.23714   0.53459   0.00000  Uiso   1.00
C237   C     0.87943   0.29137   0.53423   0.00000  Uiso   1.00
C238   C     0.86097   0.31406   0.61656   0.00000  Uiso   1.00
C239   C     0.82005   0.36972   0.73221   0.00000  Uiso   1.00
C240   C     0.90214   0.14424   0.45449   0.00000  Uiso   1.00
C241   C     0.85853   0.12037   0.38679   0.00000  Uiso   1.00
C242   C     0.83050   0.06483   0.40169   0.00000  Uiso   1.00
C243   C     0.77196   0.97626   0.39297   0.00000  Uiso   1.00
C244   C     0.96610   0.14813   0.59915   0.00000  Uiso   1.00
C245   C     0.03351   0.16248   0.54821   0.00000  Uiso   1.00
C246   C     0.10333   0.14796   0.57495   0.00000  Uiso   1.00
C247   C     0.15762   0.16504   0.51902   0.00000  Uiso   1.00
C248   C     0.92856   0.20665   0.61436   0.00000  Uiso   1.00
C249   C     0.91013   0.22925   0.69671   0.00000  Uiso   1.00
C250   C     0.87606   0.28350   0.69647   0.00000  Uiso   1.00
C251   C     0.91721   0.11374   0.53426   0.00000  Uiso   1.00
C252   C     0.88923   0.05824   0.54927   0.00000  Uiso   1.00
C253   C     0.84559   0.03428   0.48160   0.00000  Uiso   1.00
H254   H     0.92662   0.22803   0.39020   0.00000  Uiso   1.00
H255   H     0.06095   0.23369   0.35075   0.00000  Uiso   1.00
H256   H     0.86778   0.31496   0.47249   0.00000  Uiso   1.00
H257   H     0.84688   0.14398   0.32507   0.00000  Uiso   1.00
H258   H     0.21653   0.22654   0.34221   0.00000  Uiso   1.00
H259   H     0.80919   0.39790   0.59890   0.00000  Uiso   1.00
H260   H     0.76513   0.03735   0.28804   0.00000  Uiso   1.00
H261   H     0.97783   0.12439   0.66126   0.00000  Uiso   1.00
H262   H     0.11497   0.12436   0.63668   0.00000  Uiso   1.00
H263   H     0.92180   0.20564   0.75842   0.00000  Uiso   1.00
H264   H     0.90090   0.03466   0.61100   0.00000  Uiso   1.00
H265   H     0.26038   0.13781   0.57428   0.00000  Uiso   1.00
H266   H     0.85303   0.30917   0.83097   0.00000  Uiso   1.00
H267   H     0.80897   0.94862   0.52011   0.00000  Uiso   1.00
O268   O     0.32775   0.18404   0.43720   0.00000  Uiso   1.00
O269   O     0.79332   0.40885   0.77397   0.00000  Uiso   1.00
O270   O     0.73552   0.93582   0.36613   0.00000  Uiso   1.00
N271   N     0.20803   0.20565   0.40019   0.00000  Uiso   1.00
N272   N     0.82720   0.36586   0.64018   0.00000  Uiso   1.00
N273   N     0.78599   0.02879   0.34957   0.00000  Uiso   1.00
N274   N     0.23162   0.15790   0.52506   0.00000  Uiso   1.00
N275   N     0.85079   0.31812   0.76506   0.00000  Uiso   1.00
N276   N     0.80958   0.98104   0.47444   0.00000  Uiso   1.00
C277   C     0.56165   0.70428   0.04770   0.00000  Uiso   1.00
C278   C     0.48156   0.69298   0.03155   0.00000  Uiso   1.00
C279   C     0.42737   0.71008   0.08753   0.00000  Uiso   1.00
C280   C     0.35748   0.69559   0.06089   0.00000  Uiso   1.00
C281   C     0.23542   0.68271   0.04792   0.00000  Uiso   1.00
C282   C     0.58651   0.73714   0.96541   0.00000  Uiso   1.00
C283   C     0.62057   0.79137   0.96577   0.00000  Uiso   1.00
C284   C     0.63903   0.81406   0.88344   0.00000  Uiso   1.00
C285   C     0.67995   0.86972   0.76779   0.00000  Uiso   1.00
C286   C     0.59786   0.64424   0.04551   0.00000  Uiso   1.00
C287   C     0.64147   0.62037   0.11321   0.00000  Uiso   1.00
C288   C     0.66950   0.56483   0.09831   0.00000  Uiso   1.00
C289   C     0.72804   0.47626   0.10703   0.00000  Uiso   1.00
C290   C     0.53390   0.64813   0.90085   0.00000  Uiso   1.00
C291   C     0.46649   0.66248   0.95179   0.00000  Uiso   1.00
C292   C     0.39667   0.64796   0.92505   0.00000  Uiso   1.00
C293   C     0.34238   0.66504   0.98098   0.00000  Uiso   1.00
C294   C     0.57144   0.70665   0.88564   0.00000  Uiso   1.00
C295   C     0.58987   0.72925   0.80329   0.00000  Uiso   1.00
C296   C     0.62394   0.78350   0.80353   0.00000  Uiso   1.00
C297   C     0.58279   0.61374   0.96574   0.00000  Uiso   1.00
C298   C     0.61077   0.55824   0.95073   0.00000  Uiso   1.00
C299   C     0.65441   0.53428   0.01840   0.00000  Uiso   1.00
H300   H     0.57338   0.72803   0.10980   0.00000  Uiso   1.00
H301   H     0.43905   0.73369   0.14925   0.00000  Uiso   1.00
H302   H     0.63222   0.81496   0.02751   0.00000  Uiso   1.00
H303   H     0.65312   0.64398   0.17493   0.00000  Uiso   1.00
H304   H     0.28347   0.72654   0.15779   0.00000  Uiso   1.00
H305   H     0.69081   0.89790   0.90110   0.00000  Uiso   1.00
H306   H     0.73487   0.53735   0.21196   0.00000  Uiso   1.00
H307   H     0.52217   0.62439   0.83874   0.00000  Uiso   1.00
H308   H     0.38503   0.62436   0.86332   0.00000  Uiso   1.00
H309   H     0.57820   0.70564   0.74158   0.00000  Uiso   1.00
H310   H     0.59910   0.53466   0.88900   0.00000  Uiso   1.00
H311   H     0.23962   0.63781   0.92572   0.00000  Uiso   1.00
H312   H     0.64697   0.80917   0.66903   0.00000  Uiso   1.00
H313   H     0.69103   0.44862   0.97989   0.00000  Uiso   1.00
O314   O     0.17225   0.68404   0.06280   0.00000  Uiso   1.00
O315   O     0.70668   0.90885   0.72603   0.00000  Uiso   1.00
O316   O     0.76448   0.43582   0.13387   0.00000  Uiso   1.00
N317   N     0.29197   0.70565   0.09981   0.00000  Uiso   1.00
N318   N     0.67280   0.86586   0.85982   0.00000  Uiso   1.00
N319   N     0.71401   0.52879   0.15043   0.00000  Uiso   1.00
N320   N     0.26838   0.65790   0.97494   0.00000  Uiso   1.00
N321   N     0.64921   0.81812   0.73494   0.00000  Uiso   1.00
N322   N     0.69042   0.48104   0.02556   0.00000  Uiso   1.00
C323   C     0.06165   0.20428   0.04770   0.00000  Uiso   1.00
C324   C     0.98156   0.19298   0.03155   0.00000  Uiso   1.00
C325   C     0.92737   0.21008   0.08753   0.00000  Uiso   1.00
C326   C     0.85748   0.19559   0.06089   0.00000  Uiso   1.00
C327   C     0.73542   0.18271   0.04792   0.00000  Uiso   1.00
C328   C     0.08651   0.23714   0.96541   0.00000  Uiso   1.00
C329   C     0.12057   0.29137   0.96577   0.00000  Uiso   1.00
C330   C     0.13903   0.31406   0.88344   0.00000  Uiso   1.00
C331   C     0.17995   0.36972   0.76779   0.00000  Uiso   1.00
C332   C     0.09786   0.14424   0.04551   0.00000  Uiso   1.00
C333   C     0.14147   0.12037   0.11321   0.00000  Uiso   1.00
C334   C     0.16950   0.06483   0.09831   0.00000  Uiso   1.00
C335   C     0.22804   0.97626   0.10703   0.00000  Uiso   1.00
C336   C     0.03390   0.14813   0.90085   0.00000  Uiso   1.00
C337   C     0.96649   0.16248   0.95179   0.00000  Uiso   1.00
C338   C     0.89667   0.14796   0.92505   0.00000  Uiso   1.00
C339   C     0.84238   0.16504   0.98098   0.00000  Uiso   1.00
C340   C     0.07144   0.20665   0.88564   0.00000  Uiso   1.00
C341   C     0.08987   0.22925   0.80329   0.00000  Uiso   1.00
C342   C     0.12394   0.28350   0.80353   0.00000  Uiso   1.00
C343   C     0.08279   0.11374   0.96574   0.00000  Uiso   1.00
C344   C     0.11077   0.05824   0.95073   0.00000  Uiso   1.00
C345   C     0.15441   0.03428   0.01840   0.00000  Uiso   1.00
H346   H     0.07338   0.22803   0.10980   0.00000  Uiso   1.00
H347   H     0.93905   0.23369   0.14925   0.00000  Uiso   1.00
H348   H     0.13222   0.31496   0.02751   0.00000  Uiso   1.00
H349   H     0.15312   0.14398   0.17493   0.00000  Uiso   1.00
H350   H     0.78347   0.22654   0.15779   0.00000  Uiso   1.00
H351   H     0.19081   0.39790   0.90110   0.00000  Uiso   1.00
H352   H     0.23487   0.03735   0.21196   0.00000  Uiso   1.00
H353   H     0.02217   0.12439   0.83874   0.00000  Uiso   1.00
H354   H     0.88503   0.12436   0.86332   0.00000  Uiso   1.00
H355   H     0.07820   0.20564   0.74158   0.00000  Uiso   1.00
H356   H     0.09910   0.03466   0.88900   0.00000  Uiso   1.00
H357   H     0.73962   0.13781   0.92572   0.00000  Uiso   1.00
H358   H     0.14697   0.30917   0.66903   0.00000  Uiso   1.00
H359   H     0.19103   0.94862   0.97989   0.00000  Uiso   1.00
O360   O     0.67225   0.18404   0.06280   0.00000  Uiso   1.00
O361   O     0.20668   0.40885   0.72603   0.00000  Uiso   1.00
O362   O     0.26448   0.93582   0.13387   0.00000  Uiso   1.00
N363   N     0.79197   0.20565   0.09981   0.00000  Uiso   1.00
N364   N     0.17280   0.36586   0.85982   0.00000  Uiso   1.00
N365   N     0.21401   0.02879   0.15043   0.00000  Uiso   1.00
N366   N     0.76838   0.15790   0.97494   0.00000  Uiso   1.00
N367   N     0.14921   0.31812   0.73494   0.00000  Uiso   1.00
N368   N     0.19042   0.98104   0.02556   0.00000  Uiso   1.00
