data_job_06069
_audit_creation_date              2018-12-19
_audit_creation_method            'Materials Studio'
_symmetry_space_group_name_H-M    'P1'
_symmetry_Int_Tables_number       1
_symmetry_cell_setting            triclinic
loop_
_symmetry_equiv_pos_as_xyz
  x,y,z
_cell_length_a                    16.1247
_cell_length_b                    16.0974
_cell_length_c                    15.6796
_cell_angle_alpha                 98.1001
_cell_angle_beta                  96.5803
_cell_angle_gamma                 93.5762
loop_
_atom_site_label
_atom_site_type_symbol
_atom_site_fract_x
_atom_site_fract_y
_atom_site_fract_z
_atom_site_U_iso_or_equiv
_atom_site_adp_type
_atom_site_occupancy
C1     C     0.77623   0.48241   0.90991   0.00000  Uiso   1.00
C2     C     0.76505   0.45023   0.99514   0.00000  Uiso   1.00
C3     C     0.78204   0.37101   0.01442   0.00000  Uiso   1.00
C4     C     0.76766   0.35370   0.09599   0.00000  Uiso   1.00
C5     C     0.75487   0.29462   0.21918   0.00000  Uiso   1.00
C6     C     0.69113   0.50963   0.87642   0.00000  Uiso   1.00
C7     C     0.64598   0.48035   0.79586   0.00000  Uiso   1.00
C8     C     0.56939   0.51305   0.77749   0.00000  Uiso   1.00
C9     C     0.44186   0.54623   0.71633   0.00000  Uiso   1.00
C10    C     0.83430   0.56283   0.93395   0.00000  Uiso   1.00
C11    C     0.90952   0.57830   0.90176   0.00000  Uiso   1.00
C12    C     0.95346   0.65580   0.93181   0.00000  Uiso   1.00
C13    C     0.04822   0.77159   0.95999   0.00000  Uiso   1.00
C14    C     0.72049   0.59254   0.02050   0.00000  Uiso   1.00
C15    C     0.73477   0.51005   0.05521   0.00000  Uiso   1.00
C16    C     0.72037   0.49286   0.13678   0.00000  Uiso   1.00
C17    C     0.73734   0.41362   0.15617   0.00000  Uiso   1.00
C18    C     0.66085   0.56944   0.93648   0.00000  Uiso   1.00
C19    C     0.58431   0.60220   0.91822   0.00000  Uiso   1.00
C20    C     0.53905   0.57297   0.83767   0.00000  Uiso   1.00
C21    C     0.80402   0.62265   0.99403   0.00000  Uiso   1.00
C22    C     0.84785   0.70014   0.02413   0.00000  Uiso   1.00
C23    C     0.92312   0.71573   0.99199   0.00000  Uiso   1.00
H24    H     0.79980   0.43584   0.86314   0.00000  Uiso   1.00
H25    H     0.80547   0.32473   0.96791   0.00000  Uiso   1.00
H26    H     0.66943   0.43406   0.74939   0.00000  Uiso   1.00
H27    H     0.93293   0.53200   0.85528   0.00000  Uiso   1.00
H28    H     0.79837   0.22792   0.11055   0.00000  Uiso   1.00
H29    H     0.51155   0.45847   0.64977   0.00000  Uiso   1.00
H30    H     0.06719   0.66498   0.87305   0.00000  Uiso   1.00
H31    H     0.69691   0.63911   0.06727   0.00000  Uiso   1.00
H32    H     0.69693   0.53916   0.18325   0.00000  Uiso   1.00
H33    H     0.56090   0.64849   0.96472   0.00000  Uiso   1.00
H34    H     0.82440   0.74642   0.07061   0.00000  Uiso   1.00
H35    H     0.71027   0.40196   0.28532   0.00000  Uiso   1.00
H36    H     0.42345   0.63251   0.82454   0.00000  Uiso   1.00
H37    H     0.97909   0.83902   0.04782   0.00000  Uiso   1.00
O38    O     0.75616   0.24551   0.27053   0.00000  Uiso   1.00
O39    O     0.37988   0.54800   0.66600   0.00000  Uiso   1.00
O40    O     0.10886   0.81893   0.95895   0.00000  Uiso   1.00
N41    N     0.77765   0.28260   0.13577   0.00000  Uiso   1.00
N42    N     0.50948   0.49815   0.70498   0.00000  Uiso   1.00
N43    N     0.02895   0.69122   0.91371   0.00000  Uiso   1.00
N44    N     0.73025   0.37625   0.22981   0.00000  Uiso   1.00
N45    N     0.46208   0.59179   0.79902   0.00000  Uiso   1.00
N46    N     0.98155   0.78487   0.00775   0.00000  Uiso   1.00
C47    C     0.90662   0.77452   0.48385   0.00000  Uiso   1.00
C48    C     0.99012   0.76030   0.44950   0.00000  Uiso   1.00
C49    C     0.00970   0.77406   0.36845   0.00000  Uiso   1.00
C50    C     0.08948   0.75725   0.34931   0.00000  Uiso   1.00
C51    C     0.21030   0.73962   0.28685   0.00000  Uiso   1.00
C52    C     0.87598   0.69077   0.50885   0.00000  Uiso   1.00
C53    C     0.79958   0.64608   0.47772   0.00000  Uiso   1.00
C54    C     0.78328   0.57075   0.50855   0.00000  Uiso   1.00
C55    C     0.72685   0.44521   0.53830   0.00000  Uiso   1.00
C56    C     0.92701   0.83525   0.56865   0.00000  Uiso   1.00
C57    C     0.89349   0.91204   0.58781   0.00000  Uiso   1.00
C58    C     0.92013   0.95834   0.66899   0.00000  Uiso   1.00
C59    C     0.94294   0.05712   0.79158   0.00000  Uiso   1.00
C60    C     0.01351   0.72020   0.59396   0.00000  Uiso   1.00
C61    C     0.04818   0.73079   0.50930   0.00000  Uiso   1.00
C62    C     0.12796   0.71396   0.49028   0.00000  Uiso   1.00
C63    C     0.14765   0.72770   0.40922   0.00000  Uiso   1.00
C64    C     0.93404   0.66126   0.56866   0.00000  Uiso   1.00
C65    C     0.91784   0.58599   0.59954   0.00000  Uiso   1.00
C66    C     0.84144   0.54119   0.56847   0.00000  Uiso   1.00
C67    C     0.98507   0.80575   0.62846   0.00000  Uiso   1.00
C68    C     0.01176   0.85194   0.70963   0.00000  Uiso   1.00
C69    C     0.97830   0.92878   0.72891   0.00000  Uiso   1.00
H70    H     0.86141   0.79748   0.43729   0.00000  Uiso   1.00
H71    H     0.96474   0.79688   0.32218   0.00000  Uiso   1.00
H72    H     0.75466   0.66893   0.43145   0.00000  Uiso   1.00
H73    H     0.84856   0.93485   0.54151   0.00000  Uiso   1.00
H74    H     0.10490   0.78318   0.22094   0.00000  Uiso   1.00
H75    H     0.66190   0.51341   0.45134   0.00000  Uiso   1.00
H76    H     0.85991   0.07413   0.68344   0.00000  Uiso   1.00
H77    H     0.05872   0.69723   0.64052   0.00000  Uiso   1.00
H78    H     0.17288   0.69113   0.53657   0.00000  Uiso   1.00
H79    H     0.96279   0.56318   0.64583   0.00000  Uiso   1.00
H80    H     0.05669   0.82909   0.75590   0.00000  Uiso   1.00
H81    H     0.27383   0.69734   0.39494   0.00000  Uiso   1.00
H82    H     0.83083   0.42757   0.62534   0.00000  Uiso   1.00
H83    H     0.02884   0.98829   0.85744   0.00000  Uiso   1.00
O84    O     0.26089   0.73803   0.23588   0.00000  Uiso   1.00
O85    O     0.67969   0.38411   0.53817   0.00000  Uiso   1.00
O86    O     0.93948   0.11977   0.84268   0.00000  Uiso   1.00
N87    N     0.12900   0.76383   0.27616   0.00000  Uiso   1.00
N88    N     0.71483   0.51160   0.49156   0.00000  Uiso   1.00
N89    N     0.89993   0.03582   0.70857   0.00000  Uiso   1.00
N90    N     0.21990   0.71764   0.36979   0.00000  Uiso   1.00
N91    N     0.80573   0.46541   0.58519   0.00000  Uiso   1.00
N92    N     0.99083   0.98964   0.80219   0.00000  Uiso   1.00
C93    C     0.48327   0.91043   0.77808   0.00000  Uiso   1.00
C94    C     0.44794   0.99449   0.76703   0.00000  Uiso   1.00
C95    C     0.36859   0.01638   0.78272   0.00000  Uiso   1.00
C96    C     0.34814   0.09629   0.76872   0.00000  Uiso   1.00
C97    C     0.28461   0.21830   0.75589   0.00000  Uiso   1.00
C98    C     0.50977   0.87607   0.69047   0.00000  Uiso   1.00
C99    C     0.48240   0.79838   0.64179   0.00000  Uiso   1.00
C100   C     0.51401   0.77861   0.56334   0.00000  Uiso   1.00
C101   C     0.54651   0.71674   0.43167   0.00000  Uiso   1.00
C102   C     0.56393   0.93130   0.84057   0.00000  Uiso   1.00
C103   C     0.58212   0.90004   0.91810   0.00000  Uiso   1.00
C104   C     0.65935   0.92675   0.96602   0.00000  Uiso   1.00
C105   C     0.77594   0.95064   0.06741   0.00000  Uiso   1.00
C106   C     0.58808   0.01344   0.72532   0.00000  Uiso   1.00
C107   C     0.50487   0.05044   0.73837   0.00000  Uiso   1.00
C108   C     0.48455   0.13035   0.72435   0.00000  Uiso   1.00
C109   C     0.40518   0.15235   0.74002   0.00000  Uiso   1.00
C110   C     0.56669   0.93202   0.66181   0.00000  Uiso   1.00
C111   C     0.59836   0.91235   0.58342   0.00000  Uiso   1.00
C112   C     0.57104   0.83466   0.53463   0.00000  Uiso   1.00
C113   C     0.62086   0.98726   0.81192   0.00000  Uiso   1.00
C114   C     0.69808   0.01401   0.85972   0.00000  Uiso   1.00
C115   C     0.71638   0.98280   0.93731   0.00000  Uiso   1.00
H116   H     0.43895   0.86687   0.80039   0.00000  Uiso   1.00
H117   H     0.32455   0.97306   0.80489   0.00000  Uiso   1.00
H118   H     0.43835   0.75510   0.66399   0.00000  Uiso   1.00
H119   H     0.53805   0.85675   0.94026   0.00000  Uiso   1.00
H120   H     0.22280   0.11546   0.79722   0.00000  Uiso   1.00
H121   H     0.46278   0.65586   0.50013   0.00000  Uiso   1.00
H122   H     0.67302   0.87020   0.08269   0.00000  Uiso   1.00
H123   H     0.63241   0.05700   0.70300   0.00000  Uiso   1.00
H124   H     0.52862   0.17363   0.70217   0.00000  Uiso   1.00
H125   H     0.64242   0.95566   0.56126   0.00000  Uiso   1.00
H126   H     0.74212   0.05731   0.83753   0.00000  Uiso   1.00
H127   H     0.38843   0.27825   0.71384   0.00000  Uiso   1.00
H128   H     0.62841   0.81864   0.41675   0.00000  Uiso   1.00
H129   H     0.83865   0.03299   0.99931   0.00000  Uiso   1.00
O130   O     0.23384   0.27014   0.75671   0.00000  Uiso   1.00
O131   O     0.54870   0.66715   0.36695   0.00000  Uiso   1.00
O132   O     0.82452   0.94837   0.13126   0.00000  Uiso   1.00
N133   N     0.27603   0.13777   0.77773   0.00000  Uiso   1.00
N134   N     0.50039   0.70808   0.49996   0.00000  Uiso   1.00
N135   N     0.69696   0.90845   0.04460   0.00000  Uiso   1.00
N136   N     0.36515   0.22537   0.73286   0.00000  Uiso   1.00
N137   N     0.58951   0.79567   0.45510   0.00000  Uiso   1.00
N138   N     0.78608   0.99605   0.99973   0.00000  Uiso   1.00
C139   C     0.22377   0.51759   0.09009   0.00000  Uiso   1.00
C140   C     0.23495   0.54977   0.00486   0.00000  Uiso   1.00
C141   C     0.21796   0.62899   0.98558   0.00000  Uiso   1.00
C142   C     0.23234   0.64630   0.90401   0.00000  Uiso   1.00
C143   C     0.24513   0.70538   0.78082   0.00000  Uiso   1.00
C144   C     0.30887   0.49037   0.12358   0.00000  Uiso   1.00
C145   C     0.35402   0.51965   0.20414   0.00000  Uiso   1.00
C146   C     0.43062   0.48695   0.22251   0.00000  Uiso   1.00
C147   C     0.55814   0.45377   0.28367   0.00000  Uiso   1.00
C148   C     0.16570   0.43717   0.06605   0.00000  Uiso   1.00
C149   C     0.09048   0.42170   0.09824   0.00000  Uiso   1.00
C150   C     0.04654   0.34420   0.06819   0.00000  Uiso   1.00
C151   C     0.95178   0.22841   0.04001   0.00000  Uiso   1.00
C152   C     0.27952   0.40746   0.97950   0.00000  Uiso   1.00
C153   C     0.26523   0.48995   0.94479   0.00000  Uiso   1.00
C154   C     0.27963   0.50714   0.86322   0.00000  Uiso   1.00
C155   C     0.26266   0.58638   0.84383   0.00000  Uiso   1.00
C156   C     0.33915   0.43056   0.06352   0.00000  Uiso   1.00
C157   C     0.41569   0.39780   0.08178   0.00000  Uiso   1.00
C158   C     0.46095   0.42703   0.16233   0.00000  Uiso   1.00
C159   C     0.19598   0.37735   0.00597   0.00000  Uiso   1.00
C160   C     0.15215   0.29986   0.97587   0.00000  Uiso   1.00
C161   C     0.07688   0.28427   0.00801   0.00000  Uiso   1.00
H162   H     0.20020   0.56416   0.13686   0.00000  Uiso   1.00
H163   H     0.19453   0.67527   0.03209   0.00000  Uiso   1.00
H164   H     0.33057   0.56594   0.25061   0.00000  Uiso   1.00
H165   H     0.06707   0.46800   0.14472   0.00000  Uiso   1.00
H166   H     0.20163   0.77208   0.88945   0.00000  Uiso   1.00
H167   H     0.48845   0.54153   0.35023   0.00000  Uiso   1.00
H168   H     0.93281   0.33502   0.12695   0.00000  Uiso   1.00
H169   H     0.30309   0.36089   0.93273   0.00000  Uiso   1.00
H170   H     0.30307   0.46084   0.81675   0.00000  Uiso   1.00
H171   H     0.43910   0.35151   0.03528   0.00000  Uiso   1.00
H172   H     0.17560   0.25358   0.92939   0.00000  Uiso   1.00
H173   H     0.28973   0.59804   0.71468   0.00000  Uiso   1.00
H174   H     0.57655   0.36749   0.17546   0.00000  Uiso   1.00
H175   H     0.02091   0.16098   0.95218   0.00000  Uiso   1.00
O176   O     0.24384   0.75449   0.72947   0.00000  Uiso   1.00
O177   O     0.62012   0.45200   0.33400   0.00000  Uiso   1.00
O178   O     0.89114   0.18107   0.04105   0.00000  Uiso   1.00
N179   N     0.22235   0.71740   0.86423   0.00000  Uiso   1.00
N180   N     0.49052   0.50185   0.29502   0.00000  Uiso   1.00
N181   N     0.97105   0.30878   0.08629   0.00000  Uiso   1.00
N182   N     0.26975   0.62375   0.77019   0.00000  Uiso   1.00
N183   N     0.53792   0.40821   0.20098   0.00000  Uiso   1.00
N184   N     0.01845   0.21513   0.99225   0.00000  Uiso   1.00
C185   C     0.09338   0.22548   0.51615   0.00000  Uiso   1.00
C186   C     0.00988   0.23970   0.55050   0.00000  Uiso   1.00
C187   C     0.99030   0.22594   0.63155   0.00000  Uiso   1.00
C188   C     0.91052   0.24275   0.65069   0.00000  Uiso   1.00
C189   C     0.78970   0.26038   0.71315   0.00000  Uiso   1.00
C190   C     0.12402   0.30923   0.49115   0.00000  Uiso   1.00
C191   C     0.20042   0.35392   0.52228   0.00000  Uiso   1.00
C192   C     0.21672   0.42925   0.49145   0.00000  Uiso   1.00
C193   C     0.27315   0.55479   0.46170   0.00000  Uiso   1.00
C194   C     0.07300   0.16475   0.43135   0.00000  Uiso   1.00
C195   C     0.10651   0.08796   0.41219   0.00000  Uiso   1.00
C196   C     0.07987   0.04166   0.33101   0.00000  Uiso   1.00
C197   C     0.05706   0.94288   0.20842   0.00000  Uiso   1.00
C198   C     0.98649   0.27980   0.40604   0.00000  Uiso   1.00
C199   C     0.95182   0.26921   0.49070   0.00000  Uiso   1.00
C200   C     0.87204   0.28604   0.50972   0.00000  Uiso   1.00
C201   C     0.85235   0.27230   0.59078   0.00000  Uiso   1.00
C202   C     0.06596   0.33874   0.43134   0.00000  Uiso   1.00
C203   C     0.08216   0.41401   0.40046   0.00000  Uiso   1.00
C204   C     0.15856   0.45881   0.43153   0.00000  Uiso   1.00
C205   C     0.01493   0.19425   0.37154   0.00000  Uiso   1.00
C206   C     0.98824   0.14806   0.29037   0.00000  Uiso   1.00
C207   C     0.02170   0.07122   0.27109   0.00000  Uiso   1.00
H208   H     0.13859   0.20252   0.56271   0.00000  Uiso   1.00
H209   H     0.03526   0.20312   0.67782   0.00000  Uiso   1.00
H210   H     0.24534   0.33107   0.56855   0.00000  Uiso   1.00
H211   H     0.15144   0.06515   0.45849   0.00000  Uiso   1.00
H212   H     0.89510   0.21682   0.77906   0.00000  Uiso   1.00
H213   H     0.33810   0.48659   0.54866   0.00000  Uiso   1.00
H214   H     0.14009   0.92587   0.31656   0.00000  Uiso   1.00
H215   H     0.94128   0.30277   0.35948   0.00000  Uiso   1.00
H216   H     0.82712   0.30887   0.46343   0.00000  Uiso   1.00
H217   H     0.03721   0.43682   0.35417   0.00000  Uiso   1.00
H218   H     0.94331   0.17091   0.24410   0.00000  Uiso   1.00
H219   H     0.72617   0.30266   0.60506   0.00000  Uiso   1.00
H220   H     0.16917   0.57243   0.37466   0.00000  Uiso   1.00
H221   H     0.97116   0.01171   0.14256   0.00000  Uiso   1.00
O222   O     0.73911   0.26197   0.76412   0.00000  Uiso   1.00
O223   O     0.32031   0.61589   0.46183   0.00000  Uiso   1.00
O224   O     0.06052   0.88023   0.15732   0.00000  Uiso   1.00
N225   N     0.87100   0.23617   0.72384   0.00000  Uiso   1.00
N226   N     0.28517   0.48840   0.50844   0.00000  Uiso   1.00
N227   N     0.10007   0.96418   0.29143   0.00000  Uiso   1.00
N228   N     0.78010   0.28236   0.63021   0.00000  Uiso   1.00
N229   N     0.19427   0.53459   0.41481   0.00000  Uiso   1.00
N230   N     0.00917   0.01036   0.19781   0.00000  Uiso   1.00
C231   C     0.51673   0.08957   0.22192   0.00000  Uiso   1.00
C232   C     0.55206   0.00551   0.23297   0.00000  Uiso   1.00
C233   C     0.63141   0.98362   0.21728   0.00000  Uiso   1.00
C234   C     0.65186   0.90371   0.23128   0.00000  Uiso   1.00
C235   C     0.71539   0.78170   0.24411   0.00000  Uiso   1.00
C236   C     0.49023   0.12393   0.30953   0.00000  Uiso   1.00
C237   C     0.51760   0.20162   0.35821   0.00000  Uiso   1.00
C238   C     0.48599   0.22139   0.43666   0.00000  Uiso   1.00
C239   C     0.45349   0.28326   0.56833   0.00000  Uiso   1.00
C240   C     0.43607   0.06870   0.15943   0.00000  Uiso   1.00
C241   C     0.41788   0.09996   0.08190   0.00000  Uiso   1.00
C242   C     0.34065   0.07325   0.03398   0.00000  Uiso   1.00
C243   C     0.22406   0.04936   0.93259   0.00000  Uiso   1.00
C244   C     0.41192   0.98656   0.27468   0.00000  Uiso   1.00
C245   C     0.49513   0.94956   0.26163   0.00000  Uiso   1.00
C246   C     0.51545   0.86965   0.27565   0.00000  Uiso   1.00
C247   C     0.59482   0.84765   0.25998   0.00000  Uiso   1.00
C248   C     0.43331   0.06798   0.33819   0.00000  Uiso   1.00
C249   C     0.40164   0.08765   0.41658   0.00000  Uiso   1.00
C250   C     0.42896   0.16534   0.46537   0.00000  Uiso   1.00
C251   C     0.37914   0.01274   0.18808   0.00000  Uiso   1.00
C252   C     0.30192   0.98599   0.14028   0.00000  Uiso   1.00
C253   C     0.28362   0.01720   0.06269   0.00000  Uiso   1.00
H254   H     0.56105   0.13313   0.19961   0.00000  Uiso   1.00
H255   H     0.67545   0.02694   0.19511   0.00000  Uiso   1.00
H256   H     0.56165   0.24490   0.33601   0.00000  Uiso   1.00
H257   H     0.46195   0.14325   0.05974   0.00000  Uiso   1.00
H258   H     0.77720   0.88454   0.20278   0.00000  Uiso   1.00
H259   H     0.53722   0.34414   0.49987   0.00000  Uiso   1.00
H260   H     0.32698   0.12980   0.91731   0.00000  Uiso   1.00
H261   H     0.36759   0.94300   0.29700   0.00000  Uiso   1.00
H262   H     0.47139   0.82637   0.29783   0.00000  Uiso   1.00
H263   H     0.35758   0.04434   0.43874   0.00000  Uiso   1.00
H264   H     0.25788   0.94269   0.16247   0.00000  Uiso   1.00
H265   H     0.61157   0.72175   0.28616   0.00000  Uiso   1.00
H266   H     0.37159   0.18136   0.58325   0.00000  Uiso   1.00
H267   H     0.16135   0.96701   0.00069   0.00000  Uiso   1.00
O268   O     0.76616   0.72986   0.24329   0.00000  Uiso   1.00
O269   O     0.45130   0.33285   0.63305   0.00000  Uiso   1.00
O270   O     0.17548   0.05163   0.86874   0.00000  Uiso   1.00
N271   N     0.72397   0.86223   0.22227   0.00000  Uiso   1.00
N272   N     0.49961   0.29192   0.50004   0.00000  Uiso   1.00
N273   N     0.30304   0.09155   0.95540   0.00000  Uiso   1.00
N274   N     0.63485   0.77463   0.26714   0.00000  Uiso   1.00
N275   N     0.41049   0.20433   0.54490   0.00000  Uiso   1.00
N276   N     0.21392   0.00395   0.00027   0.00000  Uiso   1.00
