data_job_01508
_audit_creation_date              2018-12-19
_audit_creation_method            'Materials Studio'
_symmetry_space_group_name_H-M    'P1'
_symmetry_Int_Tables_number       1
_symmetry_cell_setting            triclinic
loop_
_symmetry_equiv_pos_as_xyz
  x,y,z
_cell_length_a                    31.5761
_cell_length_b                    9.7202
_cell_length_c                    17.4671
_cell_angle_alpha                 90.0000
_cell_angle_beta                  90.0000
_cell_angle_gamma                 90.0000
loop_
_atom_site_label
_atom_site_type_symbol
_atom_site_fract_x
_atom_site_fract_y
_atom_site_fract_z
_atom_site_U_iso_or_equiv
_atom_site_adp_type
_atom_site_occupancy
C1     C     0.93368   0.78480   0.93503   0.00000  Uiso   1.00
C2     C     0.89652   0.88494   0.93313   0.00000  Uiso   1.00
C3     C     0.89950   0.02735   0.93477   0.00000  Uiso   1.00
C4     C     0.86180   0.10074   0.93258   0.00000  Uiso   1.00
C5     C     0.81007   0.26638   0.93024   0.00000  Uiso   1.00
C6     C     0.92585   0.69041   0.00330   0.00000  Uiso   1.00
C7     C     0.95349   0.66925   0.06395   0.00000  Uiso   1.00
C8     C     0.94048   0.57887   0.12082   0.00000  Uiso   1.00
C9     C     0.93429   0.44242   0.22740   0.00000  Uiso   1.00
C10    C     0.92916   0.69483   0.86398   0.00000  Uiso   1.00
C11    C     0.95960   0.67736   0.80749   0.00000  Uiso   1.00
C12    C     0.94938   0.59067   0.74707   0.00000  Uiso   1.00
C13    C     0.94833   0.46108   0.63732   0.00000  Uiso   1.00
C14    C     0.86142   0.66189   0.92820   0.00000  Uiso   1.00
C15    C     0.85727   0.81817   0.92942   0.00000  Uiso   1.00
C16    C     0.81956   0.89136   0.92722   0.00000  Uiso   1.00
C17    C     0.82248   0.03386   0.92887   0.00000  Uiso   1.00
C18    C     0.88660   0.62365   0.99960   0.00000  Uiso   1.00
C19    C     0.87354   0.53326   0.05640   0.00000  Uiso   1.00
C20    C     0.90116   0.51198   0.11711   0.00000  Uiso   1.00
C21    C     0.88991   0.62807   0.86027   0.00000  Uiso   1.00
C22    C     0.87965   0.54138   0.79994   0.00000  Uiso   1.00
C23    C     0.91006   0.52378   0.74336   0.00000  Uiso   1.00
H24    H     0.96424   0.83677   0.93791   0.00000  Uiso   1.00
H25    H     0.92988   0.07898   0.93765   0.00000  Uiso   1.00
H26    H     0.98386   0.72092   0.06679   0.00000  Uiso   1.00
H27    H     0.98996   0.72904   0.81037   0.00000  Uiso   1.00
H28    H     0.87448   0.31806   0.93575   0.00000  Uiso   1.00
H29    H     0.98831   0.56305   0.20804   0.00000  Uiso   1.00
H30    H     0.00118   0.58015   0.66733   0.00000  Uiso   1.00
H31    H     0.83087   0.60991   0.92532   0.00000  Uiso   1.00
H32    H     0.78919   0.83967   0.92436   0.00000  Uiso   1.00
H33    H     0.84317   0.48161   0.05351   0.00000  Uiso   1.00
H34    H     0.84927   0.48973   0.79709   0.00000  Uiso   1.00
H35    H     0.76029   0.12383   0.92496   0.00000  Uiso   1.00
H36    H     0.87412   0.36881   0.19726   0.00000  Uiso   1.00
H37    H     0.88698   0.38592   0.65655   0.00000  Uiso   1.00
O38    O     0.79237   0.37618   0.92998   0.00000  Uiso   1.00
O39    O     0.94171   0.38561   0.28721   0.00000  Uiso   1.00
O40    O     0.95860   0.40807   0.57781   0.00000  Uiso   1.00
N41    N     0.85333   0.24082   0.93333   0.00000  Uiso   1.00
N42    N     0.95974   0.53494   0.18791   0.00000  Uiso   1.00
N43    N     0.97178   0.55091   0.68240   0.00000  Uiso   1.00
N44    N     0.79188   0.13630   0.92752   0.00000  Uiso   1.00
N45    N     0.89830   0.43043   0.18211   0.00000  Uiso   1.00
N46    N     0.91033   0.44639   0.67660   0.00000  Uiso   1.00
C47    C     0.56632   0.71520   0.93503   0.00000  Uiso   1.00
C48    C     0.60348   0.61506   0.93313   0.00000  Uiso   1.00
C49    C     0.60050   0.47265   0.93477   0.00000  Uiso   1.00
C50    C     0.63820   0.39926   0.93258   0.00000  Uiso   1.00
C51    C     0.68993   0.23362   0.93024   0.00000  Uiso   1.00
C52    C     0.57415   0.80959   0.00330   0.00000  Uiso   1.00
C53    C     0.54651   0.83075   0.06395   0.00000  Uiso   1.00
C54    C     0.55952   0.92113   0.12082   0.00000  Uiso   1.00
C55    C     0.56571   0.05758   0.22740   0.00000  Uiso   1.00
C56    C     0.57084   0.80517   0.86398   0.00000  Uiso   1.00
C57    C     0.54040   0.82264   0.80749   0.00000  Uiso   1.00
C58    C     0.55062   0.90933   0.74707   0.00000  Uiso   1.00
C59    C     0.55167   0.03892   0.63732   0.00000  Uiso   1.00
C60    C     0.63858   0.83811   0.92820   0.00000  Uiso   1.00
C61    C     0.64273   0.68183   0.92942   0.00000  Uiso   1.00
C62    C     0.68044   0.60864   0.92722   0.00000  Uiso   1.00
C63    C     0.67752   0.46614   0.92887   0.00000  Uiso   1.00
C64    C     0.61340   0.87635   0.99960   0.00000  Uiso   1.00
C65    C     0.62646   0.96674   0.05640   0.00000  Uiso   1.00
C66    C     0.59884   0.98802   0.11711   0.00000  Uiso   1.00
C67    C     0.61009   0.87193   0.86027   0.00000  Uiso   1.00
C68    C     0.62035   0.95862   0.79994   0.00000  Uiso   1.00
C69    C     0.58994   0.97622   0.74336   0.00000  Uiso   1.00
H70    H     0.53576   0.66323   0.93791   0.00000  Uiso   1.00
H71    H     0.57012   0.42102   0.93765   0.00000  Uiso   1.00
H72    H     0.51614   0.77908   0.06679   0.00000  Uiso   1.00
H73    H     0.51004   0.77096   0.81037   0.00000  Uiso   1.00
H74    H     0.62552   0.18194   0.93575   0.00000  Uiso   1.00
H75    H     0.51169   0.93695   0.20804   0.00000  Uiso   1.00
H76    H     0.49882   0.91985   0.66733   0.00000  Uiso   1.00
H77    H     0.66913   0.89009   0.92532   0.00000  Uiso   1.00
H78    H     0.71081   0.66033   0.92436   0.00000  Uiso   1.00
H79    H     0.65683   0.01839   0.05351   0.00000  Uiso   1.00
H80    H     0.65073   0.01027   0.79709   0.00000  Uiso   1.00
H81    H     0.73971   0.37617   0.92496   0.00000  Uiso   1.00
H82    H     0.62588   0.13119   0.19726   0.00000  Uiso   1.00
H83    H     0.61302   0.11408   0.65655   0.00000  Uiso   1.00
O84    O     0.70763   0.12382   0.92998   0.00000  Uiso   1.00
O85    O     0.55829   0.11439   0.28721   0.00000  Uiso   1.00
O86    O     0.54140   0.09193   0.57781   0.00000  Uiso   1.00
N87    N     0.64667   0.25918   0.93333   0.00000  Uiso   1.00
N88    N     0.54026   0.96506   0.18791   0.00000  Uiso   1.00
N89    N     0.52822   0.94909   0.68240   0.00000  Uiso   1.00
N90    N     0.70812   0.36370   0.92752   0.00000  Uiso   1.00
N91    N     0.60170   0.06957   0.18211   0.00000  Uiso   1.00
N92    N     0.58967   0.05361   0.67660   0.00000  Uiso   1.00
C93    C     0.06632   0.28480   0.56497   0.00000  Uiso   1.00
C94    C     0.10348   0.38494   0.56687   0.00000  Uiso   1.00
C95    C     0.10050   0.52735   0.56523   0.00000  Uiso   1.00
C96    C     0.13820   0.60074   0.56742   0.00000  Uiso   1.00
C97    C     0.18993   0.76638   0.56976   0.00000  Uiso   1.00
C98    C     0.07415   0.19041   0.49670   0.00000  Uiso   1.00
C99    C     0.04651   0.16925   0.43605   0.00000  Uiso   1.00
C100   C     0.05952   0.07887   0.37918   0.00000  Uiso   1.00
C101   C     0.06571   0.94242   0.27260   0.00000  Uiso   1.00
C102   C     0.07084   0.19483   0.63602   0.00000  Uiso   1.00
C103   C     0.04040   0.17736   0.69251   0.00000  Uiso   1.00
C104   C     0.05062   0.09067   0.75293   0.00000  Uiso   1.00
C105   C     0.05167   0.96108   0.86268   0.00000  Uiso   1.00
C106   C     0.13858   0.16189   0.57180   0.00000  Uiso   1.00
C107   C     0.14273   0.31817   0.57058   0.00000  Uiso   1.00
C108   C     0.18044   0.39136   0.57278   0.00000  Uiso   1.00
C109   C     0.17752   0.53386   0.57113   0.00000  Uiso   1.00
C110   C     0.11340   0.12365   0.50040   0.00000  Uiso   1.00
C111   C     0.12646   0.03326   0.44360   0.00000  Uiso   1.00
C112   C     0.09884   0.01198   0.38289   0.00000  Uiso   1.00
C113   C     0.11009   0.12807   0.63973   0.00000  Uiso   1.00
C114   C     0.12035   0.04138   0.70006   0.00000  Uiso   1.00
C115   C     0.08994   0.02378   0.75664   0.00000  Uiso   1.00
H116   H     0.03576   0.33677   0.56209   0.00000  Uiso   1.00
H117   H     0.07012   0.57898   0.56235   0.00000  Uiso   1.00
H118   H     0.01614   0.22092   0.43321   0.00000  Uiso   1.00
H119   H     0.01004   0.22904   0.68963   0.00000  Uiso   1.00
H120   H     0.12552   0.81806   0.56425   0.00000  Uiso   1.00
H121   H     0.01169   0.06305   0.29196   0.00000  Uiso   1.00
H122   H     0.99882   0.08015   0.83267   0.00000  Uiso   1.00
H123   H     0.16913   0.10991   0.57468   0.00000  Uiso   1.00
H124   H     0.21081   0.33967   0.57564   0.00000  Uiso   1.00
H125   H     0.15683   0.98161   0.44649   0.00000  Uiso   1.00
H126   H     0.15073   0.98973   0.70291   0.00000  Uiso   1.00
H127   H     0.23971   0.62383   0.57504   0.00000  Uiso   1.00
H128   H     0.12588   0.86881   0.30274   0.00000  Uiso   1.00
H129   H     0.11302   0.88592   0.84345   0.00000  Uiso   1.00
O130   O     0.20763   0.87618   0.57002   0.00000  Uiso   1.00
O131   O     0.05829   0.88561   0.21279   0.00000  Uiso   1.00
O132   O     0.04140   0.90807   0.92219   0.00000  Uiso   1.00
N133   N     0.14667   0.74082   0.56667   0.00000  Uiso   1.00
N134   N     0.04026   0.03494   0.31209   0.00000  Uiso   1.00
N135   N     0.02822   0.05091   0.81760   0.00000  Uiso   1.00
N136   N     0.20812   0.63630   0.57248   0.00000  Uiso   1.00
N137   N     0.10170   0.93043   0.31789   0.00000  Uiso   1.00
N138   N     0.08967   0.94639   0.82340   0.00000  Uiso   1.00
C139   C     0.43368   0.21520   0.56497   0.00000  Uiso   1.00
C140   C     0.39652   0.11506   0.56687   0.00000  Uiso   1.00
C141   C     0.39950   0.97265   0.56523   0.00000  Uiso   1.00
C142   C     0.36180   0.89926   0.56742   0.00000  Uiso   1.00
C143   C     0.31007   0.73362   0.56976   0.00000  Uiso   1.00
C144   C     0.42585   0.30959   0.49670   0.00000  Uiso   1.00
C145   C     0.45349   0.33075   0.43605   0.00000  Uiso   1.00
C146   C     0.44048   0.42113   0.37918   0.00000  Uiso   1.00
C147   C     0.43429   0.55758   0.27260   0.00000  Uiso   1.00
C148   C     0.42916   0.30517   0.63602   0.00000  Uiso   1.00
C149   C     0.45960   0.32264   0.69251   0.00000  Uiso   1.00
C150   C     0.44938   0.40933   0.75293   0.00000  Uiso   1.00
C151   C     0.44833   0.53892   0.86268   0.00000  Uiso   1.00
C152   C     0.36142   0.33811   0.57180   0.00000  Uiso   1.00
C153   C     0.35727   0.18183   0.57058   0.00000  Uiso   1.00
C154   C     0.31956   0.10864   0.57278   0.00000  Uiso   1.00
C155   C     0.32248   0.96614   0.57113   0.00000  Uiso   1.00
C156   C     0.38660   0.37635   0.50040   0.00000  Uiso   1.00
C157   C     0.37354   0.46674   0.44360   0.00000  Uiso   1.00
C158   C     0.40116   0.48802   0.38289   0.00000  Uiso   1.00
C159   C     0.38991   0.37193   0.63973   0.00000  Uiso   1.00
C160   C     0.37965   0.45862   0.70006   0.00000  Uiso   1.00
C161   C     0.41006   0.47622   0.75664   0.00000  Uiso   1.00
H162   H     0.46424   0.16323   0.56209   0.00000  Uiso   1.00
H163   H     0.42988   0.92102   0.56235   0.00000  Uiso   1.00
H164   H     0.48386   0.27908   0.43321   0.00000  Uiso   1.00
H165   H     0.48996   0.27096   0.68963   0.00000  Uiso   1.00
H166   H     0.37448   0.68194   0.56425   0.00000  Uiso   1.00
H167   H     0.48831   0.43695   0.29196   0.00000  Uiso   1.00
H168   H     0.50118   0.41985   0.83267   0.00000  Uiso   1.00
H169   H     0.33087   0.39009   0.57468   0.00000  Uiso   1.00
H170   H     0.28919   0.16033   0.57564   0.00000  Uiso   1.00
H171   H     0.34317   0.51839   0.44649   0.00000  Uiso   1.00
H172   H     0.34927   0.51027   0.70291   0.00000  Uiso   1.00
H173   H     0.26029   0.87617   0.57504   0.00000  Uiso   1.00
H174   H     0.37412   0.63119   0.30274   0.00000  Uiso   1.00
H175   H     0.38698   0.61408   0.84345   0.00000  Uiso   1.00
O176   O     0.29237   0.62382   0.57002   0.00000  Uiso   1.00
O177   O     0.44171   0.61439   0.21279   0.00000  Uiso   1.00
O178   O     0.45860   0.59193   0.92219   0.00000  Uiso   1.00
N179   N     0.35333   0.75918   0.56667   0.00000  Uiso   1.00
N180   N     0.45974   0.46506   0.31209   0.00000  Uiso   1.00
N181   N     0.47178   0.44909   0.81760   0.00000  Uiso   1.00
N182   N     0.29188   0.86370   0.57248   0.00000  Uiso   1.00
N183   N     0.39830   0.56957   0.31789   0.00000  Uiso   1.00
N184   N     0.41033   0.55361   0.82340   0.00000  Uiso   1.00
C185   C     0.06632   0.21520   0.06497   0.00000  Uiso   1.00
C186   C     0.10348   0.11506   0.06687   0.00000  Uiso   1.00
C187   C     0.10050   0.97265   0.06523   0.00000  Uiso   1.00
C188   C     0.13820   0.89926   0.06742   0.00000  Uiso   1.00
C189   C     0.18993   0.73362   0.06976   0.00000  Uiso   1.00
C190   C     0.07415   0.30959   0.99670   0.00000  Uiso   1.00
C191   C     0.04651   0.33075   0.93605   0.00000  Uiso   1.00
C192   C     0.05952   0.42113   0.87918   0.00000  Uiso   1.00
C193   C     0.06571   0.55758   0.77260   0.00000  Uiso   1.00
C194   C     0.07084   0.30517   0.13602   0.00000  Uiso   1.00
C195   C     0.04040   0.32264   0.19251   0.00000  Uiso   1.00
C196   C     0.05062   0.40933   0.25293   0.00000  Uiso   1.00
C197   C     0.05167   0.53892   0.36268   0.00000  Uiso   1.00
C198   C     0.13858   0.33811   0.07180   0.00000  Uiso   1.00
C199   C     0.14273   0.18183   0.07058   0.00000  Uiso   1.00
C200   C     0.18044   0.10864   0.07278   0.00000  Uiso   1.00
C201   C     0.17752   0.96614   0.07113   0.00000  Uiso   1.00
C202   C     0.11340   0.37635   0.00040   0.00000  Uiso   1.00
C203   C     0.12646   0.46674   0.94360   0.00000  Uiso   1.00
C204   C     0.09884   0.48802   0.88289   0.00000  Uiso   1.00
C205   C     0.11009   0.37193   0.13973   0.00000  Uiso   1.00
C206   C     0.12035   0.45862   0.20006   0.00000  Uiso   1.00
C207   C     0.08994   0.47622   0.25664   0.00000  Uiso   1.00
H208   H     0.03576   0.16323   0.06209   0.00000  Uiso   1.00
H209   H     0.07012   0.92102   0.06235   0.00000  Uiso   1.00
H210   H     0.01614   0.27908   0.93321   0.00000  Uiso   1.00
H211   H     0.01004   0.27096   0.18963   0.00000  Uiso   1.00
H212   H     0.12552   0.68194   0.06425   0.00000  Uiso   1.00
H213   H     0.01169   0.43695   0.79196   0.00000  Uiso   1.00
H214   H     0.99882   0.41985   0.33267   0.00000  Uiso   1.00
H215   H     0.16913   0.39009   0.07468   0.00000  Uiso   1.00
H216   H     0.21081   0.16033   0.07564   0.00000  Uiso   1.00
H217   H     0.15683   0.51839   0.94649   0.00000  Uiso   1.00
H218   H     0.15073   0.51027   0.20291   0.00000  Uiso   1.00
H219   H     0.23971   0.87617   0.07504   0.00000  Uiso   1.00
H220   H     0.12588   0.63119   0.80274   0.00000  Uiso   1.00
H221   H     0.11302   0.61408   0.34345   0.00000  Uiso   1.00
O222   O     0.20763   0.62382   0.07002   0.00000  Uiso   1.00
O223   O     0.05829   0.61439   0.71279   0.00000  Uiso   1.00
O224   O     0.04140   0.59193   0.42219   0.00000  Uiso   1.00
N225   N     0.14667   0.75918   0.06667   0.00000  Uiso   1.00
N226   N     0.04026   0.46506   0.81209   0.00000  Uiso   1.00
N227   N     0.02822   0.44909   0.31760   0.00000  Uiso   1.00
N228   N     0.20812   0.86370   0.07248   0.00000  Uiso   1.00
N229   N     0.10170   0.56957   0.81789   0.00000  Uiso   1.00
N230   N     0.08967   0.55361   0.32340   0.00000  Uiso   1.00
C231   C     0.43368   0.28480   0.06497   0.00000  Uiso   1.00
C232   C     0.39652   0.38494   0.06687   0.00000  Uiso   1.00
C233   C     0.39950   0.52735   0.06523   0.00000  Uiso   1.00
C234   C     0.36180   0.60074   0.06742   0.00000  Uiso   1.00
C235   C     0.31007   0.76638   0.06976   0.00000  Uiso   1.00
C236   C     0.42585   0.19041   0.99670   0.00000  Uiso   1.00
C237   C     0.45349   0.16925   0.93605   0.00000  Uiso   1.00
C238   C     0.44048   0.07887   0.87918   0.00000  Uiso   1.00
C239   C     0.43429   0.94242   0.77260   0.00000  Uiso   1.00
C240   C     0.42916   0.19483   0.13602   0.00000  Uiso   1.00
C241   C     0.45960   0.17736   0.19251   0.00000  Uiso   1.00
C242   C     0.44938   0.09067   0.25293   0.00000  Uiso   1.00
C243   C     0.44833   0.96108   0.36268   0.00000  Uiso   1.00
C244   C     0.36142   0.16189   0.07180   0.00000  Uiso   1.00
C245   C     0.35727   0.31817   0.07058   0.00000  Uiso   1.00
C246   C     0.31956   0.39136   0.07278   0.00000  Uiso   1.00
C247   C     0.32248   0.53386   0.07113   0.00000  Uiso   1.00
C248   C     0.38660   0.12365   0.00040   0.00000  Uiso   1.00
C249   C     0.37354   0.03326   0.94360   0.00000  Uiso   1.00
C250   C     0.40116   0.01198   0.88289   0.00000  Uiso   1.00
C251   C     0.38991   0.12807   0.13973   0.00000  Uiso   1.00
C252   C     0.37965   0.04138   0.20006   0.00000  Uiso   1.00
C253   C     0.41006   0.02378   0.25664   0.00000  Uiso   1.00
H254   H     0.46424   0.33677   0.06209   0.00000  Uiso   1.00
H255   H     0.42988   0.57898   0.06235   0.00000  Uiso   1.00
H256   H     0.48386   0.22092   0.93321   0.00000  Uiso   1.00
H257   H     0.48996   0.22904   0.18963   0.00000  Uiso   1.00
H258   H     0.37448   0.81806   0.06425   0.00000  Uiso   1.00
H259   H     0.48831   0.06305   0.79196   0.00000  Uiso   1.00
H260   H     0.50118   0.08015   0.33267   0.00000  Uiso   1.00
H261   H     0.33087   0.10991   0.07468   0.00000  Uiso   1.00
H262   H     0.28919   0.33967   0.07564   0.00000  Uiso   1.00
H263   H     0.34317   0.98161   0.94649   0.00000  Uiso   1.00
H264   H     0.34927   0.98973   0.20291   0.00000  Uiso   1.00
H265   H     0.26029   0.62383   0.07504   0.00000  Uiso   1.00
H266   H     0.37412   0.86881   0.80274   0.00000  Uiso   1.00
H267   H     0.38698   0.88592   0.34345   0.00000  Uiso   1.00
O268   O     0.29237   0.87618   0.07002   0.00000  Uiso   1.00
O269   O     0.44171   0.88561   0.71279   0.00000  Uiso   1.00
O270   O     0.45860   0.90807   0.42219   0.00000  Uiso   1.00
N271   N     0.35333   0.74082   0.06667   0.00000  Uiso   1.00
N272   N     0.45974   0.03494   0.81209   0.00000  Uiso   1.00
N273   N     0.47178   0.05091   0.31760   0.00000  Uiso   1.00
N274   N     0.29188   0.63630   0.07248   0.00000  Uiso   1.00
N275   N     0.39830   0.93043   0.81789   0.00000  Uiso   1.00
N276   N     0.41033   0.94639   0.32340   0.00000  Uiso   1.00
C277   C     0.93368   0.71520   0.43503   0.00000  Uiso   1.00
C278   C     0.89652   0.61506   0.43313   0.00000  Uiso   1.00
C279   C     0.89950   0.47265   0.43477   0.00000  Uiso   1.00
C280   C     0.86180   0.39926   0.43258   0.00000  Uiso   1.00
C281   C     0.81007   0.23362   0.43024   0.00000  Uiso   1.00
C282   C     0.92585   0.80959   0.50330   0.00000  Uiso   1.00
C283   C     0.95349   0.83075   0.56395   0.00000  Uiso   1.00
C284   C     0.94048   0.92113   0.62082   0.00000  Uiso   1.00
C285   C     0.93429   0.05758   0.72740   0.00000  Uiso   1.00
C286   C     0.92916   0.80517   0.36398   0.00000  Uiso   1.00
C287   C     0.95960   0.82264   0.30749   0.00000  Uiso   1.00
C288   C     0.94938   0.90933   0.24707   0.00000  Uiso   1.00
C289   C     0.94833   0.03892   0.13732   0.00000  Uiso   1.00
C290   C     0.86142   0.83811   0.42820   0.00000  Uiso   1.00
C291   C     0.85727   0.68183   0.42942   0.00000  Uiso   1.00
C292   C     0.81956   0.60864   0.42722   0.00000  Uiso   1.00
C293   C     0.82248   0.46614   0.42887   0.00000  Uiso   1.00
C294   C     0.88660   0.87635   0.49960   0.00000  Uiso   1.00
C295   C     0.87354   0.96674   0.55640   0.00000  Uiso   1.00
C296   C     0.90116   0.98802   0.61711   0.00000  Uiso   1.00
C297   C     0.88991   0.87193   0.36027   0.00000  Uiso   1.00
C298   C     0.87965   0.95862   0.29994   0.00000  Uiso   1.00
C299   C     0.91006   0.97622   0.24336   0.00000  Uiso   1.00
H300   H     0.96424   0.66323   0.43791   0.00000  Uiso   1.00
H301   H     0.92988   0.42102   0.43765   0.00000  Uiso   1.00
H302   H     0.98386   0.77908   0.56679   0.00000  Uiso   1.00
H303   H     0.98996   0.77096   0.31037   0.00000  Uiso   1.00
H304   H     0.87448   0.18194   0.43575   0.00000  Uiso   1.00
H305   H     0.98831   0.93695   0.70804   0.00000  Uiso   1.00
H306   H     0.00118   0.91985   0.16733   0.00000  Uiso   1.00
H307   H     0.83087   0.89009   0.42532   0.00000  Uiso   1.00
H308   H     0.78919   0.66033   0.42436   0.00000  Uiso   1.00
H309   H     0.84317   0.01839   0.55351   0.00000  Uiso   1.00
H310   H     0.84927   0.01027   0.29709   0.00000  Uiso   1.00
H311   H     0.76029   0.37617   0.42496   0.00000  Uiso   1.00
H312   H     0.87412   0.13119   0.69726   0.00000  Uiso   1.00
H313   H     0.88698   0.11408   0.15655   0.00000  Uiso   1.00
O314   O     0.79237   0.12382   0.42998   0.00000  Uiso   1.00
O315   O     0.94171   0.11439   0.78721   0.00000  Uiso   1.00
O316   O     0.95860   0.09193   0.07781   0.00000  Uiso   1.00
N317   N     0.85333   0.25918   0.43333   0.00000  Uiso   1.00
N318   N     0.95974   0.96506   0.68791   0.00000  Uiso   1.00
N319   N     0.97178   0.94909   0.18240   0.00000  Uiso   1.00
N320   N     0.79188   0.36370   0.42752   0.00000  Uiso   1.00
N321   N     0.89830   0.06957   0.68211   0.00000  Uiso   1.00
N322   N     0.91033   0.05361   0.17660   0.00000  Uiso   1.00
C323   C     0.56632   0.78480   0.43503   0.00000  Uiso   1.00
C324   C     0.60348   0.88494   0.43313   0.00000  Uiso   1.00
C325   C     0.60050   0.02735   0.43477   0.00000  Uiso   1.00
C326   C     0.63820   0.10074   0.43258   0.00000  Uiso   1.00
C327   C     0.68993   0.26638   0.43024   0.00000  Uiso   1.00
C328   C     0.57415   0.69041   0.50330   0.00000  Uiso   1.00
C329   C     0.54651   0.66925   0.56395   0.00000  Uiso   1.00
C330   C     0.55952   0.57887   0.62082   0.00000  Uiso   1.00
C331   C     0.56571   0.44242   0.72740   0.00000  Uiso   1.00
C332   C     0.57084   0.69483   0.36398   0.00000  Uiso   1.00
C333   C     0.54040   0.67736   0.30749   0.00000  Uiso   1.00
C334   C     0.55062   0.59067   0.24707   0.00000  Uiso   1.00
C335   C     0.55167   0.46108   0.13732   0.00000  Uiso   1.00
C336   C     0.63858   0.66189   0.42820   0.00000  Uiso   1.00
C337   C     0.64273   0.81817   0.42942   0.00000  Uiso   1.00
C338   C     0.68044   0.89136   0.42722   0.00000  Uiso   1.00
C339   C     0.67752   0.03386   0.42887   0.00000  Uiso   1.00
C340   C     0.61340   0.62365   0.49960   0.00000  Uiso   1.00
C341   C     0.62646   0.53326   0.55640   0.00000  Uiso   1.00
C342   C     0.59884   0.51198   0.61711   0.00000  Uiso   1.00
C343   C     0.61009   0.62807   0.36027   0.00000  Uiso   1.00
C344   C     0.62035   0.54138   0.29994   0.00000  Uiso   1.00
C345   C     0.58994   0.52378   0.24336   0.00000  Uiso   1.00
H346   H     0.53576   0.83677   0.43791   0.00000  Uiso   1.00
H347   H     0.57012   0.07898   0.43765   0.00000  Uiso   1.00
H348   H     0.51614   0.72092   0.56679   0.00000  Uiso   1.00
H349   H     0.51004   0.72904   0.31037   0.00000  Uiso   1.00
H350   H     0.62552   0.31806   0.43575   0.00000  Uiso   1.00
H351   H     0.51169   0.56305   0.70804   0.00000  Uiso   1.00
H352   H     0.49882   0.58015   0.16733   0.00000  Uiso   1.00
H353   H     0.66913   0.60991   0.42532   0.00000  Uiso   1.00
H354   H     0.71081   0.83967   0.42436   0.00000  Uiso   1.00
H355   H     0.65683   0.48161   0.55351   0.00000  Uiso   1.00
H356   H     0.65073   0.48973   0.29709   0.00000  Uiso   1.00
H357   H     0.73971   0.12383   0.42496   0.00000  Uiso   1.00
H358   H     0.62588   0.36881   0.69726   0.00000  Uiso   1.00
H359   H     0.61302   0.38592   0.15655   0.00000  Uiso   1.00
O360   O     0.70763   0.37618   0.42998   0.00000  Uiso   1.00
O361   O     0.55829   0.38561   0.78721   0.00000  Uiso   1.00
O362   O     0.54140   0.40807   0.07781   0.00000  Uiso   1.00
N363   N     0.64667   0.24082   0.43333   0.00000  Uiso   1.00
N364   N     0.54026   0.53494   0.68791   0.00000  Uiso   1.00
N365   N     0.52822   0.55091   0.18240   0.00000  Uiso   1.00
N366   N     0.70812   0.13630   0.42752   0.00000  Uiso   1.00
N367   N     0.60170   0.43043   0.68211   0.00000  Uiso   1.00
N368   N     0.58967   0.44639   0.17660   0.00000  Uiso   1.00
