data_job_01234
_audit_creation_date              2018-12-19
_audit_creation_method            'Materials Studio'
_symmetry_space_group_name_H-M    'P1'
_symmetry_Int_Tables_number       1
_symmetry_cell_setting            triclinic
loop_
_symmetry_equiv_pos_as_xyz
  x,y,z
_cell_length_a                    44.5107
_cell_length_b                    13.6414
_cell_length_c                    9.7920
_cell_angle_alpha                 90.0000
_cell_angle_beta                  83.9751
_cell_angle_gamma                 90.0000
loop_
_atom_site_label
_atom_site_type_symbol
_atom_site_fract_x
_atom_site_fract_y
_atom_site_fract_z
_atom_site_U_iso_or_equiv
_atom_site_adp_type
_atom_site_occupancy
C1     C     0.12314   0.72683   0.18420   0.00000  Uiso   1.00
C2     C     0.15438   0.69125   0.21225   0.00000  Uiso   1.00
C3     C     0.17239   0.73335   0.30375   0.00000  Uiso   1.00
C4     C     0.20025   0.68991   0.31462   0.00000  Uiso   1.00
C5     C     0.24733   0.64724   0.36998   0.00000  Uiso   1.00
C6     C     0.12499   0.74557   0.03001   0.00000  Uiso   1.00
C7     C     0.11828   0.83335   0.96829   0.00000  Uiso   1.00
C8     C     0.12139   0.83562   0.82575   0.00000  Uiso   1.00
C9     C     0.12281   0.87727   0.59818   0.00000  Uiso   1.00
C10    C     0.10200   0.63950   0.21204   0.00000  Uiso   1.00
C11    C     0.07595   0.63809   0.30335   0.00000  Uiso   1.00
C12    C     0.05970   0.55106   0.31404   0.00000  Uiso   1.00
C13    C     0.02543   0.42801   0.36910   0.00000  Uiso   1.00
C14    C     0.14058   0.57479   0.04079   0.00000  Uiso   1.00
C15    C     0.16386   0.60867   0.13436   0.00000  Uiso   1.00
C16    C     0.19169   0.56514   0.14509   0.00000  Uiso   1.00
C17    C     0.20974   0.60717   0.23660   0.00000  Uiso   1.00
C18    C     0.13446   0.66299   0.95212   0.00000  Uiso   1.00
C19    C     0.13758   0.66513   0.80963   0.00000  Uiso   1.00
C20    C     0.13088   0.75289   0.74771   0.00000  Uiso   1.00
C21    C     0.11148   0.55691   0.13415   0.00000  Uiso   1.00
C22    C     0.09526   0.46987   0.14469   0.00000  Uiso   1.00
C23    C     0.06920   0.46833   0.23600   0.00000  Uiso   1.00
H24    H     0.11576   0.79113   0.24483   0.00000  Uiso   1.00
H25    H     0.16505   0.79727   0.36400   0.00000  Uiso   1.00
H26    H     0.11094   0.89724   0.02859   0.00000  Uiso   1.00
H27    H     0.06863   0.70201   0.36360   0.00000  Uiso   1.00
H28    H     0.22388   0.76768   0.46174   0.00000  Uiso   1.00
H29    H     0.10978   0.97846   0.75452   0.00000  Uiso   1.00
H30    H     0.02055   0.56678   0.46095   0.00000  Uiso   1.00
H31    H     0.14796   0.51050   0.98015   0.00000  Uiso   1.00
H32    H     0.19902   0.50123   0.08480   0.00000  Uiso   1.00
H33    H     0.14491   0.60121   0.74939   0.00000  Uiso   1.00
H34    H     0.10260   0.40598   0.08440   0.00000  Uiso   1.00
H35    H     0.25145   0.52741   0.23513   0.00000  Uiso   1.00
H36    H     0.13735   0.73820   0.52790   0.00000  Uiso   1.00
H37    H     0.04813   0.32651   0.23433   0.00000  Uiso   1.00
O38    O     0.27068   0.64653   0.42202   0.00000  Uiso   1.00
O39    O     0.12098   0.92307   0.49418   0.00000  Uiso   1.00
O40    O     0.00391   0.38295   0.42100   0.00000  Uiso   1.00
N41    N     0.22336   0.71239   0.39407   0.00000  Uiso   1.00
N42    N     0.11669   0.90947   0.73285   0.00000  Uiso   1.00
N43    N     0.03326   0.52459   0.39328   0.00000  Uiso   1.00
N44    N     0.23820   0.58310   0.27213   0.00000  Uiso   1.00
N45    N     0.13153   0.78018   0.61092   0.00000  Uiso   1.00
N46    N     0.04810   0.39530   0.27134   0.00000  Uiso   1.00
C47    C     0.62314   0.22683   0.18420   0.00000  Uiso   1.00
C48    C     0.65438   0.19125   0.21225   0.00000  Uiso   1.00
C49    C     0.67239   0.23335   0.30375   0.00000  Uiso   1.00
C50    C     0.70025   0.18991   0.31462   0.00000  Uiso   1.00
C51    C     0.74733   0.14724   0.36998   0.00000  Uiso   1.00
C52    C     0.62499   0.24557   0.03001   0.00000  Uiso   1.00
C53    C     0.61828   0.33335   0.96829   0.00000  Uiso   1.00
C54    C     0.62139   0.33562   0.82575   0.00000  Uiso   1.00
C55    C     0.62281   0.37727   0.59818   0.00000  Uiso   1.00
C56    C     0.60200   0.13950   0.21204   0.00000  Uiso   1.00
C57    C     0.57595   0.13809   0.30335   0.00000  Uiso   1.00
C58    C     0.55970   0.05106   0.31404   0.00000  Uiso   1.00
C59    C     0.52543   0.92801   0.36910   0.00000  Uiso   1.00
C60    C     0.64058   0.07479   0.04079   0.00000  Uiso   1.00
C61    C     0.66386   0.10867   0.13436   0.00000  Uiso   1.00
C62    C     0.69169   0.06514   0.14509   0.00000  Uiso   1.00
C63    C     0.70974   0.10717   0.23660   0.00000  Uiso   1.00
C64    C     0.63446   0.16299   0.95212   0.00000  Uiso   1.00
C65    C     0.63758   0.16513   0.80963   0.00000  Uiso   1.00
C66    C     0.63088   0.25289   0.74771   0.00000  Uiso   1.00
C67    C     0.61148   0.05691   0.13415   0.00000  Uiso   1.00
C68    C     0.59526   0.96987   0.14469   0.00000  Uiso   1.00
C69    C     0.56920   0.96833   0.23600   0.00000  Uiso   1.00
H70    H     0.61576   0.29113   0.24483   0.00000  Uiso   1.00
H71    H     0.66505   0.29727   0.36400   0.00000  Uiso   1.00
H72    H     0.61094   0.39724   0.02859   0.00000  Uiso   1.00
H73    H     0.56863   0.20201   0.36360   0.00000  Uiso   1.00
H74    H     0.72388   0.26768   0.46174   0.00000  Uiso   1.00
H75    H     0.60978   0.47846   0.75452   0.00000  Uiso   1.00
H76    H     0.52055   0.06678   0.46095   0.00000  Uiso   1.00
H77    H     0.64796   0.01050   0.98015   0.00000  Uiso   1.00
H78    H     0.69902   0.00123   0.08480   0.00000  Uiso   1.00
H79    H     0.64491   0.10121   0.74939   0.00000  Uiso   1.00
H80    H     0.60260   0.90598   0.08440   0.00000  Uiso   1.00
H81    H     0.75145   0.02741   0.23513   0.00000  Uiso   1.00
H82    H     0.63735   0.23820   0.52790   0.00000  Uiso   1.00
H83    H     0.54813   0.82651   0.23433   0.00000  Uiso   1.00
O84    O     0.77068   0.14653   0.42202   0.00000  Uiso   1.00
O85    O     0.62098   0.42307   0.49418   0.00000  Uiso   1.00
O86    O     0.50391   0.88295   0.42100   0.00000  Uiso   1.00
N87    N     0.72336   0.21239   0.39407   0.00000  Uiso   1.00
N88    N     0.61669   0.40947   0.73285   0.00000  Uiso   1.00
N89    N     0.53326   0.02459   0.39328   0.00000  Uiso   1.00
N90    N     0.73820   0.08310   0.27213   0.00000  Uiso   1.00
N91    N     0.63153   0.28018   0.61092   0.00000  Uiso   1.00
N92    N     0.54810   0.89530   0.27134   0.00000  Uiso   1.00
C93    C     0.87686   0.72683   0.31580   0.00000  Uiso   1.00
C94    C     0.84562   0.69125   0.28775   0.00000  Uiso   1.00
C95    C     0.82761   0.73335   0.19625   0.00000  Uiso   1.00
C96    C     0.79975   0.68991   0.18538   0.00000  Uiso   1.00
C97    C     0.75267   0.64724   0.13002   0.00000  Uiso   1.00
C98    C     0.87501   0.74557   0.46999   0.00000  Uiso   1.00
C99    C     0.88172   0.83335   0.53171   0.00000  Uiso   1.00
C100   C     0.87861   0.83562   0.67425   0.00000  Uiso   1.00
C101   C     0.87719   0.87727   0.90182   0.00000  Uiso   1.00
C102   C     0.89800   0.63950   0.28796   0.00000  Uiso   1.00
C103   C     0.92405   0.63809   0.19665   0.00000  Uiso   1.00
C104   C     0.94030   0.55106   0.18596   0.00000  Uiso   1.00
C105   C     0.97457   0.42801   0.13090   0.00000  Uiso   1.00
C106   C     0.85942   0.57479   0.45921   0.00000  Uiso   1.00
C107   C     0.83614   0.60867   0.36564   0.00000  Uiso   1.00
C108   C     0.80831   0.56514   0.35491   0.00000  Uiso   1.00
C109   C     0.79026   0.60717   0.26340   0.00000  Uiso   1.00
C110   C     0.86554   0.66299   0.54788   0.00000  Uiso   1.00
C111   C     0.86242   0.66513   0.69037   0.00000  Uiso   1.00
C112   C     0.86912   0.75289   0.75229   0.00000  Uiso   1.00
C113   C     0.88852   0.55691   0.36585   0.00000  Uiso   1.00
C114   C     0.90474   0.46987   0.35531   0.00000  Uiso   1.00
C115   C     0.93080   0.46833   0.26400   0.00000  Uiso   1.00
H116   H     0.88424   0.79113   0.25517   0.00000  Uiso   1.00
H117   H     0.83495   0.79727   0.13600   0.00000  Uiso   1.00
H118   H     0.88906   0.89724   0.47141   0.00000  Uiso   1.00
H119   H     0.93137   0.70201   0.13640   0.00000  Uiso   1.00
H120   H     0.77612   0.76768   0.03826   0.00000  Uiso   1.00
H121   H     0.89022   0.97846   0.74548   0.00000  Uiso   1.00
H122   H     0.97945   0.56678   0.03905   0.00000  Uiso   1.00
H123   H     0.85204   0.51050   0.51985   0.00000  Uiso   1.00
H124   H     0.80098   0.50123   0.41520   0.00000  Uiso   1.00
H125   H     0.85509   0.60121   0.75061   0.00000  Uiso   1.00
H126   H     0.89740   0.40598   0.41560   0.00000  Uiso   1.00
H127   H     0.74855   0.52741   0.26487   0.00000  Uiso   1.00
H128   H     0.86265   0.73820   0.97210   0.00000  Uiso   1.00
H129   H     0.95187   0.32651   0.26567   0.00000  Uiso   1.00
O130   O     0.72932   0.64653   0.07798   0.00000  Uiso   1.00
O131   O     0.87902   0.92307   0.00582   0.00000  Uiso   1.00
O132   O     0.99609   0.38295   0.07900   0.00000  Uiso   1.00
N133   N     0.77664   0.71239   0.10593   0.00000  Uiso   1.00
N134   N     0.88331   0.90947   0.76715   0.00000  Uiso   1.00
N135   N     0.96674   0.52459   0.10672   0.00000  Uiso   1.00
N136   N     0.76180   0.58310   0.22787   0.00000  Uiso   1.00
N137   N     0.86847   0.78018   0.88908   0.00000  Uiso   1.00
N138   N     0.95190   0.39530   0.22866   0.00000  Uiso   1.00
C139   C     0.37686   0.22683   0.31580   0.00000  Uiso   1.00
C140   C     0.34562   0.19125   0.28775   0.00000  Uiso   1.00
C141   C     0.32761   0.23335   0.19625   0.00000  Uiso   1.00
C142   C     0.29975   0.18991   0.18538   0.00000  Uiso   1.00
C143   C     0.25267   0.14724   0.13002   0.00000  Uiso   1.00
C144   C     0.37501   0.24557   0.46999   0.00000  Uiso   1.00
C145   C     0.38172   0.33335   0.53171   0.00000  Uiso   1.00
C146   C     0.37861   0.33562   0.67425   0.00000  Uiso   1.00
C147   C     0.37719   0.37727   0.90182   0.00000  Uiso   1.00
C148   C     0.39800   0.13950   0.28796   0.00000  Uiso   1.00
C149   C     0.42405   0.13809   0.19665   0.00000  Uiso   1.00
C150   C     0.44030   0.05106   0.18596   0.00000  Uiso   1.00
C151   C     0.47457   0.92801   0.13090   0.00000  Uiso   1.00
C152   C     0.35942   0.07479   0.45921   0.00000  Uiso   1.00
C153   C     0.33614   0.10867   0.36564   0.00000  Uiso   1.00
C154   C     0.30831   0.06514   0.35491   0.00000  Uiso   1.00
C155   C     0.29026   0.10717   0.26340   0.00000  Uiso   1.00
C156   C     0.36554   0.16299   0.54788   0.00000  Uiso   1.00
C157   C     0.36242   0.16513   0.69037   0.00000  Uiso   1.00
C158   C     0.36912   0.25289   0.75229   0.00000  Uiso   1.00
C159   C     0.38852   0.05691   0.36585   0.00000  Uiso   1.00
C160   C     0.40474   0.96987   0.35531   0.00000  Uiso   1.00
C161   C     0.43080   0.96833   0.26400   0.00000  Uiso   1.00
H162   H     0.38424   0.29113   0.25517   0.00000  Uiso   1.00
H163   H     0.33495   0.29727   0.13600   0.00000  Uiso   1.00
H164   H     0.38906   0.39724   0.47141   0.00000  Uiso   1.00
H165   H     0.43137   0.20201   0.13640   0.00000  Uiso   1.00
H166   H     0.27612   0.26768   0.03826   0.00000  Uiso   1.00
H167   H     0.39022   0.47846   0.74548   0.00000  Uiso   1.00
H168   H     0.47945   0.06678   0.03905   0.00000  Uiso   1.00
H169   H     0.35204   0.01050   0.51985   0.00000  Uiso   1.00
H170   H     0.30098   0.00123   0.41520   0.00000  Uiso   1.00
H171   H     0.35509   0.10121   0.75061   0.00000  Uiso   1.00
H172   H     0.39740   0.90598   0.41560   0.00000  Uiso   1.00
H173   H     0.24855   0.02741   0.26487   0.00000  Uiso   1.00
H174   H     0.36265   0.23820   0.97210   0.00000  Uiso   1.00
H175   H     0.45187   0.82651   0.26567   0.00000  Uiso   1.00
O176   O     0.22932   0.14653   0.07798   0.00000  Uiso   1.00
O177   O     0.37902   0.42307   0.00582   0.00000  Uiso   1.00
O178   O     0.49609   0.88295   0.07900   0.00000  Uiso   1.00
N179   N     0.27664   0.21239   0.10593   0.00000  Uiso   1.00
N180   N     0.38331   0.40947   0.76715   0.00000  Uiso   1.00
N181   N     0.46674   0.02459   0.10672   0.00000  Uiso   1.00
N182   N     0.26180   0.08310   0.22787   0.00000  Uiso   1.00
N183   N     0.36847   0.28018   0.88908   0.00000  Uiso   1.00
N184   N     0.45190   0.89530   0.22866   0.00000  Uiso   1.00
C185   C     0.87686   0.27317   0.81580   0.00000  Uiso   1.00
C186   C     0.84562   0.30875   0.78775   0.00000  Uiso   1.00
C187   C     0.82761   0.26665   0.69625   0.00000  Uiso   1.00
C188   C     0.79975   0.31009   0.68538   0.00000  Uiso   1.00
C189   C     0.75267   0.35276   0.63002   0.00000  Uiso   1.00
C190   C     0.87501   0.25443   0.96999   0.00000  Uiso   1.00
C191   C     0.88172   0.16665   0.03171   0.00000  Uiso   1.00
C192   C     0.87861   0.16438   0.17425   0.00000  Uiso   1.00
C193   C     0.87719   0.12273   0.40182   0.00000  Uiso   1.00
C194   C     0.89800   0.36050   0.78796   0.00000  Uiso   1.00
C195   C     0.92405   0.36191   0.69665   0.00000  Uiso   1.00
C196   C     0.94030   0.44894   0.68596   0.00000  Uiso   1.00
C197   C     0.97457   0.57199   0.63090   0.00000  Uiso   1.00
C198   C     0.85942   0.42521   0.95921   0.00000  Uiso   1.00
C199   C     0.83614   0.39133   0.86564   0.00000  Uiso   1.00
C200   C     0.80831   0.43486   0.85491   0.00000  Uiso   1.00
C201   C     0.79026   0.39283   0.76340   0.00000  Uiso   1.00
C202   C     0.86554   0.33701   0.04788   0.00000  Uiso   1.00
C203   C     0.86242   0.33487   0.19037   0.00000  Uiso   1.00
C204   C     0.86912   0.24711   0.25229   0.00000  Uiso   1.00
C205   C     0.88852   0.44309   0.86585   0.00000  Uiso   1.00
C206   C     0.90474   0.53013   0.85531   0.00000  Uiso   1.00
C207   C     0.93080   0.53167   0.76400   0.00000  Uiso   1.00
H208   H     0.88424   0.20887   0.75517   0.00000  Uiso   1.00
H209   H     0.83495   0.20273   0.63600   0.00000  Uiso   1.00
H210   H     0.88906   0.10276   0.97141   0.00000  Uiso   1.00
H211   H     0.93137   0.29799   0.63640   0.00000  Uiso   1.00
H212   H     0.77612   0.23232   0.53826   0.00000  Uiso   1.00
H213   H     0.89022   0.02154   0.24548   0.00000  Uiso   1.00
H214   H     0.97945   0.43322   0.53905   0.00000  Uiso   1.00
H215   H     0.85204   0.48950   0.01985   0.00000  Uiso   1.00
H216   H     0.80098   0.49877   0.91520   0.00000  Uiso   1.00
H217   H     0.85509   0.39879   0.25061   0.00000  Uiso   1.00
H218   H     0.89740   0.59402   0.91560   0.00000  Uiso   1.00
H219   H     0.74855   0.47259   0.76487   0.00000  Uiso   1.00
H220   H     0.86265   0.26180   0.47210   0.00000  Uiso   1.00
H221   H     0.95187   0.67349   0.76567   0.00000  Uiso   1.00
O222   O     0.72932   0.35347   0.57798   0.00000  Uiso   1.00
O223   O     0.87902   0.07693   0.50582   0.00000  Uiso   1.00
O224   O     0.99609   0.61705   0.57900   0.00000  Uiso   1.00
N225   N     0.77664   0.28761   0.60593   0.00000  Uiso   1.00
N226   N     0.88331   0.09053   0.26715   0.00000  Uiso   1.00
N227   N     0.96674   0.47541   0.60672   0.00000  Uiso   1.00
N228   N     0.76180   0.41690   0.72787   0.00000  Uiso   1.00
N229   N     0.86847   0.21982   0.38908   0.00000  Uiso   1.00
N230   N     0.95190   0.60470   0.72866   0.00000  Uiso   1.00
C231   C     0.37686   0.77317   0.81580   0.00000  Uiso   1.00
C232   C     0.34562   0.80875   0.78775   0.00000  Uiso   1.00
C233   C     0.32761   0.76665   0.69625   0.00000  Uiso   1.00
C234   C     0.29975   0.81009   0.68538   0.00000  Uiso   1.00
C235   C     0.25267   0.85276   0.63002   0.00000  Uiso   1.00
C236   C     0.37501   0.75443   0.96999   0.00000  Uiso   1.00
C237   C     0.38172   0.66665   0.03171   0.00000  Uiso   1.00
C238   C     0.37861   0.66438   0.17425   0.00000  Uiso   1.00
C239   C     0.37719   0.62273   0.40182   0.00000  Uiso   1.00
C240   C     0.39800   0.86050   0.78796   0.00000  Uiso   1.00
C241   C     0.42405   0.86191   0.69665   0.00000  Uiso   1.00
C242   C     0.44030   0.94894   0.68596   0.00000  Uiso   1.00
C243   C     0.47457   0.07199   0.63090   0.00000  Uiso   1.00
C244   C     0.35942   0.92521   0.95921   0.00000  Uiso   1.00
C245   C     0.33614   0.89133   0.86564   0.00000  Uiso   1.00
C246   C     0.30831   0.93486   0.85491   0.00000  Uiso   1.00
C247   C     0.29026   0.89283   0.76340   0.00000  Uiso   1.00
C248   C     0.36554   0.83701   0.04788   0.00000  Uiso   1.00
C249   C     0.36242   0.83487   0.19037   0.00000  Uiso   1.00
C250   C     0.36912   0.74711   0.25229   0.00000  Uiso   1.00
C251   C     0.38852   0.94309   0.86585   0.00000  Uiso   1.00
C252   C     0.40474   0.03013   0.85531   0.00000  Uiso   1.00
C253   C     0.43080   0.03167   0.76400   0.00000  Uiso   1.00
H254   H     0.38424   0.70887   0.75517   0.00000  Uiso   1.00
H255   H     0.33495   0.70273   0.63600   0.00000  Uiso   1.00
H256   H     0.38906   0.60276   0.97141   0.00000  Uiso   1.00
H257   H     0.43137   0.79799   0.63640   0.00000  Uiso   1.00
H258   H     0.27612   0.73232   0.53826   0.00000  Uiso   1.00
H259   H     0.39022   0.52154   0.24548   0.00000  Uiso   1.00
H260   H     0.47945   0.93322   0.53905   0.00000  Uiso   1.00
H261   H     0.35204   0.98950   0.01985   0.00000  Uiso   1.00
H262   H     0.30098   0.99877   0.91520   0.00000  Uiso   1.00
H263   H     0.35509   0.89879   0.25061   0.00000  Uiso   1.00
H264   H     0.39740   0.09402   0.91560   0.00000  Uiso   1.00
H265   H     0.24855   0.97259   0.76487   0.00000  Uiso   1.00
H266   H     0.36265   0.76180   0.47210   0.00000  Uiso   1.00
H267   H     0.45187   0.17349   0.76567   0.00000  Uiso   1.00
O268   O     0.22932   0.85347   0.57798   0.00000  Uiso   1.00
O269   O     0.37902   0.57693   0.50582   0.00000  Uiso   1.00
O270   O     0.49609   0.11705   0.57900   0.00000  Uiso   1.00
N271   N     0.27664   0.78761   0.60593   0.00000  Uiso   1.00
N272   N     0.38331   0.59053   0.26715   0.00000  Uiso   1.00
N273   N     0.46674   0.97541   0.60672   0.00000  Uiso   1.00
N274   N     0.26180   0.91690   0.72787   0.00000  Uiso   1.00
N275   N     0.36847   0.71982   0.38908   0.00000  Uiso   1.00
N276   N     0.45190   0.10470   0.72866   0.00000  Uiso   1.00
C277   C     0.12314   0.27317   0.68420   0.00000  Uiso   1.00
C278   C     0.15438   0.30875   0.71225   0.00000  Uiso   1.00
C279   C     0.17239   0.26665   0.80375   0.00000  Uiso   1.00
C280   C     0.20025   0.31009   0.81462   0.00000  Uiso   1.00
C281   C     0.24733   0.35276   0.86998   0.00000  Uiso   1.00
C282   C     0.12499   0.25443   0.53001   0.00000  Uiso   1.00
C283   C     0.11828   0.16665   0.46829   0.00000  Uiso   1.00
C284   C     0.12139   0.16438   0.32575   0.00000  Uiso   1.00
C285   C     0.12281   0.12273   0.09818   0.00000  Uiso   1.00
C286   C     0.10200   0.36050   0.71204   0.00000  Uiso   1.00
C287   C     0.07595   0.36191   0.80335   0.00000  Uiso   1.00
C288   C     0.05970   0.44894   0.81404   0.00000  Uiso   1.00
C289   C     0.02543   0.57199   0.86910   0.00000  Uiso   1.00
C290   C     0.14058   0.42521   0.54079   0.00000  Uiso   1.00
C291   C     0.16386   0.39133   0.63436   0.00000  Uiso   1.00
C292   C     0.19169   0.43486   0.64509   0.00000  Uiso   1.00
C293   C     0.20974   0.39283   0.73660   0.00000  Uiso   1.00
C294   C     0.13446   0.33701   0.45212   0.00000  Uiso   1.00
C295   C     0.13758   0.33487   0.30963   0.00000  Uiso   1.00
C296   C     0.13088   0.24711   0.24771   0.00000  Uiso   1.00
C297   C     0.11148   0.44309   0.63415   0.00000  Uiso   1.00
C298   C     0.09526   0.53013   0.64469   0.00000  Uiso   1.00
C299   C     0.06920   0.53167   0.73600   0.00000  Uiso   1.00
H300   H     0.11576   0.20887   0.74483   0.00000  Uiso   1.00
H301   H     0.16505   0.20273   0.86400   0.00000  Uiso   1.00
H302   H     0.11094   0.10276   0.52859   0.00000  Uiso   1.00
H303   H     0.06863   0.29799   0.86360   0.00000  Uiso   1.00
H304   H     0.22388   0.23232   0.96174   0.00000  Uiso   1.00
H305   H     0.10978   0.02154   0.25452   0.00000  Uiso   1.00
H306   H     0.02055   0.43322   0.96095   0.00000  Uiso   1.00
H307   H     0.14796   0.48950   0.48015   0.00000  Uiso   1.00
H308   H     0.19902   0.49877   0.58480   0.00000  Uiso   1.00
H309   H     0.14491   0.39879   0.24939   0.00000  Uiso   1.00
H310   H     0.10260   0.59402   0.58440   0.00000  Uiso   1.00
H311   H     0.25145   0.47259   0.73513   0.00000  Uiso   1.00
H312   H     0.13735   0.26180   0.02790   0.00000  Uiso   1.00
H313   H     0.04813   0.67349   0.73433   0.00000  Uiso   1.00
O314   O     0.27068   0.35347   0.92202   0.00000  Uiso   1.00
O315   O     0.12098   0.07693   0.99418   0.00000  Uiso   1.00
O316   O     0.00391   0.61705   0.92100   0.00000  Uiso   1.00
N317   N     0.22336   0.28761   0.89407   0.00000  Uiso   1.00
N318   N     0.11669   0.09053   0.23285   0.00000  Uiso   1.00
N319   N     0.03326   0.47541   0.89328   0.00000  Uiso   1.00
N320   N     0.23820   0.41690   0.77213   0.00000  Uiso   1.00
N321   N     0.13153   0.21982   0.11092   0.00000  Uiso   1.00
N322   N     0.04810   0.60470   0.77134   0.00000  Uiso   1.00
C323   C     0.62314   0.77317   0.68420   0.00000  Uiso   1.00
C324   C     0.65438   0.80875   0.71225   0.00000  Uiso   1.00
C325   C     0.67239   0.76665   0.80375   0.00000  Uiso   1.00
C326   C     0.70025   0.81009   0.81462   0.00000  Uiso   1.00
C327   C     0.74733   0.85276   0.86998   0.00000  Uiso   1.00
C328   C     0.62499   0.75443   0.53001   0.00000  Uiso   1.00
C329   C     0.61828   0.66665   0.46829   0.00000  Uiso   1.00
C330   C     0.62139   0.66438   0.32575   0.00000  Uiso   1.00
C331   C     0.62281   0.62273   0.09818   0.00000  Uiso   1.00
C332   C     0.60200   0.86050   0.71204   0.00000  Uiso   1.00
C333   C     0.57595   0.86191   0.80335   0.00000  Uiso   1.00
C334   C     0.55970   0.94894   0.81404   0.00000  Uiso   1.00
C335   C     0.52543   0.07199   0.86910   0.00000  Uiso   1.00
C336   C     0.64058   0.92521   0.54079   0.00000  Uiso   1.00
C337   C     0.66386   0.89133   0.63436   0.00000  Uiso   1.00
C338   C     0.69169   0.93486   0.64509   0.00000  Uiso   1.00
C339   C     0.70974   0.89283   0.73660   0.00000  Uiso   1.00
C340   C     0.63446   0.83701   0.45212   0.00000  Uiso   1.00
C341   C     0.63758   0.83487   0.30963   0.00000  Uiso   1.00
C342   C     0.63088   0.74711   0.24771   0.00000  Uiso   1.00
C343   C     0.61148   0.94309   0.63415   0.00000  Uiso   1.00
C344   C     0.59526   0.03013   0.64469   0.00000  Uiso   1.00
C345   C     0.56920   0.03167   0.73600   0.00000  Uiso   1.00
H346   H     0.61576   0.70887   0.74483   0.00000  Uiso   1.00
H347   H     0.66505   0.70273   0.86400   0.00000  Uiso   1.00
H348   H     0.61094   0.60276   0.52859   0.00000  Uiso   1.00
H349   H     0.56863   0.79799   0.86360   0.00000  Uiso   1.00
H350   H     0.72388   0.73232   0.96174   0.00000  Uiso   1.00
H351   H     0.60978   0.52154   0.25452   0.00000  Uiso   1.00
H352   H     0.52055   0.93322   0.96095   0.00000  Uiso   1.00
H353   H     0.64796   0.98950   0.48015   0.00000  Uiso   1.00
H354   H     0.69902   0.99877   0.58480   0.00000  Uiso   1.00
H355   H     0.64491   0.89879   0.24939   0.00000  Uiso   1.00
H356   H     0.60260   0.09402   0.58440   0.00000  Uiso   1.00
H357   H     0.75145   0.97259   0.73513   0.00000  Uiso   1.00
H358   H     0.63735   0.76180   0.02790   0.00000  Uiso   1.00
H359   H     0.54813   0.17349   0.73433   0.00000  Uiso   1.00
O360   O     0.77068   0.85347   0.92202   0.00000  Uiso   1.00
O361   O     0.62098   0.57693   0.99418   0.00000  Uiso   1.00
O362   O     0.50391   0.11705   0.92100   0.00000  Uiso   1.00
N363   N     0.72336   0.78761   0.89407   0.00000  Uiso   1.00
N364   N     0.61669   0.59053   0.23285   0.00000  Uiso   1.00
N365   N     0.53326   0.97541   0.89328   0.00000  Uiso   1.00
N366   N     0.73820   0.91690   0.77213   0.00000  Uiso   1.00
N367   N     0.63153   0.71982   0.11092   0.00000  Uiso   1.00
N368   N     0.54810   0.10470   0.77134   0.00000  Uiso   1.00
