data_job_06841
_audit_creation_date              2018-12-19
_audit_creation_method            'Materials Studio'
_symmetry_space_group_name_H-M    'P1'
_symmetry_Int_Tables_number       1
_symmetry_cell_setting            triclinic
loop_
_symmetry_equiv_pos_as_xyz
  x,y,z
_cell_length_a                    19.0197
_cell_length_b                    27.5474
_cell_length_c                    16.3103
_cell_angle_alpha                 79.6020
_cell_angle_beta                  95.7628
_cell_angle_gamma                 70.0008
loop_
_atom_site_label
_atom_site_type_symbol
_atom_site_fract_x
_atom_site_fract_y
_atom_site_fract_z
_atom_site_U_iso_or_equiv
_atom_site_adp_type
_atom_site_occupancy
C1     C     0.72293   0.51253   0.55586   0.00000  Uiso   1.00
C2     C     0.75090   0.53113   0.63090   0.00000  Uiso   1.00
C3     C     0.72243   0.58222   0.64373   0.00000  Uiso   1.00
C4     C     0.75573   0.59123   0.71633   0.00000  Uiso   1.00
C5     C     0.79011   0.62629   0.82407   0.00000  Uiso   1.00
C6     C     0.79236   0.48905   0.51597   0.00000  Uiso   1.00
C7     C     0.79874   0.50476   0.43216   0.00000  Uiso   1.00
C8     C     0.86694   0.47835   0.40801   0.00000  Uiso   1.00
C9     C     0.96566   0.44806   0.33729   0.00000  Uiso   1.00
C10    C     0.70077   0.46612   0.59341   0.00000  Uiso   1.00
C11    C     0.63015   0.46255   0.57470   0.00000  Uiso   1.00
C12    C     0.62124   0.41682   0.61572   0.00000  Uiso   1.00
C13    C     0.57776   0.35093   0.66524   0.00000  Uiso   1.00
C14    C     0.83270   0.43767   0.66196   0.00000  Uiso   1.00
C15    C     0.81052   0.49046   0.68853   0.00000  Uiso   1.00
C16    C     0.84387   0.49940   0.76113   0.00000  Uiso   1.00
C17    C     0.81545   0.55050   0.77407   0.00000  Uiso   1.00
C18    C     0.85198   0.44839   0.57360   0.00000  Uiso   1.00
C19    C     0.92018   0.42194   0.54956   0.00000  Uiso   1.00
C20    C     0.92666   0.43761   0.46574   0.00000  Uiso   1.00
C21    C     0.76039   0.42546   0.65104   0.00000  Uiso   1.00
C22    C     0.75159   0.37973   0.69210   0.00000  Uiso   1.00
C23    C     0.68097   0.37608   0.67346   0.00000  Uiso   1.00
H24    H     0.67652   0.54419   0.51098   0.00000  Uiso   1.00
H25    H     0.67629   0.61368   0.59911   0.00000  Uiso   1.00
H26    H     0.75259   0.53623   0.38758   0.00000  Uiso   1.00
H27    H     0.58403   0.49402   0.53009   0.00000  Uiso   1.00
H28    H     0.70235   0.67280   0.72222   0.00000  Uiso   1.00
H29    H     0.86321   0.50947   0.27618   0.00000  Uiso   1.00
H30    H     0.50777   0.42047   0.57670   0.00000  Uiso   1.00
H31    H     0.87912   0.40601   0.70683   0.00000  Uiso   1.00
H32    H     0.89001   0.46792   0.80572   0.00000  Uiso   1.00
H33    H     0.96630   0.39047   0.59417   0.00000  Uiso   1.00
H34    H     0.79774   0.34827   0.73669   0.00000  Uiso   1.00
H35    H     0.87581   0.55450   0.88991   0.00000  Uiso   1.00
H36    H     0.03667   0.39117   0.44386   0.00000  Uiso   1.00
H37    H     0.68123   0.30217   0.74438   0.00000  Uiso   1.00
O38    O     0.79261   0.65687   0.86756   0.00000  Uiso   1.00
O39    O     0.00364   0.44259   0.28237   0.00000  Uiso   1.00
O40    O     0.53730   0.32583   0.67665   0.00000  Uiso   1.00
N41    N     0.74167   0.63646   0.74813   0.00000  Uiso   1.00
N42    N     0.89207   0.48376   0.33110   0.00000  Uiso   1.00
N43    N     0.55976   0.40055   0.61205   0.00000  Uiso   1.00
N44    N     0.83501   0.57280   0.83836   0.00000  Uiso   1.00
N45    N     0.98541   0.42011   0.42133   0.00000  Uiso   1.00
N46    N     0.65310   0.33689   0.70228   0.00000  Uiso   1.00
C47    C     0.70194   0.66097   0.27068   0.00000  Uiso   1.00
C48    C     0.75793   0.66260   0.34296   0.00000  Uiso   1.00
C49    C     0.76327   0.64132   0.42826   0.00000  Uiso   1.00
C50    C     0.81823   0.64694   0.48451   0.00000  Uiso   1.00
C51    C     0.89787   0.64554   0.60102   0.00000  Uiso   1.00
C52    C     0.65835   0.71853   0.22352   0.00000  Uiso   1.00
C53    C     0.57997   0.74428   0.20840   0.00000  Uiso   1.00
C54    C     0.55110   0.79699   0.16410   0.00000  Uiso   1.00
C55    C     0.47614   0.88241   0.09513   0.00000  Uiso   1.00
C56    C     0.74989   0.63456   0.21007   0.00000  Uiso   1.00
C57    C     0.74846   0.58972   0.18362   0.00000  Uiso   1.00
C58    C     0.79665   0.57173   0.12797   0.00000  Uiso   1.00
C59    C     0.86382   0.52677   0.03813   0.00000  Uiso   1.00
C60    C     0.79003   0.70878   0.21890   0.00000  Uiso   1.00
C61    C     0.80578   0.68857   0.31483   0.00000  Uiso   1.00
C62    C     0.86075   0.69422   0.37096   0.00000  Uiso   1.00
C63    C     0.86617   0.67295   0.45633   0.00000  Uiso   1.00
C64    C     0.70620   0.74450   0.19540   0.00000  Uiso   1.00
C65    C     0.67744   0.79718   0.15110   0.00000  Uiso   1.00
C66    C     0.59904   0.82300   0.13592   0.00000  Uiso   1.00
C67    C     0.79774   0.66053   0.18195   0.00000  Uiso   1.00
C68    C     0.84594   0.64261   0.12633   0.00000  Uiso   1.00
C69    C     0.84459   0.59775   0.09980   0.00000  Uiso   1.00
H70    H     0.66468   0.64076   0.29258   0.00000  Uiso   1.00
H71    H     0.72623   0.62124   0.45000   0.00000  Uiso   1.00
H72    H     0.54295   0.72418   0.23016   0.00000  Uiso   1.00
H73    H     0.71142   0.56963   0.20540   0.00000  Uiso   1.00
H74    H     0.81555   0.61106   0.61213   0.00000  Uiso   1.00
H75    H     0.42911   0.82811   0.14857   0.00000  Uiso   1.00
H76    H     0.78436   0.50222   0.09634   0.00000  Uiso   1.00
H77    H     0.82729   0.72900   0.19700   0.00000  Uiso   1.00
H78    H     0.89777   0.71431   0.34918   0.00000  Uiso   1.00
H79    H     0.71449   0.81726   0.12934   0.00000  Uiso   1.00
H80    H     0.88296   0.66271   0.10457   0.00000  Uiso   1.00
H81    H     0.95478   0.68660   0.53030   0.00000  Uiso   1.00
H82    H     0.56833   0.90365   0.06674   0.00000  Uiso   1.00
H83    H     0.92358   0.57777   0.01451   0.00000  Uiso   1.00
O84    O     0.92858   0.63759   0.67305   0.00000  Uiso   1.00
O85    O     0.42158   0.92235   0.06487   0.00000  Uiso   1.00
O86    O     0.88766   0.49480   0.99634   0.00000  Uiso   1.00
N87    N     0.83866   0.63084   0.57199   0.00000  Uiso   1.00
N88    N     0.47736   0.83377   0.13860   0.00000  Uiso   1.00
N89    N     0.80947   0.52911   0.08975   0.00000  Uiso   1.00
N90    N     0.91357   0.67149   0.52795   0.00000  Uiso   1.00
N91    N     0.55227   0.87443   0.09457   0.00000  Uiso   1.00
N92    N     0.88439   0.56976   0.04571   0.00000  Uiso   1.00
C93    C     0.47898   0.69451   0.45613   0.00000  Uiso   1.00
C94    C     0.50551   0.74114   0.45098   0.00000  Uiso   1.00
C95    C     0.56006   0.74919   0.40559   0.00000  Uiso   1.00
C96    C     0.57636   0.79429   0.40897   0.00000  Uiso   1.00
C97    C     0.62321   0.86126   0.39385   0.00000  Uiso   1.00
C98    C     0.49171   0.66878   0.55009   0.00000  Uiso   1.00
C99    C     0.53465   0.61598   0.58801   0.00000  Uiso   1.00
C100   C     0.53933   0.60017   0.67482   0.00000  Uiso   1.00
C101   C     0.56471   0.55478   0.81355   0.00000  Uiso   1.00
C102   C     0.39309   0.71867   0.42675   0.00000  Uiso   1.00
C103   C     0.35309   0.70781   0.36099   0.00000  Uiso   1.00
C104   C     0.27473   0.73399   0.34397   0.00000  Uiso   1.00
C105   C     0.14698   0.76607   0.29120   0.00000  Uiso   1.00
C106   C     0.41094   0.76029   0.54285   0.00000  Uiso   1.00
C107   C     0.46856   0.77687   0.49809   0.00000  Uiso   1.00
C108   C     0.48478   0.82198   0.50153   0.00000  Uiso   1.00
C109   C     0.53934   0.83009   0.45615   0.00000  Uiso   1.00
C110   C     0.45476   0.70451   0.59719   0.00000  Uiso   1.00
C111   C     0.45937   0.68877   0.68396   0.00000  Uiso   1.00
C112   C     0.50231   0.63596   0.72201   0.00000  Uiso   1.00
C113   C     0.35613   0.75440   0.47385   0.00000  Uiso   1.00
C114   C     0.27782   0.78060   0.45693   0.00000  Uiso   1.00
C115   C     0.23771   0.76979   0.39116   0.00000  Uiso   1.00
H116   H     0.50775   0.66669   0.41946   0.00000  Uiso   1.00
H117   H     0.58865   0.72153   0.36915   0.00000  Uiso   1.00
H118   H     0.56324   0.58834   0.55155   0.00000  Uiso   1.00
H119   H     0.38171   0.68016   0.32456   0.00000  Uiso   1.00
H120   H     0.66206   0.79808   0.33417   0.00000  Uiso   1.00
H121   H     0.60846   0.51724   0.71875   0.00000  Uiso   1.00
H122   H     0.22567   0.71086   0.24010   0.00000  Uiso   1.00
H123   H     0.38217   0.78811   0.57952   0.00000  Uiso   1.00
H124   H     0.45617   0.84962   0.53799   0.00000  Uiso   1.00
H125   H     0.43076   0.71643   0.72038   0.00000  Uiso   1.00
H126   H     0.24924   0.80825   0.49340   0.00000  Uiso   1.00
H127   H     0.55454   0.90204   0.47121   0.00000  Uiso   1.00
H128   H     0.50094   0.62120   0.85579   0.00000  Uiso   1.00
H129   H     0.11815   0.81482   0.37714   0.00000  Uiso   1.00
O130   O     0.65927   0.88833   0.37250   0.00000  Uiso   1.00
O131   O     0.58893   0.51987   0.87706   0.00000  Uiso   1.00
O132   O     0.08673   0.77390   0.24908   0.00000  Uiso   1.00
N133   N     0.62659   0.81411   0.37211   0.00000  Uiso   1.00
N134   N     0.57648   0.55155   0.73167   0.00000  Uiso   1.00
N135   N     0.21861   0.73255   0.28419   0.00000  Uiso   1.00
N136   N     0.56873   0.87005   0.44585   0.00000  Uiso   1.00
N137   N     0.51863   0.60749   0.80541   0.00000  Uiso   1.00
N138   N     0.16075   0.78849   0.35793   0.00000  Uiso   1.00
C139   C     0.30153   0.17860   0.80109   0.00000  Uiso   1.00
C140   C     0.34142   0.21777   0.80605   0.00000  Uiso   1.00
C141   C     0.33410   0.25013   0.86326   0.00000  Uiso   1.00
C142   C     0.37535   0.28320   0.85750   0.00000  Uiso   1.00
C143   C     0.43018   0.34390   0.87448   0.00000  Uiso   1.00
C144   C     0.36432   0.12475   0.80975   0.00000  Uiso   1.00
C145   C     0.37623   0.07889   0.87007   0.00000  Uiso   1.00
C146   C     0.43675   0.03366   0.86741   0.00000  Uiso   1.00
C147   C     0.52710   0.94993   0.89010   0.00000  Uiso   1.00
C148   C     0.25800   0.19412   0.71074   0.00000  Uiso   1.00
C149   C     0.18053   0.20657   0.68781   0.00000  Uiso   1.00
C150   C     0.15155   0.21972   0.60180   0.00000  Uiso   1.00
C151   C     0.07682   0.24370   0.47077   0.00000  Uiso   1.00
C152   C     0.38782   0.17982   0.68911   0.00000  Uiso   1.00
C153   C     0.38829   0.21843   0.74522   0.00000  Uiso   1.00
C154   C     0.42956   0.25147   0.73937   0.00000  Uiso   1.00
C155   C     0.42230   0.28387   0.79657   0.00000  Uiso   1.00
C156   C     0.41118   0.12541   0.74893   0.00000  Uiso   1.00
C157   C     0.47170   0.08024   0.74618   0.00000  Uiso   1.00
C158   C     0.48370   0.03432   0.80648   0.00000  Uiso   1.00
C159   C     0.30487   0.19478   0.64992   0.00000  Uiso   1.00
C160   C     0.27600   0.20792   0.56392   0.00000  Uiso   1.00
C161   C     0.19850   0.22039   0.54087   0.00000  Uiso   1.00
H162   H     0.26505   0.17809   0.84844   0.00000  Uiso   1.00
H163   H     0.29782   0.24960   0.91033   0.00000  Uiso   1.00
H164   H     0.33995   0.07839   0.91712   0.00000  Uiso   1.00
H165   H     0.14428   0.20605   0.73490   0.00000  Uiso   1.00
H166   H     0.35485   0.32916   0.95213   0.00000  Uiso   1.00
H167   H     0.44366   0.96815   0.96645   0.00000  Uiso   1.00
H168   H     0.03105   0.23735   0.58219   0.00000  Uiso   1.00
H169   H     0.42431   0.18033   0.64176   0.00000  Uiso   1.00
H170   H     0.46583   0.25197   0.69230   0.00000  Uiso   1.00
H171   H     0.50795   0.08076   0.69910   0.00000  Uiso   1.00
H172   H     0.31228   0.20842   0.51687   0.00000  Uiso   1.00
H173   H     0.49121   0.33109   0.77518   0.00000  Uiso   1.00
H174   H     0.58001   0.97008   0.78949   0.00000  Uiso   1.00
H175   H     0.16741   0.23927   0.40524   0.00000  Uiso   1.00
O176   O     0.44749   0.37720   0.90065   0.00000  Uiso   1.00
O177   O     0.56399   0.90357   0.91942   0.00000  Uiso   1.00
O178   O     0.02266   0.25674   0.41529   0.00000  Uiso   1.00
N179   N     0.38123   0.31979   0.90354   0.00000  Uiso   1.00
N180   N     0.46427   0.98227   0.91693   0.00000  Uiso   1.00
N181   N     0.07852   0.23393   0.55769   0.00000  Uiso   1.00
N182   N     0.45461   0.32083   0.80832   0.00000  Uiso   1.00
N183   N     0.53764   0.98331   0.82171   0.00000  Uiso   1.00
N184   N     0.15190   0.23497   0.46247   0.00000  Uiso   1.00
C185   C     0.24273   0.11930   0.04304   0.00000  Uiso   1.00
C186   C     0.31932   0.09880   0.10198   0.00000  Uiso   1.00
C187   C     0.38246   0.11054   0.08478   0.00000  Uiso   1.00
C188   C     0.44717   0.08786   0.14693   0.00000  Uiso   1.00
C189   C     0.56587   0.06111   0.22683   0.00000  Uiso   1.00
C190   C     0.18388   0.14695   0.09312   0.00000  Uiso   1.00
C191   C     0.13312   0.19916   0.06845   0.00000  Uiso   1.00
C192   C     0.08381   0.21701   0.12313   0.00000  Uiso   1.00
C193   C     0.99218   0.26499   0.18923   0.00000  Uiso   1.00
C194   C     0.22681   0.07024   0.03062   0.00000  Uiso   1.00
C195   C     0.21214   0.05797   0.95340   0.00000  Uiso   1.00
C196   C     0.19896   0.01124   0.95546   0.00000  Uiso   1.00
C197   C     0.17399   0.94013   0.92453   0.00000  Uiso   1.00
C198   C     0.24538   0.05814   0.18401   0.00000  Uiso   1.00
C199   C     0.32076   0.06558   0.17856   0.00000  Uiso   1.00
C200   C     0.38540   0.04288   0.24075   0.00000  Uiso   1.00
C201   C     0.44862   0.05458   0.22363   0.00000  Uiso   1.00
C202   C     0.18531   0.11373   0.16969   0.00000  Uiso   1.00
C203   C     0.13606   0.13150   0.22441   0.00000  Uiso   1.00
C204   C     0.08525   0.18373   0.19984   0.00000  Uiso   1.00
C205   C     0.22825   0.03702   0.10719   0.00000  Uiso   1.00
C206   C     0.21508   0.99031   0.10937   0.00000  Uiso   1.00
C207   C     0.20040   0.97797   0.03217   0.00000  Uiso   1.00
H208   H     0.24161   0.14516   0.98343   0.00000  Uiso   1.00
H209   H     0.38132   0.13625   0.02552   0.00000  Uiso   1.00
H210   H     0.13202   0.22486   0.00919   0.00000  Uiso   1.00
H211   H     0.21103   0.08368   0.89416   0.00000  Uiso   1.00
H212   H     0.53684   0.11174   0.10596   0.00000  Uiso   1.00
H213   H     0.01116   0.29857   0.07151   0.00000  Uiso   1.00
H214   H     0.17777   0.00088   0.82896   0.00000  Uiso   1.00
H215   H     0.24650   0.03228   0.24362   0.00000  Uiso   1.00
H216   H     0.38649   0.01717   0.29999   0.00000  Uiso   1.00
H217   H     0.13719   0.10579   0.28366   0.00000  Uiso   1.00
H218   H     0.21620   0.96461   0.16864   0.00000  Uiso   1.00
H219   H     0.54104   0.01510   0.32874   0.00000  Uiso   1.00
H220   H     0.01536   0.20193   0.29429   0.00000  Uiso   1.00
H221   H     0.18196   0.90423   0.05173   0.00000  Uiso   1.00
O222   O     0.63094   0.05553   0.24975   0.00000  Uiso   1.00
O223   O     0.94125   0.30064   0.20454   0.00000  Uiso   1.00
O224   O     0.15984   0.91008   0.88632   0.00000  Uiso   1.00
N225   N     0.51863   0.09106   0.15065   0.00000  Uiso   1.00
N226   N     0.02715   0.26574   0.11845   0.00000  Uiso   1.00
N227   N     0.18289   0.98743   0.89168   0.00000  Uiso   1.00
N228   N     0.52089   0.03905   0.27052   0.00000  Uiso   1.00
N229   N     0.02941   0.21373   0.23832   0.00000  Uiso   1.00
N230   N     0.18515   0.93542   0.01155   0.00000  Uiso   1.00
C231   C     0.12865   0.33092   0.90054   0.00000  Uiso   1.00
C232   C     0.15433   0.32956   0.99283   0.00000  Uiso   1.00
C233   C     0.22256   0.29509   0.04342   0.00000  Uiso   1.00
C234   C     0.23544   0.30020   0.12617   0.00000  Uiso   1.00
C235   C     0.28347   0.29229   0.26476   0.00000  Uiso   1.00
C236   C     0.11188   0.38740   0.85134   0.00000  Uiso   1.00
C237   C     0.14442   0.40156   0.78295   0.00000  Uiso   1.00
C238   C     0.12157   0.45537   0.74659   0.00000  Uiso   1.00
C239   C     0.10366   0.53726   0.66546   0.00000  Uiso   1.00
C240   C     0.05226   0.32402   0.89652   0.00000  Uiso   1.00
C241   C     0.03466   0.28490   0.86610   0.00000  Uiso   1.00
C242   C     0.96160   0.28535   0.86777   0.00000  Uiso   1.00
C243   C     0.85112   0.26884   0.85679   0.00000  Uiso   1.00
C244   C     0.03019   0.40129   0.95756   0.00000  Uiso   1.00
C245   C     0.10085   0.36779   0.02380   0.00000  Uiso   1.00
C246   C     0.11362   0.37295   0.10650   0.00000  Uiso   1.00
C247   C     0.18186   0.33849   0.15720   0.00000  Uiso   1.00
C248   C     0.05841   0.42563   0.88230   0.00000  Uiso   1.00
C249   C     0.03549   0.47943   0.84603   0.00000  Uiso   1.00
C250   C     0.06799   0.49366   0.77761   0.00000  Uiso   1.00
C251   C     0.99878   0.36225   0.92749   0.00000  Uiso   1.00
C252   C     0.92573   0.36276   0.92920   0.00000  Uiso   1.00
C253   C     0.90802   0.32364   0.89879   0.00000  Uiso   1.00
H254   H     0.17029   0.30116   0.87642   0.00000  Uiso   1.00
H255   H     0.26394   0.26551   0.01942   0.00000  Uiso   1.00
H256   H     0.18580   0.37197   0.75899   0.00000  Uiso   1.00
H257   H     0.07606   0.25533   0.84214   0.00000  Uiso   1.00
H258   H     0.34419   0.24286   0.19161   0.00000  Uiso   1.00
H259   H     0.17943   0.46734   0.64246   0.00000  Uiso   1.00
H260   H     0.94802   0.22136   0.81779   0.00000  Uiso   1.00
H261   H     0.98855   0.43105   0.98167   0.00000  Uiso   1.00
H262   H     0.07223   0.40253   0.13045   0.00000  Uiso   1.00
H263   H     0.99410   0.50899   0.87002   0.00000  Uiso   1.00
H264   H     0.88436   0.39235   0.95317   0.00000  Uiso   1.00
H265   H     0.18860   0.35407   0.28173   0.00000  Uiso   1.00
H266   H     0.02383   0.57855   0.73257   0.00000  Uiso   1.00
H267   H     0.79242   0.33258   0.90791   0.00000  Uiso   1.00
O268   O     0.32473   0.27738   0.33264   0.00000  Uiso   1.00
O269   O     0.10856   0.57188   0.61216   0.00000  Uiso   1.00
O270   O     0.80496   0.24916   0.84220   0.00000  Uiso   1.00
N271   N     0.29608   0.27294   0.19241   0.00000  Uiso   1.00
N272   N     0.14205   0.48282   0.67899   0.00000  Uiso   1.00
N273   N     0.92569   0.25286   0.84289   0.00000  Uiso   1.00
N274   N     0.21236   0.33279   0.24090   0.00000  Uiso   1.00
N275   N     0.05832   0.54266   0.72748   0.00000  Uiso   1.00
N276   N     0.84197   0.31270   0.89138   0.00000  Uiso   1.00
C277   C     0.34061   0.65383   0.00619   0.00000  Uiso   1.00
C278   C     0.34189   0.62530   0.93414   0.00000  Uiso   1.00
C279   C     0.39711   0.57754   0.93104   0.00000  Uiso   1.00
C280   C     0.38803   0.55797   0.85962   0.00000  Uiso   1.00
C281   C     0.39944   0.50951   0.75779   0.00000  Uiso   1.00
C282   C     0.26457   0.66127   0.03511   0.00000  Uiso   1.00
C283   C     0.25479   0.64377   0.11691   0.00000  Uiso   1.00
C284   C     0.18061   0.65449   0.13048   0.00000  Uiso   1.00
C285   C     0.07198   0.66191   0.18543   0.00000  Uiso   1.00
C286   C     0.33702   0.70930   0.96617   0.00000  Uiso   1.00
C287   C     0.38815   0.73219   0.99001   0.00000  Uiso   1.00
C288   C     0.37496   0.78335   0.94555   0.00000  Uiso   1.00
C289   C     0.37883   0.86534   0.89346   0.00000  Uiso   1.00
C290   C     0.22629   0.70400   0.88485   0.00000  Uiso   1.00
C291   C     0.27979   0.65255   0.86824   0.00000  Uiso   1.00
C292   C     0.27062   0.63305   0.79680   0.00000  Uiso   1.00
C293   C     0.32582   0.58527   0.79359   0.00000  Uiso   1.00
C294   C     0.20247   0.68852   0.96921   0.00000  Uiso   1.00
C295   C     0.12830   0.69927   0.98267   0.00000  Uiso   1.00
C296   C     0.11840   0.68178   0.06446   0.00000  Uiso   1.00
C297   C     0.27493   0.73655   0.90026   0.00000  Uiso   1.00
C298   C     0.26166   0.78769   0.85577   0.00000  Uiso   1.00
C299   C     0.31275   0.81065   0.87953   0.00000  Uiso   1.00
H300   H     0.38895   0.63262   0.05750   0.00000  Uiso   1.00
H301   H     0.44516   0.55647   0.98206   0.00000  Uiso   1.00
H302   H     0.30285   0.62269   0.16790   0.00000  Uiso   1.00
H303   H     0.43619   0.71109   0.04102   0.00000  Uiso   1.00
H304   H     0.48006   0.48404   0.86937   0.00000  Uiso   1.00
H305   H     0.18001   0.62369   0.26122   0.00000  Uiso   1.00
H306   H     0.46119   0.81010   0.99368   0.00000  Uiso   1.00
H307   H     0.17794   0.72521   0.83354   0.00000  Uiso   1.00
H308   H     0.22256   0.65414   0.74581   0.00000  Uiso   1.00
H309   H     0.08026   0.72036   0.93165   0.00000  Uiso   1.00
H310   H     0.21360   0.80876   0.80477   0.00000  Uiso   1.00
H311   H     0.29940   0.56332   0.67762   0.00000  Uiso   1.00
H312   H     0.99934   0.70297   0.06948   0.00000  Uiso   1.00
H313   H     0.28052   0.88938   0.80193   0.00000  Uiso   1.00
O314   O     0.42288   0.47525   0.71983   0.00000  Uiso   1.00
O315   O     0.02922   0.65847   0.23394   0.00000  Uiso   1.00
O316   O     0.39812   0.90304   0.88292   0.00000  Uiso   1.00
N317   N     0.43143   0.51246   0.83627   0.00000  Uiso   1.00
N318   N     0.15090   0.64301   0.20263   0.00000  Uiso   1.00
N319   N     0.41376   0.81730   0.95251   0.00000  Uiso   1.00
N320   N     0.33421   0.55512   0.73309   0.00000  Uiso   1.00
N321   N     0.05368   0.68567   0.09946   0.00000  Uiso   1.00
N322   N     0.31655   0.85996   0.84934   0.00000  Uiso   1.00
C323   C     0.36531   0.48829   0.33495   0.00000  Uiso   1.00
C324   C     0.31200   0.49906   0.25187   0.00000  Uiso   1.00
C325   C     0.32736   0.51289   0.17139   0.00000  Uiso   1.00
C326   C     0.27120   0.52106   0.10344   0.00000  Uiso   1.00
C327   C     0.19894   0.53860   0.97258   0.00000  Uiso   1.00
C328   C     0.37579   0.43268   0.38292   0.00000  Uiso   1.00
C329   C     0.44477   0.39069   0.41264   0.00000  Uiso   1.00
C330   C     0.44231   0.34299   0.45501   0.00000  Uiso   1.00
C331   C     0.46908   0.25748   0.52767   0.00000  Uiso   1.00
C332   C     0.32110   0.52621   0.38544   0.00000  Uiso   1.00
C333   C     0.34410   0.56285   0.41729   0.00000  Uiso   1.00
C334   C     0.29560   0.59388   0.46181   0.00000  Uiso   1.00
C335   C     0.23745   0.65358   0.53837   0.00000  Uiso   1.00
C336   C     0.23828   0.47822   0.35738   0.00000  Uiso   1.00
C337   C     0.24301   0.49359   0.26406   0.00000  Uiso   1.00
C338   C     0.18681   0.50175   0.19621   0.00000  Uiso   1.00
C339   C     0.20208   0.51558   0.11564   0.00000  Uiso   1.00
C340   C     0.30679   0.42721   0.39511   0.00000  Uiso   1.00
C341   C     0.30423   0.37956   0.43745   0.00000  Uiso   1.00
C342   C     0.37319   0.33751   0.46722   0.00000  Uiso   1.00
C343   C     0.25210   0.52074   0.39762   0.00000  Uiso   1.00
C344   C     0.20355   0.55171   0.44210   0.00000  Uiso   1.00
C345   C     0.22648   0.58840   0.47401   0.00000  Uiso   1.00
H346   H     0.41903   0.49254   0.32547   0.00000  Uiso   1.00
H347   H     0.38077   0.51711   0.16199   0.00000  Uiso   1.00
H348   H     0.49816   0.39494   0.40321   0.00000  Uiso   1.00
H349   H     0.39750   0.56707   0.40785   0.00000  Uiso   1.00
H350   H     0.30792   0.54192   0.98611   0.00000  Uiso   1.00
H351   H     0.55546   0.28432   0.49475   0.00000  Uiso   1.00
H352   H     0.34320   0.64729   0.50456   0.00000  Uiso   1.00
H353   H     0.18456   0.47396   0.36687   0.00000  Uiso   1.00
H354   H     0.13342   0.49752   0.20566   0.00000  Uiso   1.00
H355   H     0.25082   0.37534   0.44687   0.00000  Uiso   1.00
H356   H     0.15016   0.54747   0.45152   0.00000  Uiso   1.00
H357   H     0.10717   0.52601   0.02155   0.00000  Uiso   1.00
H358   H     0.35471   0.26842   0.53020   0.00000  Uiso   1.00
H359   H     0.14245   0.63138   0.54000   0.00000  Uiso   1.00
O360   O     0.17814   0.54978   0.89703   0.00000  Uiso   1.00
O361   O     0.50291   0.21182   0.56436   0.00000  Uiso   1.00
O362   O     0.22443   0.68803   0.57722   0.00000  Uiso   1.00
N363   N     0.26768   0.53495   0.01658   0.00000  Uiso   1.00
N364   N     0.49912   0.29411   0.49212   0.00000  Uiso   1.00
N365   N     0.30069   0.63345   0.50130   0.00000  Uiso   1.00
N366   N     0.15966   0.52640   0.03565   0.00000  Uiso   1.00
N367   N     0.39109   0.28556   0.51119   0.00000  Uiso   1.00
N368   N     0.19266   0.62489   0.52037   0.00000  Uiso   1.00
C369   C     0.58994   0.41709   0.26756   0.00000  Uiso   1.00
C370   C     0.56988   0.37917   0.22061   0.00000  Uiso   1.00
C371   C     0.50629   0.36553   0.22449   0.00000  Uiso   1.00
C372   C     0.49815   0.33020   0.17682   0.00000  Uiso   1.00
C373   C     0.45884   0.27453   0.11145   0.00000  Uiso   1.00
C374   C     0.59825   0.45989   0.19992   0.00000  Uiso   1.00
C375   C     0.55852   0.51411   0.18642   0.00000  Uiso   1.00
C376   C     0.57428   0.54672   0.12134   0.00000  Uiso   1.00
C377   C     0.57906   0.61637   0.02389   0.00000  Uiso   1.00
C378   C     0.66927   0.38583   0.31940   0.00000  Uiso   1.00
C379   C     0.68926   0.37780   0.40636   0.00000  Uiso   1.00
C380   C     0.76482   0.34808   0.44186   0.00000  Uiso   1.00
C381   C     0.87986   0.30274   0.52992   0.00000  Uiso   1.00
C382   C     0.68857   0.37861   0.17599   0.00000  Uiso   1.00
C383   C     0.62346   0.35828   0.17087   0.00000  Uiso   1.00
C384   C     0.61542   0.32296   0.12318   0.00000  Uiso   1.00
C385   C     0.55183   0.30926   0.12700   0.00000  Uiso   1.00
C386   C     0.65182   0.43899   0.15018   0.00000  Uiso   1.00
C387   C     0.66765   0.47154   0.08511   0.00000  Uiso   1.00
C388   C     0.62795   0.52579   0.07151   0.00000  Uiso   1.00
C389   C     0.72285   0.36493   0.26966   0.00000  Uiso   1.00
C390   C     0.79839   0.33522   0.30504   0.00000  Uiso   1.00
C391   C     0.81849   0.32714   0.39204   0.00000  Uiso   1.00
H392   H     0.54823   0.43336   0.30628   0.00000  Uiso   1.00
H393   H     0.46484   0.38171   0.26299   0.00000  Uiso   1.00
H394   H     0.51707   0.53027   0.22493   0.00000  Uiso   1.00
H395   H     0.64779   0.39398   0.44482   0.00000  Uiso   1.00
H396   H     0.39600   0.31525   0.19303   0.00000  Uiso   1.00
H397   H     0.50615   0.62849   0.11280   0.00000  Uiso   1.00
H398   H     0.78180   0.34109   0.57649   0.00000  Uiso   1.00
H399   H     0.73028   0.36234   0.13726   0.00000  Uiso   1.00
H400   H     0.65689   0.30679   0.08469   0.00000  Uiso   1.00
H401   H     0.70912   0.45535   0.04664   0.00000  Uiso   1.00
H402   H     0.83983   0.31906   0.26653   0.00000  Uiso   1.00
H403   H     0.55187   0.25444   0.04831   0.00000  Uiso   1.00
H404   H     0.66203   0.56768   0.96809   0.00000  Uiso   1.00
H405   H     0.93767   0.28029   0.43178   0.00000  Uiso   1.00
O406   O     0.42235   0.24960   0.08912   0.00000  Uiso   1.00
O407   O     0.56688   0.66056   0.98388   0.00000  Uiso   1.00
O408   O     0.92852   0.28350   0.59223   0.00000  Uiso   1.00
N409   N     0.44276   0.30855   0.16620   0.00000  Uiso   1.00
N410   N     0.54574   0.60141   0.09118   0.00000  Uiso   1.00
N411   N     0.80345   0.33274   0.52469   0.00000  Uiso   1.00
N412   N     0.52664   0.27583   0.08833   0.00000  Uiso   1.00
N413   N     0.62962   0.56869   0.01331   0.00000  Uiso   1.00
N414   N     0.88733   0.30001   0.44682   0.00000  Uiso   1.00
C415   C     0.79671   0.92098   0.83855   0.00000  Uiso   1.00
C416   C     0.76559   0.87841   0.82423   0.00000  Uiso   1.00
C417   C     0.74796   0.86760   0.74654   0.00000  Uiso   1.00
C418   C     0.72015   0.82709   0.74679   0.00000  Uiso   1.00
C419   C     0.67329   0.76538   0.71310   0.00000  Uiso   1.00
C420   C     0.74149   0.95611   0.88447   0.00000  Uiso   1.00
C421   C     0.70359   0.01063   0.85744   0.00000  Uiso   1.00
C422   C     0.65549   0.03553   0.90842   0.00000  Uiso   1.00
C423   C     0.57125   0.09444   0.96829   0.00000  Uiso   1.00
C424   C     0.87069   0.89228   0.90191   0.00000  Uiso   1.00
C425   C     0.94143   0.89315   0.88956   0.00000  Uiso   1.00
C426   C     0.00212   0.86431   0.95523   0.00000  Uiso   1.00
C427   C     0.11848   0.82412   0.04219   0.00000  Uiso   1.00
C428   C     0.77869   0.86826   0.97714   0.00000  Uiso   1.00
C429   C     0.75580   0.84978   0.89950   0.00000  Uiso   1.00
C430   C     0.72802   0.80927   0.89987   0.00000  Uiso   1.00
C431   C     0.71035   0.79840   0.82220   0.00000  Uiso   1.00
C432   C     0.73169   0.92748   0.95975   0.00000  Uiso   1.00
C433   C     0.68365   0.95230   0.01078   0.00000  Uiso   1.00
C434   C     0.64569   0.00684   0.98383   0.00000  Uiso   1.00
C435   C     0.86090   0.86365   0.97719   0.00000  Uiso   1.00
C436   C     0.92149   0.83481   0.04289   0.00000  Uiso   1.00
C437   C     0.99231   0.83563   0.03064   0.00000  Uiso   1.00
H438   H     0.80433   0.94328   0.77994   0.00000  Uiso   1.00
H439   H     0.75554   0.88978   0.68830   0.00000  Uiso   1.00
H440   H     0.71118   0.03278   0.79919   0.00000  Uiso   1.00
H441   H     0.94899   0.91531   0.83130   0.00000  Uiso   1.00
H442   H     0.69710   0.81785   0.61988   0.00000  Uiso   1.00
H443   H     0.60359   0.11938   0.85372   0.00000  Uiso   1.00
H444   H     0.10505   0.87167   0.92144   0.00000  Uiso   1.00
H445   H     0.77106   0.84596   0.03575   0.00000  Uiso   1.00
H446   H     0.72045   0.78712   0.95814   0.00000  Uiso   1.00
H447   H     0.67609   0.93013   0.06903   0.00000  Uiso   1.00
H448   H     0.91389   0.81266   0.10114   0.00000  Uiso   1.00
H449   H     0.66861   0.73453   0.83889   0.00000  Uiso   1.00
H450   H     0.57511   0.03607   0.07273   0.00000  Uiso   1.00
H451   H     0.07657   0.78836   0.14045   0.00000  Uiso   1.00
O452   O     0.65013   0.73925   0.67371   0.00000  Uiso   1.00
O453   O     0.52747   0.13485   0.98051   0.00000  Uiso   1.00
O454   O     0.18537   0.80986   0.06935   0.00000  Uiso   1.00
N455   N     0.69736   0.80631   0.68208   0.00000  Uiso   1.00
N456   N     0.60993   0.08822   0.90070   0.00000  Uiso   1.00
N457   N     0.07874   0.85665   0.96402   0.00000  Uiso   1.00
N458   N     0.68203   0.76147   0.79993   0.00000  Uiso   1.00
N459   N     0.59460   0.04339   0.01855   0.00000  Uiso   1.00
N460   N     0.06342   0.81181   0.08186   0.00000  Uiso   1.00
C461   C     0.78542   0.07435   0.66157   0.00000  Uiso   1.00
C462   C     0.72080   0.06432   0.61321   0.00000  Uiso   1.00
C463   C     0.71402   0.01534   0.61805   0.00000  Uiso   1.00
C464   C     0.65070   0.01450   0.56880   0.00000  Uiso   1.00
C465   C     0.55866   0.99186   0.50161   0.00000  Uiso   1.00
C466   C     0.81854   0.10192   0.59481   0.00000  Uiso   1.00
C467   C     0.89394   0.08455   0.58419   0.00000  Uiso   1.00
C468   C     0.91290   0.11536   0.51946   0.00000  Uiso   1.00
C469   C     0.97263   0.15111   0.42375   0.00000  Uiso   1.00
C470   C     0.74814   0.11546   0.71084   0.00000  Uiso   1.00
C471   C     0.76437   0.10950   0.79777   0.00000  Uiso   1.00
C472   C     0.72408   0.15173   0.83072   0.00000  Uiso   1.00
C473   C     0.67450   0.20851   0.91517   0.00000  Uiso   1.00
C474   C     0.68503   0.15995   0.56550   0.00000  Uiso   1.00
C475   C     0.66627   0.11082   0.56103   0.00000  Uiso   1.00
C476   C     0.60294   0.11005   0.51176   0.00000  Uiso   1.00
C477   C     0.59607   0.06108   0.51652   0.00000  Uiso   1.00
C478   C     0.76401   0.14841   0.54263   0.00000  Uiso   1.00
C479   C     0.78287   0.17926   0.47790   0.00000  Uiso   1.00
C480   C     0.85828   0.16195   0.46718   0.00000  Uiso   1.00
C481   C     0.69361   0.16196   0.65866   0.00000  Uiso   1.00
C482   C     0.65329   0.20421   0.69148   0.00000  Uiso   1.00
C483   C     0.66945   0.19831   0.77845   0.00000  Uiso   1.00
H484   H     0.82788   0.03815   0.70219   0.00000  Uiso   1.00
H485   H     0.75623   0.97937   0.65843   0.00000  Uiso   1.00
H486   H     0.93613   0.04857   0.62459   0.00000  Uiso   1.00
H487   H     0.80657   0.07351   0.83813   0.00000  Uiso   1.00
H488   H     0.65276   0.93470   0.58688   0.00000  Uiso   1.00
H489   H     0.03209   0.08062   0.51554   0.00000  Uiso   1.00
H490   H     0.75890   0.13322   0.96584   0.00000  Uiso   1.00
H491   H     0.64258   0.19615   0.52487   0.00000  Uiso   1.00
H492   H     0.56076   0.14604   0.47138   0.00000  Uiso   1.00
H493   H     0.74066   0.21524   0.43754   0.00000  Uiso   1.00
H494   H     0.61110   0.24019   0.65108   0.00000  Uiso   1.00
H495   H     0.49411   0.06998   0.43506   0.00000  Uiso   1.00
H496   H     0.87344   0.21591   0.36372   0.00000  Uiso   1.00
H497   H     0.60025   0.26850   0.81402   0.00000  Uiso   1.00
O498   O     0.52297   0.96652   0.47896   0.00000  Uiso   1.00
O499   O     0.02063   0.15797   0.38537   0.00000  Uiso   1.00
O500   O     0.66221   0.22698   0.97616   0.00000  Uiso   1.00
N501   N     0.62664   0.97342   0.55851   0.00000  Uiso   1.00
N502   N     0.98129   0.10984   0.49179   0.00000  Uiso   1.00
N503   N     0.72590   0.15902   0.91278   0.00000  Uiso   1.00
N504   N     0.54127   0.04621   0.47681   0.00000  Uiso   1.00
N505   N     0.89592   0.18264   0.41010   0.00000  Uiso   1.00
N506   N     0.64053   0.23182   0.83109   0.00000  Uiso   1.00
C507   C     0.92709   0.83301   0.63617   0.00000  Uiso   1.00
C508   C     0.92180   0.82500   0.54598   0.00000  Uiso   1.00
C509   C     0.85715   0.84737   0.48381   0.00000  Uiso   1.00
C510   C     0.86398   0.83517   0.40532   0.00000  Uiso   1.00
C511   C     0.84525   0.82779   0.26767   0.00000  Uiso   1.00
C512   C     0.95586   0.77764   0.69421   0.00000  Uiso   1.00
C513   C     0.91986   0.76021   0.75667   0.00000  Uiso   1.00
C514   C     0.95537   0.70814   0.80297   0.00000  Uiso   1.00
C515   C     0.98956   0.62725   0.89549   0.00000  Uiso   1.00
C516   C     0.99070   0.85425   0.64858   0.00000  Uiso   1.00
C517   C     0.98399   0.90122   0.67270   0.00000  Uiso   1.00
C518   C     0.04884   0.91365   0.68060   0.00000  Uiso   1.00
C519   C     0.13712   0.95171   0.70226   0.00000  Uiso   1.00
C520   C     0.05419   0.77154   0.60735   0.00000  Uiso   1.00
C521   C     0.99084   0.79161   0.53033   0.00000  Uiso   1.00
C522   C     0.99777   0.77937   0.45191   0.00000  Uiso   1.00
C523   C     0.93314   0.80172   0.38963   0.00000  Uiso   1.00
C524   C     0.02490   0.74426   0.67855   0.00000  Uiso   1.00
C525   C     0.06048   0.69221   0.72478   0.00000  Uiso   1.00
C526   C     0.02453   0.67469   0.78729   0.00000  Uiso   1.00
C527   C     0.05974   0.82087   0.63292   0.00000  Uiso   1.00
C528   C     0.12461   0.83322   0.64079   0.00000  Uiso   1.00
C529   C     0.11800   0.88020   0.66491   0.00000  Uiso   1.00
H530   H     0.87334   0.85900   0.64837   0.00000  Uiso   1.00
H531   H     0.80373   0.87320   0.49595   0.00000  Uiso   1.00
H532   H     0.86644   0.78605   0.76878   0.00000  Uiso   1.00
H533   H     0.93056   0.92705   0.68481   0.00000  Uiso   1.00
H534   H     0.75699   0.87422   0.32007   0.00000  Uiso   1.00
H535   H     0.88922   0.69046   0.89536   0.00000  Uiso   1.00
H536   H     0.02444   0.98778   0.71830   0.00000  Uiso   1.00
H537   H     0.10794   0.74555   0.59516   0.00000  Uiso   1.00
H538   H     0.05120   0.75354   0.43981   0.00000  Uiso   1.00
H539   H     0.11390   0.66638   0.71264   0.00000  Uiso   1.00
H540   H     0.17803   0.80738   0.62867   0.00000  Uiso   1.00
H541   H     0.95784   0.77709   0.27451   0.00000  Uiso   1.00
H542   H     0.09008   0.59333   0.84980   0.00000  Uiso   1.00
H543   H     0.22529   0.89065   0.67273   0.00000  Uiso   1.00
O544   O     0.81585   0.83294   0.19607   0.00000  Uiso   1.00
O545   O     0.98934   0.59186   0.95084   0.00000  Uiso   1.00
O546   O     0.16674   0.98193   0.71853   0.00000  Uiso   1.00
N547   N     0.81205   0.85027   0.33066   0.00000  Uiso   1.00
N548   N     0.93567   0.67847   0.86852   0.00000  Uiso   1.00
N549   N     0.06210   0.95642   0.70300   0.00000  Uiso   1.00
N550   N     0.92013   0.79801   0.30615   0.00000  Uiso   1.00
N551   N     0.04375   0.62620   0.84400   0.00000  Uiso   1.00
N552   N     0.17017   0.90416   0.67848   0.00000  Uiso   1.00
