data_job_05400
_audit_creation_date              2018-12-19
_audit_creation_method            'Materials Studio'
_symmetry_space_group_name_H-M    'P1'
_symmetry_Int_Tables_number       1
_symmetry_cell_setting            triclinic
loop_
_symmetry_equiv_pos_as_xyz
  x,y,z
_cell_length_a                    16.7428
_cell_length_b                    15.0091
_cell_length_c                    19.2045
_cell_angle_alpha                 90.0000
_cell_angle_beta                  90.0000
_cell_angle_gamma                 90.0000
loop_
_atom_site_label
_atom_site_type_symbol
_atom_site_fract_x
_atom_site_fract_y
_atom_site_fract_z
_atom_site_U_iso_or_equiv
_atom_site_adp_type
_atom_site_occupancy
C1     C     0.47242   0.07829   0.25030   0.00000  Uiso   1.00
C2     C     0.48512   0.00073   0.30038   0.00000  Uiso   1.00
C3     C     0.46583   0.00036   0.37066   0.00000  Uiso   1.00
C4     C     0.48216   0.92292   0.40755   0.00000  Uiso   1.00
C5     C     0.49669   0.81382   0.49024   0.00000  Uiso   1.00
C6     C     0.55407   0.09840   0.21881   0.00000  Uiso   1.00
C7     C     0.59274   0.18016   0.22050   0.00000  Uiso   1.00
C8     C     0.66710   0.18493   0.18872   0.00000  Uiso   1.00
C9     C     0.78865   0.22748   0.14472   0.00000  Uiso   1.00
C10    C     0.42145   0.04193   0.19095   0.00000  Uiso   1.00
C11    C     0.34862   0.07622   0.16919   0.00000  Uiso   1.00
C12    C     0.31133   0.03346   0.11393   0.00000  Uiso   1.00
C13    C     0.22696   0.98834   0.02667   0.00000  Uiso   1.00
C14    C     0.53570   0.94140   0.19083   0.00000  Uiso   1.00
C15    C     0.51949   0.92638   0.26808   0.00000  Uiso   1.00
C16    C     0.53585   0.84892   0.30487   0.00000  Uiso   1.00
C17    C     0.51659   0.84843   0.37519   0.00000  Uiso   1.00
C18    C     0.58844   0.02405   0.18651   0.00000  Uiso   1.00
C19    C     0.66276   0.02871   0.15471   0.00000  Uiso   1.00
C20    C     0.70154   0.11045   0.15636   0.00000  Uiso   1.00
C21    C     0.45581   0.96758   0.15865   0.00000  Uiso   1.00
C22    C     0.41863   0.92477   0.10340   0.00000  Uiso   1.00
C23    C     0.34577   0.95898   0.08157   0.00000  Uiso   1.00
H24    H     0.44566   0.13617   0.27544   0.00000  Uiso   1.00
H25    H     0.43924   0.05792   0.39564   0.00000  Uiso   1.00
H26    H     0.56613   0.23768   0.24550   0.00000  Uiso   1.00
H27    H     0.32204   0.13375   0.19420   0.00000  Uiso   1.00
H28    H     0.44731   0.93838   0.51466   0.00000  Uiso   1.00
H29    H     0.71484   0.31743   0.19806   0.00000  Uiso   1.00
H30    H     0.20014   0.09829   0.08988   0.00000  Uiso   1.00
H31    H     0.56246   0.88352   0.16568   0.00000  Uiso   1.00
H32    H     0.56245   0.79139   0.27986   0.00000  Uiso   1.00
H33    H     0.68933   0.97116   0.12972   0.00000  Uiso   1.00
H34    H     0.44525   0.86724   0.07842   0.00000  Uiso   1.00
H35    H     0.54731   0.72206   0.42069   0.00000  Uiso   1.00
H36    H     0.81484   0.10112   0.10409   0.00000  Uiso   1.00
H37    H     0.30014   0.88197   0.99591   0.00000  Uiso   1.00
O38    O     0.49522   0.77418   0.54477   0.00000  Uiso   1.00
O39    O     0.84620   0.27149   0.12939   0.00000  Uiso   1.00
O40    O     0.17092   0.98398   0.98747   0.00000  Uiso   1.00
N41    N     0.47083   0.90010   0.47687   0.00000  Uiso   1.00
N42    N     0.72096   0.25449   0.18088   0.00000  Uiso   1.00
N43    N     0.23977   0.04963   0.07973   0.00000  Uiso   1.00
N44    N     0.52464   0.78370   0.42631   0.00000  Uiso   1.00
N45    N     0.77477   0.13809   0.13031   0.00000  Uiso   1.00
N46    N     0.29358   0.93323   0.02917   0.00000  Uiso   1.00
C47    C     0.02758   0.92171   0.75030   0.00000  Uiso   1.00
C48    C     0.01488   0.99927   0.80038   0.00000  Uiso   1.00
C49    C     0.03417   0.99964   0.87066   0.00000  Uiso   1.00
C50    C     0.01784   0.07708   0.90755   0.00000  Uiso   1.00
C51    C     0.00331   0.18618   0.99024   0.00000  Uiso   1.00
C52    C     0.94593   0.90160   0.71881   0.00000  Uiso   1.00
C53    C     0.90726   0.81984   0.72050   0.00000  Uiso   1.00
C54    C     0.83290   0.81507   0.68872   0.00000  Uiso   1.00
C55    C     0.71135   0.77252   0.64472   0.00000  Uiso   1.00
C56    C     0.07855   0.95807   0.69095   0.00000  Uiso   1.00
C57    C     0.15138   0.92378   0.66919   0.00000  Uiso   1.00
C58    C     0.18867   0.96654   0.61393   0.00000  Uiso   1.00
C59    C     0.27304   0.01166   0.52667   0.00000  Uiso   1.00
C60    C     0.96430   0.05860   0.69083   0.00000  Uiso   1.00
C61    C     0.98051   0.07362   0.76808   0.00000  Uiso   1.00
C62    C     0.96415   0.15108   0.80487   0.00000  Uiso   1.00
C63    C     0.98341   0.15157   0.87519   0.00000  Uiso   1.00
C64    C     0.91156   0.97595   0.68651   0.00000  Uiso   1.00
C65    C     0.83724   0.97129   0.65471   0.00000  Uiso   1.00
C66    C     0.79846   0.88955   0.65636   0.00000  Uiso   1.00
C67    C     0.04419   0.03242   0.65865   0.00000  Uiso   1.00
C68    C     0.08137   0.07523   0.60340   0.00000  Uiso   1.00
C69    C     0.15423   0.04102   0.58157   0.00000  Uiso   1.00
H70    H     0.05434   0.86383   0.77544   0.00000  Uiso   1.00
H71    H     0.06076   0.94208   0.89564   0.00000  Uiso   1.00
H72    H     0.93387   0.76232   0.74550   0.00000  Uiso   1.00
H73    H     0.17796   0.86625   0.69420   0.00000  Uiso   1.00
H74    H     0.05269   0.06162   0.01466   0.00000  Uiso   1.00
H75    H     0.78516   0.68257   0.69806   0.00000  Uiso   1.00
H76    H     0.29986   0.90171   0.58988   0.00000  Uiso   1.00
H77    H     0.93754   0.11648   0.66568   0.00000  Uiso   1.00
H78    H     0.93755   0.20861   0.77986   0.00000  Uiso   1.00
H79    H     0.81067   0.02884   0.62972   0.00000  Uiso   1.00
H80    H     0.05475   0.13276   0.57842   0.00000  Uiso   1.00
H81    H     0.95269   0.27794   0.92069   0.00000  Uiso   1.00
H82    H     0.68516   0.89888   0.60409   0.00000  Uiso   1.00
H83    H     0.19986   0.11803   0.49591   0.00000  Uiso   1.00
O84    O     0.00478   0.22582   0.04477   0.00000  Uiso   1.00
O85    O     0.65380   0.72851   0.62939   0.00000  Uiso   1.00
O86    O     0.32908   0.01602   0.48747   0.00000  Uiso   1.00
N87    N     0.02917   0.09990   0.97687   0.00000  Uiso   1.00
N88    N     0.77904   0.74551   0.68088   0.00000  Uiso   1.00
N89    N     0.26023   0.95037   0.57973   0.00000  Uiso   1.00
N90    N     0.97536   0.21630   0.92631   0.00000  Uiso   1.00
N91    N     0.72523   0.86191   0.63031   0.00000  Uiso   1.00
N92    N     0.20642   0.06677   0.52917   0.00000  Uiso   1.00
C93    C     0.52758   0.57829   0.24970   0.00000  Uiso   1.00
C94    C     0.51488   0.50073   0.19962   0.00000  Uiso   1.00
C95    C     0.53417   0.50036   0.12934   0.00000  Uiso   1.00
C96    C     0.51784   0.42292   0.09245   0.00000  Uiso   1.00
C97    C     0.50331   0.31382   0.00976   0.00000  Uiso   1.00
C98    C     0.44593   0.59840   0.28119   0.00000  Uiso   1.00
C99    C     0.40726   0.68016   0.27950   0.00000  Uiso   1.00
C100   C     0.33290   0.68493   0.31128   0.00000  Uiso   1.00
C101   C     0.21135   0.72748   0.35528   0.00000  Uiso   1.00
C102   C     0.57855   0.54193   0.30905   0.00000  Uiso   1.00
C103   C     0.65138   0.57622   0.33081   0.00000  Uiso   1.00
C104   C     0.68867   0.53346   0.38607   0.00000  Uiso   1.00
C105   C     0.77304   0.48834   0.47333   0.00000  Uiso   1.00
C106   C     0.46430   0.44140   0.30917   0.00000  Uiso   1.00
C107   C     0.48051   0.42638   0.23192   0.00000  Uiso   1.00
C108   C     0.46415   0.34892   0.19513   0.00000  Uiso   1.00
C109   C     0.48341   0.34843   0.12481   0.00000  Uiso   1.00
C110   C     0.41156   0.52405   0.31349   0.00000  Uiso   1.00
C111   C     0.33724   0.52871   0.34529   0.00000  Uiso   1.00
C112   C     0.29846   0.61045   0.34364   0.00000  Uiso   1.00
C113   C     0.54419   0.46758   0.34135   0.00000  Uiso   1.00
C114   C     0.58137   0.42477   0.39660   0.00000  Uiso   1.00
C115   C     0.65423   0.45898   0.41843   0.00000  Uiso   1.00
H116   H     0.55434   0.63617   0.22456   0.00000  Uiso   1.00
H117   H     0.56076   0.55792   0.10436   0.00000  Uiso   1.00
H118   H     0.43387   0.73768   0.25450   0.00000  Uiso   1.00
H119   H     0.67796   0.63375   0.30580   0.00000  Uiso   1.00
H120   H     0.55269   0.43838   0.98534   0.00000  Uiso   1.00
H121   H     0.28516   0.81743   0.30194   0.00000  Uiso   1.00
H122   H     0.79986   0.59829   0.41012   0.00000  Uiso   1.00
H123   H     0.43754   0.38352   0.33432   0.00000  Uiso   1.00
H124   H     0.43755   0.29139   0.22014   0.00000  Uiso   1.00
H125   H     0.31067   0.47116   0.37028   0.00000  Uiso   1.00
H126   H     0.55475   0.36724   0.42158   0.00000  Uiso   1.00
H127   H     0.45269   0.22206   0.07931   0.00000  Uiso   1.00
H128   H     0.18516   0.60112   0.39591   0.00000  Uiso   1.00
H129   H     0.69986   0.38197   0.50409   0.00000  Uiso   1.00
O130   O     0.50478   0.27418   0.95523   0.00000  Uiso   1.00
O131   O     0.15380   0.77149   0.37061   0.00000  Uiso   1.00
O132   O     0.82908   0.48398   0.51253   0.00000  Uiso   1.00
N133   N     0.52917   0.40010   0.02313   0.00000  Uiso   1.00
N134   N     0.27904   0.75449   0.31912   0.00000  Uiso   1.00
N135   N     0.76023   0.54963   0.42027   0.00000  Uiso   1.00
N136   N     0.47536   0.28370   0.07369   0.00000  Uiso   1.00
N137   N     0.22523   0.63809   0.36969   0.00000  Uiso   1.00
N138   N     0.70642   0.43323   0.47083   0.00000  Uiso   1.00
C139   C     0.97242   0.42171   0.74970   0.00000  Uiso   1.00
C140   C     0.98512   0.49927   0.69962   0.00000  Uiso   1.00
C141   C     0.96583   0.49964   0.62934   0.00000  Uiso   1.00
C142   C     0.98216   0.57708   0.59245   0.00000  Uiso   1.00
C143   C     0.99669   0.68618   0.50976   0.00000  Uiso   1.00
C144   C     0.05407   0.40160   0.78119   0.00000  Uiso   1.00
C145   C     0.09274   0.31984   0.77950   0.00000  Uiso   1.00
C146   C     0.16710   0.31507   0.81128   0.00000  Uiso   1.00
C147   C     0.28865   0.27252   0.85528   0.00000  Uiso   1.00
C148   C     0.92145   0.45807   0.80905   0.00000  Uiso   1.00
C149   C     0.84862   0.42378   0.83081   0.00000  Uiso   1.00
C150   C     0.81133   0.46654   0.88607   0.00000  Uiso   1.00
C151   C     0.72696   0.51166   0.97333   0.00000  Uiso   1.00
C152   C     0.03570   0.55860   0.80917   0.00000  Uiso   1.00
C153   C     0.01949   0.57362   0.73192   0.00000  Uiso   1.00
C154   C     0.03585   0.65108   0.69513   0.00000  Uiso   1.00
C155   C     0.01659   0.65157   0.62481   0.00000  Uiso   1.00
C156   C     0.08844   0.47595   0.81349   0.00000  Uiso   1.00
C157   C     0.16276   0.47129   0.84529   0.00000  Uiso   1.00
C158   C     0.20154   0.38955   0.84364   0.00000  Uiso   1.00
C159   C     0.95581   0.53242   0.84135   0.00000  Uiso   1.00
C160   C     0.91863   0.57523   0.89660   0.00000  Uiso   1.00
C161   C     0.84577   0.54102   0.91843   0.00000  Uiso   1.00
H162   H     0.94566   0.36383   0.72456   0.00000  Uiso   1.00
H163   H     0.93924   0.44208   0.60436   0.00000  Uiso   1.00
H164   H     0.06613   0.26232   0.75450   0.00000  Uiso   1.00
H165   H     0.82204   0.36625   0.80580   0.00000  Uiso   1.00
H166   H     0.94731   0.56162   0.48534   0.00000  Uiso   1.00
H167   H     0.21484   0.18257   0.80194   0.00000  Uiso   1.00
H168   H     0.70014   0.40171   0.91012   0.00000  Uiso   1.00
H169   H     0.06246   0.61648   0.83432   0.00000  Uiso   1.00
H170   H     0.06245   0.70861   0.72014   0.00000  Uiso   1.00
H171   H     0.18933   0.52884   0.87028   0.00000  Uiso   1.00
H172   H     0.94525   0.63276   0.92158   0.00000  Uiso   1.00
H173   H     0.04731   0.77794   0.57931   0.00000  Uiso   1.00
H174   H     0.31484   0.39888   0.89591   0.00000  Uiso   1.00
H175   H     0.80014   0.61803   0.00409   0.00000  Uiso   1.00
O176   O     0.99522   0.72582   0.45523   0.00000  Uiso   1.00
O177   O     0.34620   0.22851   0.87061   0.00000  Uiso   1.00
O178   O     0.67092   0.51602   0.01253   0.00000  Uiso   1.00
N179   N     0.97083   0.59990   0.52313   0.00000  Uiso   1.00
N180   N     0.22096   0.24551   0.81912   0.00000  Uiso   1.00
N181   N     0.73977   0.45037   0.92027   0.00000  Uiso   1.00
N182   N     0.02464   0.71630   0.57369   0.00000  Uiso   1.00
N183   N     0.27477   0.36191   0.86969   0.00000  Uiso   1.00
N184   N     0.79358   0.56677   0.97083   0.00000  Uiso   1.00
C185   C     0.52758   0.92171   0.74970   0.00000  Uiso   1.00
C186   C     0.51488   0.99927   0.69962   0.00000  Uiso   1.00
C187   C     0.53417   0.99964   0.62934   0.00000  Uiso   1.00
C188   C     0.51784   0.07708   0.59245   0.00000  Uiso   1.00
C189   C     0.50331   0.18618   0.50976   0.00000  Uiso   1.00
C190   C     0.44593   0.90160   0.78119   0.00000  Uiso   1.00
C191   C     0.40726   0.81984   0.77950   0.00000  Uiso   1.00
C192   C     0.33290   0.81507   0.81128   0.00000  Uiso   1.00
C193   C     0.21135   0.77252   0.85528   0.00000  Uiso   1.00
C194   C     0.57855   0.95807   0.80905   0.00000  Uiso   1.00
C195   C     0.65138   0.92378   0.83081   0.00000  Uiso   1.00
C196   C     0.68867   0.96654   0.88607   0.00000  Uiso   1.00
C197   C     0.77304   0.01166   0.97333   0.00000  Uiso   1.00
C198   C     0.46430   0.05860   0.80917   0.00000  Uiso   1.00
C199   C     0.48051   0.07362   0.73192   0.00000  Uiso   1.00
C200   C     0.46415   0.15108   0.69513   0.00000  Uiso   1.00
C201   C     0.48341   0.15157   0.62481   0.00000  Uiso   1.00
C202   C     0.41156   0.97595   0.81349   0.00000  Uiso   1.00
C203   C     0.33724   0.97129   0.84529   0.00000  Uiso   1.00
C204   C     0.29846   0.88955   0.84364   0.00000  Uiso   1.00
C205   C     0.54419   0.03242   0.84135   0.00000  Uiso   1.00
C206   C     0.58137   0.07523   0.89660   0.00000  Uiso   1.00
C207   C     0.65423   0.04102   0.91843   0.00000  Uiso   1.00
H208   H     0.55434   0.86383   0.72456   0.00000  Uiso   1.00
H209   H     0.56076   0.94208   0.60436   0.00000  Uiso   1.00
H210   H     0.43387   0.76232   0.75450   0.00000  Uiso   1.00
H211   H     0.67796   0.86625   0.80580   0.00000  Uiso   1.00
H212   H     0.55269   0.06162   0.48534   0.00000  Uiso   1.00
H213   H     0.28516   0.68257   0.80194   0.00000  Uiso   1.00
H214   H     0.79986   0.90171   0.91012   0.00000  Uiso   1.00
H215   H     0.43754   0.11648   0.83432   0.00000  Uiso   1.00
H216   H     0.43755   0.20861   0.72014   0.00000  Uiso   1.00
H217   H     0.31067   0.02884   0.87028   0.00000  Uiso   1.00
H218   H     0.55475   0.13276   0.92158   0.00000  Uiso   1.00
H219   H     0.45269   0.27794   0.57931   0.00000  Uiso   1.00
H220   H     0.18516   0.89888   0.89591   0.00000  Uiso   1.00
H221   H     0.69986   0.11803   0.00409   0.00000  Uiso   1.00
O222   O     0.50478   0.22582   0.45523   0.00000  Uiso   1.00
O223   O     0.15380   0.72851   0.87061   0.00000  Uiso   1.00
O224   O     0.82908   0.01602   0.01253   0.00000  Uiso   1.00
N225   N     0.52917   0.09990   0.52313   0.00000  Uiso   1.00
N226   N     0.27904   0.74551   0.81912   0.00000  Uiso   1.00
N227   N     0.76023   0.95037   0.92027   0.00000  Uiso   1.00
N228   N     0.47536   0.21630   0.57369   0.00000  Uiso   1.00
N229   N     0.22523   0.86191   0.86969   0.00000  Uiso   1.00
N230   N     0.70642   0.06677   0.97083   0.00000  Uiso   1.00
C231   C     0.97242   0.07829   0.24970   0.00000  Uiso   1.00
C232   C     0.98512   0.00073   0.19962   0.00000  Uiso   1.00
C233   C     0.96583   0.00036   0.12934   0.00000  Uiso   1.00
C234   C     0.98216   0.92292   0.09245   0.00000  Uiso   1.00
C235   C     0.99669   0.81382   0.00976   0.00000  Uiso   1.00
C236   C     0.05407   0.09840   0.28119   0.00000  Uiso   1.00
C237   C     0.09274   0.18016   0.27950   0.00000  Uiso   1.00
C238   C     0.16710   0.18493   0.31128   0.00000  Uiso   1.00
C239   C     0.28865   0.22748   0.35528   0.00000  Uiso   1.00
C240   C     0.92145   0.04193   0.30905   0.00000  Uiso   1.00
C241   C     0.84862   0.07622   0.33081   0.00000  Uiso   1.00
C242   C     0.81133   0.03346   0.38607   0.00000  Uiso   1.00
C243   C     0.72696   0.98834   0.47333   0.00000  Uiso   1.00
C244   C     0.03570   0.94140   0.30917   0.00000  Uiso   1.00
C245   C     0.01949   0.92638   0.23192   0.00000  Uiso   1.00
C246   C     0.03585   0.84892   0.19513   0.00000  Uiso   1.00
C247   C     0.01659   0.84843   0.12481   0.00000  Uiso   1.00
C248   C     0.08844   0.02405   0.31349   0.00000  Uiso   1.00
C249   C     0.16276   0.02871   0.34529   0.00000  Uiso   1.00
C250   C     0.20154   0.11045   0.34364   0.00000  Uiso   1.00
C251   C     0.95581   0.96758   0.34135   0.00000  Uiso   1.00
C252   C     0.91863   0.92477   0.39660   0.00000  Uiso   1.00
C253   C     0.84577   0.95898   0.41843   0.00000  Uiso   1.00
H254   H     0.94566   0.13617   0.22456   0.00000  Uiso   1.00
H255   H     0.93924   0.05792   0.10436   0.00000  Uiso   1.00
H256   H     0.06613   0.23768   0.25450   0.00000  Uiso   1.00
H257   H     0.82204   0.13375   0.30580   0.00000  Uiso   1.00
H258   H     0.94731   0.93838   0.98534   0.00000  Uiso   1.00
H259   H     0.21484   0.31743   0.30194   0.00000  Uiso   1.00
H260   H     0.70014   0.09829   0.41012   0.00000  Uiso   1.00
H261   H     0.06246   0.88352   0.33432   0.00000  Uiso   1.00
H262   H     0.06245   0.79139   0.22014   0.00000  Uiso   1.00
H263   H     0.18933   0.97116   0.37028   0.00000  Uiso   1.00
H264   H     0.94525   0.86724   0.42158   0.00000  Uiso   1.00
H265   H     0.04731   0.72206   0.07931   0.00000  Uiso   1.00
H266   H     0.31484   0.10112   0.39591   0.00000  Uiso   1.00
H267   H     0.80014   0.88197   0.50409   0.00000  Uiso   1.00
O268   O     0.99522   0.77418   0.95523   0.00000  Uiso   1.00
O269   O     0.34620   0.27149   0.37061   0.00000  Uiso   1.00
O270   O     0.67092   0.98398   0.51253   0.00000  Uiso   1.00
N271   N     0.97083   0.90010   0.02313   0.00000  Uiso   1.00
N272   N     0.22096   0.25449   0.31912   0.00000  Uiso   1.00
N273   N     0.73977   0.04963   0.42027   0.00000  Uiso   1.00
N274   N     0.02464   0.78370   0.07369   0.00000  Uiso   1.00
N275   N     0.27477   0.13809   0.36969   0.00000  Uiso   1.00
N276   N     0.79358   0.93323   0.47083   0.00000  Uiso   1.00
C277   C     0.47242   0.42171   0.75030   0.00000  Uiso   1.00
C278   C     0.48512   0.49927   0.80038   0.00000  Uiso   1.00
C279   C     0.46583   0.49964   0.87066   0.00000  Uiso   1.00
C280   C     0.48216   0.57708   0.90755   0.00000  Uiso   1.00
C281   C     0.49669   0.68618   0.99024   0.00000  Uiso   1.00
C282   C     0.55407   0.40160   0.71881   0.00000  Uiso   1.00
C283   C     0.59274   0.31984   0.72050   0.00000  Uiso   1.00
C284   C     0.66710   0.31507   0.68872   0.00000  Uiso   1.00
C285   C     0.78865   0.27252   0.64472   0.00000  Uiso   1.00
C286   C     0.42145   0.45807   0.69095   0.00000  Uiso   1.00
C287   C     0.34862   0.42378   0.66919   0.00000  Uiso   1.00
C288   C     0.31133   0.46654   0.61393   0.00000  Uiso   1.00
C289   C     0.22696   0.51166   0.52667   0.00000  Uiso   1.00
C290   C     0.53570   0.55860   0.69083   0.00000  Uiso   1.00
C291   C     0.51949   0.57362   0.76808   0.00000  Uiso   1.00
C292   C     0.53585   0.65108   0.80487   0.00000  Uiso   1.00
C293   C     0.51659   0.65157   0.87519   0.00000  Uiso   1.00
C294   C     0.58844   0.47595   0.68651   0.00000  Uiso   1.00
C295   C     0.66276   0.47129   0.65471   0.00000  Uiso   1.00
C296   C     0.70154   0.38955   0.65636   0.00000  Uiso   1.00
C297   C     0.45581   0.53242   0.65865   0.00000  Uiso   1.00
C298   C     0.41863   0.57523   0.60340   0.00000  Uiso   1.00
C299   C     0.34577   0.54102   0.58157   0.00000  Uiso   1.00
H300   H     0.44566   0.36383   0.77544   0.00000  Uiso   1.00
H301   H     0.43924   0.44208   0.89564   0.00000  Uiso   1.00
H302   H     0.56613   0.26232   0.74550   0.00000  Uiso   1.00
H303   H     0.32204   0.36625   0.69420   0.00000  Uiso   1.00
H304   H     0.44731   0.56162   0.01466   0.00000  Uiso   1.00
H305   H     0.71484   0.18257   0.69806   0.00000  Uiso   1.00
H306   H     0.20014   0.40171   0.58988   0.00000  Uiso   1.00
H307   H     0.56246   0.61648   0.66568   0.00000  Uiso   1.00
H308   H     0.56245   0.70861   0.77986   0.00000  Uiso   1.00
H309   H     0.68933   0.52884   0.62972   0.00000  Uiso   1.00
H310   H     0.44525   0.63276   0.57842   0.00000  Uiso   1.00
H311   H     0.54731   0.77794   0.92069   0.00000  Uiso   1.00
H312   H     0.81484   0.39888   0.60409   0.00000  Uiso   1.00
H313   H     0.30014   0.61803   0.49591   0.00000  Uiso   1.00
O314   O     0.49522   0.72582   0.04477   0.00000  Uiso   1.00
O315   O     0.84620   0.22851   0.62939   0.00000  Uiso   1.00
O316   O     0.17092   0.51602   0.48747   0.00000  Uiso   1.00
N317   N     0.47083   0.59990   0.97687   0.00000  Uiso   1.00
N318   N     0.72096   0.24551   0.68088   0.00000  Uiso   1.00
N319   N     0.23977   0.45037   0.57973   0.00000  Uiso   1.00
N320   N     0.52464   0.71630   0.92631   0.00000  Uiso   1.00
N321   N     0.77477   0.36191   0.63031   0.00000  Uiso   1.00
N322   N     0.29358   0.56677   0.52917   0.00000  Uiso   1.00
C323   C     0.02758   0.57829   0.25030   0.00000  Uiso   1.00
C324   C     0.01488   0.50073   0.30038   0.00000  Uiso   1.00
C325   C     0.03417   0.50036   0.37066   0.00000  Uiso   1.00
C326   C     0.01784   0.42292   0.40755   0.00000  Uiso   1.00
C327   C     0.00331   0.31382   0.49024   0.00000  Uiso   1.00
C328   C     0.94593   0.59840   0.21881   0.00000  Uiso   1.00
C329   C     0.90726   0.68016   0.22050   0.00000  Uiso   1.00
C330   C     0.83290   0.68493   0.18872   0.00000  Uiso   1.00
C331   C     0.71135   0.72748   0.14472   0.00000  Uiso   1.00
C332   C     0.07855   0.54193   0.19095   0.00000  Uiso   1.00
C333   C     0.15138   0.57622   0.16919   0.00000  Uiso   1.00
C334   C     0.18867   0.53346   0.11393   0.00000  Uiso   1.00
C335   C     0.27304   0.48834   0.02667   0.00000  Uiso   1.00
C336   C     0.96430   0.44140   0.19083   0.00000  Uiso   1.00
C337   C     0.98051   0.42638   0.26808   0.00000  Uiso   1.00
C338   C     0.96415   0.34892   0.30487   0.00000  Uiso   1.00
C339   C     0.98341   0.34843   0.37519   0.00000  Uiso   1.00
C340   C     0.91156   0.52405   0.18651   0.00000  Uiso   1.00
C341   C     0.83724   0.52871   0.15471   0.00000  Uiso   1.00
C342   C     0.79846   0.61045   0.15636   0.00000  Uiso   1.00
C343   C     0.04419   0.46758   0.15865   0.00000  Uiso   1.00
C344   C     0.08137   0.42477   0.10340   0.00000  Uiso   1.00
C345   C     0.15423   0.45898   0.08157   0.00000  Uiso   1.00
H346   H     0.05434   0.63617   0.27544   0.00000  Uiso   1.00
H347   H     0.06076   0.55792   0.39564   0.00000  Uiso   1.00
H348   H     0.93387   0.73768   0.24550   0.00000  Uiso   1.00
H349   H     0.17796   0.63375   0.19420   0.00000  Uiso   1.00
H350   H     0.05269   0.43838   0.51466   0.00000  Uiso   1.00
H351   H     0.78516   0.81743   0.19806   0.00000  Uiso   1.00
H352   H     0.29986   0.59829   0.08988   0.00000  Uiso   1.00
H353   H     0.93754   0.38352   0.16568   0.00000  Uiso   1.00
H354   H     0.93755   0.29139   0.27986   0.00000  Uiso   1.00
H355   H     0.81067   0.47116   0.12972   0.00000  Uiso   1.00
H356   H     0.05475   0.36724   0.07842   0.00000  Uiso   1.00
H357   H     0.95269   0.22206   0.42069   0.00000  Uiso   1.00
H358   H     0.68516   0.60112   0.10409   0.00000  Uiso   1.00
H359   H     0.19986   0.38197   0.99591   0.00000  Uiso   1.00
O360   O     0.00478   0.27418   0.54477   0.00000  Uiso   1.00
O361   O     0.65380   0.77149   0.12939   0.00000  Uiso   1.00
O362   O     0.32908   0.48398   0.98747   0.00000  Uiso   1.00
N363   N     0.02917   0.40010   0.47687   0.00000  Uiso   1.00
N364   N     0.77904   0.75449   0.18088   0.00000  Uiso   1.00
N365   N     0.26023   0.54963   0.07973   0.00000  Uiso   1.00
N366   N     0.97536   0.28370   0.42631   0.00000  Uiso   1.00
N367   N     0.72523   0.63809   0.13031   0.00000  Uiso   1.00
N368   N     0.20642   0.43323   0.02917   0.00000  Uiso   1.00
