data_job_04208
_audit_creation_date              2018-12-19
_audit_creation_method            'Materials Studio'
_symmetry_space_group_name_H-M    'P1'
_symmetry_Int_Tables_number       1
_symmetry_cell_setting            triclinic
loop_
_symmetry_equiv_pos_as_xyz
  x,y,z
_cell_length_a                    11.6766
_cell_length_b                    11.7101
_cell_length_c                    24.3482
_cell_angle_alpha                 90.0000
_cell_angle_beta                  110.3308
_cell_angle_gamma                 90.0000
loop_
_atom_site_label
_atom_site_type_symbol
_atom_site_fract_x
_atom_site_fract_y
_atom_site_fract_z
_atom_site_U_iso_or_equiv
_atom_site_adp_type
_atom_site_occupancy
C1     C     0.77850   0.48147   0.08529   0.00000  Uiso   1.00
C2     C     0.75130   0.60555   0.09532   0.00000  Uiso   1.00
C3     C     0.67083   0.67679   0.05425   0.00000  Uiso   1.00
C4     C     0.65875   0.78746   0.07197   0.00000  Uiso   1.00
C5     C     0.60651   0.97437   0.07889   0.00000  Uiso   1.00
C6     C     0.91628   0.47442   0.09977   0.00000  Uiso   1.00
C7     C     0.97452   0.43541   0.06245   0.00000  Uiso   1.00
C8     C     0.10132   0.43568   0.08392   0.00000  Uiso   1.00
C9     C     0.30523   0.41894   0.09778   0.00000  Uiso   1.00
C10    C     0.75128   0.41230   0.13239   0.00000  Uiso   1.00
C11    C     0.67081   0.32103   0.12250   0.00000  Uiso   1.00
C12    C     0.65871   0.26898   0.17143   0.00000  Uiso   1.00
C13    C     0.60643   0.15578   0.23593   0.00000  Uiso   1.00
C14    C     0.90014   0.55131   0.18978   0.00000  Uiso   1.00
C15    C     0.81738   0.64348   0.15207   0.00000  Uiso   1.00
C16    C     0.80541   0.75407   0.16985   0.00000  Uiso   1.00
C17    C     0.72493   0.82546   0.12882   0.00000  Uiso   1.00
C18    C     0.98236   0.51236   0.15652   0.00000  Uiso   1.00
C19    C     0.10910   0.51268   0.17806   0.00000  Uiso   1.00
C20    C     0.16752   0.47368   0.14078   0.00000  Uiso   1.00
C21    C     0.81735   0.45023   0.18914   0.00000  Uiso   1.00
C22    C     0.80539   0.39831   0.23810   0.00000  Uiso   1.00
C23    C     0.72491   0.30698   0.22829   0.00000  Uiso   1.00
H24    H     0.72706   0.45193   0.04111   0.00000  Uiso   1.00
H25    H     0.61972   0.64741   0.01033   0.00000  Uiso   1.00
H26    H     0.92336   0.40604   0.01854   0.00000  Uiso   1.00
H27    H     0.61969   0.29169   0.07857   0.00000  Uiso   1.00
H28    H     0.52988   0.88087   0.00124   0.00000  Uiso   1.00
H29    H     0.17013   0.37191   0.01854   0.00000  Uiso   1.00
H30    H     0.52979   0.13077   0.14514   0.00000  Uiso   1.00
H31    H     0.95159   0.58084   0.23397   0.00000  Uiso   1.00
H32    H     0.85655   0.78340   0.21377   0.00000  Uiso   1.00
H33    H     0.16020   0.54204   0.22198   0.00000  Uiso   1.00
H34    H     0.85653   0.42769   0.28201   0.00000  Uiso   1.00
H35    H     0.72211   0.99125   0.16635   0.00000  Uiso   1.00
H36    H     0.36236   0.48228   0.18366   0.00000  Uiso   1.00
H37    H     0.72202   0.24115   0.31026   0.00000  Uiso   1.00
O38    O     0.55946   0.06699   0.06703   0.00000  Uiso   1.00
O39    O     0.39944   0.39923   0.08974   0.00000  Uiso   1.00
O40    O     0.55932   0.08287   0.25583   0.00000  Uiso   1.00
N41    N     0.58814   0.87904   0.04287   0.00000  Uiso   1.00
N42    N     0.18674   0.40321   0.05905   0.00000  Uiso   1.00
N43    N     0.58810   0.17775   0.17741   0.00000  Uiso   1.00
N44    N     0.69158   0.93843   0.13172   0.00000  Uiso   1.00
N45    N     0.29018   0.46260   0.14790   0.00000  Uiso   1.00
N46    N     0.69153   0.23714   0.26626   0.00000  Uiso   1.00
C47    C     0.22150   0.98147   0.41471   0.00000  Uiso   1.00
C48    C     0.24870   0.10555   0.40468   0.00000  Uiso   1.00
C49    C     0.32917   0.17679   0.44575   0.00000  Uiso   1.00
C50    C     0.34125   0.28746   0.42803   0.00000  Uiso   1.00
C51    C     0.39349   0.47437   0.42111   0.00000  Uiso   1.00
C52    C     0.08372   0.97442   0.40023   0.00000  Uiso   1.00
C53    C     0.02548   0.93541   0.43755   0.00000  Uiso   1.00
C54    C     0.89868   0.93568   0.41608   0.00000  Uiso   1.00
C55    C     0.69477   0.91894   0.40222   0.00000  Uiso   1.00
C56    C     0.24872   0.91230   0.36761   0.00000  Uiso   1.00
C57    C     0.32919   0.82103   0.37750   0.00000  Uiso   1.00
C58    C     0.34129   0.76898   0.32857   0.00000  Uiso   1.00
C59    C     0.39357   0.65578   0.26407   0.00000  Uiso   1.00
C60    C     0.09986   0.05131   0.31022   0.00000  Uiso   1.00
C61    C     0.18262   0.14348   0.34793   0.00000  Uiso   1.00
C62    C     0.19459   0.25407   0.33015   0.00000  Uiso   1.00
C63    C     0.27507   0.32546   0.37118   0.00000  Uiso   1.00
C64    C     0.01764   0.01236   0.34348   0.00000  Uiso   1.00
C65    C     0.89090   0.01268   0.32194   0.00000  Uiso   1.00
C66    C     0.83248   0.97368   0.35922   0.00000  Uiso   1.00
C67    C     0.18265   0.95023   0.31086   0.00000  Uiso   1.00
C68    C     0.19461   0.89831   0.26190   0.00000  Uiso   1.00
C69    C     0.27509   0.80698   0.27171   0.00000  Uiso   1.00
H70    H     0.27294   0.95193   0.45889   0.00000  Uiso   1.00
H71    H     0.38028   0.14741   0.48967   0.00000  Uiso   1.00
H72    H     0.07664   0.90604   0.48146   0.00000  Uiso   1.00
H73    H     0.38031   0.79169   0.42143   0.00000  Uiso   1.00
H74    H     0.47012   0.38087   0.49876   0.00000  Uiso   1.00
H75    H     0.82987   0.87191   0.48146   0.00000  Uiso   1.00
H76    H     0.47021   0.63077   0.35486   0.00000  Uiso   1.00
H77    H     0.04841   0.08084   0.26603   0.00000  Uiso   1.00
H78    H     0.14345   0.28340   0.28623   0.00000  Uiso   1.00
H79    H     0.83980   0.04204   0.27802   0.00000  Uiso   1.00
H80    H     0.14347   0.92769   0.21799   0.00000  Uiso   1.00
H81    H     0.27789   0.49125   0.33365   0.00000  Uiso   1.00
H82    H     0.63764   0.98228   0.31634   0.00000  Uiso   1.00
H83    H     0.27798   0.74115   0.18974   0.00000  Uiso   1.00
O84    O     0.44054   0.56699   0.43297   0.00000  Uiso   1.00
O85    O     0.60056   0.89923   0.41026   0.00000  Uiso   1.00
O86    O     0.44068   0.58287   0.24417   0.00000  Uiso   1.00
N87    N     0.41186   0.37904   0.45713   0.00000  Uiso   1.00
N88    N     0.81326   0.90321   0.44095   0.00000  Uiso   1.00
N89    N     0.41190   0.67775   0.32259   0.00000  Uiso   1.00
N90    N     0.30842   0.43843   0.36828   0.00000  Uiso   1.00
N91    N     0.70982   0.96260   0.35210   0.00000  Uiso   1.00
N92    N     0.30847   0.73714   0.23374   0.00000  Uiso   1.00
C93    C     0.22150   0.51853   0.91471   0.00000  Uiso   1.00
C94    C     0.24870   0.39445   0.90468   0.00000  Uiso   1.00
C95    C     0.32917   0.32321   0.94575   0.00000  Uiso   1.00
C96    C     0.34125   0.21254   0.92803   0.00000  Uiso   1.00
C97    C     0.39349   0.02563   0.92111   0.00000  Uiso   1.00
C98    C     0.08372   0.52558   0.90023   0.00000  Uiso   1.00
C99    C     0.02548   0.56459   0.93755   0.00000  Uiso   1.00
C100   C     0.89868   0.56432   0.91608   0.00000  Uiso   1.00
C101   C     0.69477   0.58106   0.90222   0.00000  Uiso   1.00
C102   C     0.24872   0.58770   0.86761   0.00000  Uiso   1.00
C103   C     0.32919   0.67897   0.87750   0.00000  Uiso   1.00
C104   C     0.34129   0.73102   0.82857   0.00000  Uiso   1.00
C105   C     0.39357   0.84422   0.76407   0.00000  Uiso   1.00
C106   C     0.09986   0.44869   0.81022   0.00000  Uiso   1.00
C107   C     0.18262   0.35652   0.84793   0.00000  Uiso   1.00
C108   C     0.19459   0.24593   0.83015   0.00000  Uiso   1.00
C109   C     0.27507   0.17454   0.87118   0.00000  Uiso   1.00
C110   C     0.01764   0.48764   0.84348   0.00000  Uiso   1.00
C111   C     0.89090   0.48732   0.82194   0.00000  Uiso   1.00
C112   C     0.83248   0.52632   0.85922   0.00000  Uiso   1.00
C113   C     0.18265   0.54977   0.81086   0.00000  Uiso   1.00
C114   C     0.19461   0.60169   0.76190   0.00000  Uiso   1.00
C115   C     0.27509   0.69302   0.77171   0.00000  Uiso   1.00
H116   H     0.27294   0.54807   0.95889   0.00000  Uiso   1.00
H117   H     0.38028   0.35259   0.98967   0.00000  Uiso   1.00
H118   H     0.07664   0.59396   0.98146   0.00000  Uiso   1.00
H119   H     0.38031   0.70831   0.92143   0.00000  Uiso   1.00
H120   H     0.47012   0.11913   0.99876   0.00000  Uiso   1.00
H121   H     0.82987   0.62809   0.98146   0.00000  Uiso   1.00
H122   H     0.47021   0.86923   0.85486   0.00000  Uiso   1.00
H123   H     0.04841   0.41916   0.76603   0.00000  Uiso   1.00
H124   H     0.14345   0.21660   0.78623   0.00000  Uiso   1.00
H125   H     0.83980   0.45796   0.77802   0.00000  Uiso   1.00
H126   H     0.14347   0.57231   0.71799   0.00000  Uiso   1.00
H127   H     0.27789   0.00875   0.83365   0.00000  Uiso   1.00
H128   H     0.63764   0.51772   0.81634   0.00000  Uiso   1.00
H129   H     0.27798   0.75885   0.68974   0.00000  Uiso   1.00
O130   O     0.44054   0.93301   0.93297   0.00000  Uiso   1.00
O131   O     0.60056   0.60077   0.91026   0.00000  Uiso   1.00
O132   O     0.44068   0.91713   0.74417   0.00000  Uiso   1.00
N133   N     0.41186   0.12096   0.95713   0.00000  Uiso   1.00
N134   N     0.81326   0.59679   0.94095   0.00000  Uiso   1.00
N135   N     0.41190   0.82225   0.82259   0.00000  Uiso   1.00
N136   N     0.30842   0.06157   0.86828   0.00000  Uiso   1.00
N137   N     0.70982   0.53740   0.85210   0.00000  Uiso   1.00
N138   N     0.30847   0.76286   0.73374   0.00000  Uiso   1.00
C139   C     0.77850   0.01853   0.58529   0.00000  Uiso   1.00
C140   C     0.75130   0.89445   0.59532   0.00000  Uiso   1.00
C141   C     0.67083   0.82321   0.55425   0.00000  Uiso   1.00
C142   C     0.65875   0.71254   0.57197   0.00000  Uiso   1.00
C143   C     0.60651   0.52563   0.57889   0.00000  Uiso   1.00
C144   C     0.91628   0.02558   0.59977   0.00000  Uiso   1.00
C145   C     0.97452   0.06459   0.56245   0.00000  Uiso   1.00
C146   C     0.10132   0.06432   0.58392   0.00000  Uiso   1.00
C147   C     0.30523   0.08106   0.59778   0.00000  Uiso   1.00
C148   C     0.75128   0.08770   0.63239   0.00000  Uiso   1.00
C149   C     0.67081   0.17897   0.62250   0.00000  Uiso   1.00
C150   C     0.65871   0.23102   0.67143   0.00000  Uiso   1.00
C151   C     0.60643   0.34422   0.73593   0.00000  Uiso   1.00
C152   C     0.90014   0.94869   0.68978   0.00000  Uiso   1.00
C153   C     0.81738   0.85652   0.65207   0.00000  Uiso   1.00
C154   C     0.80541   0.74593   0.66985   0.00000  Uiso   1.00
C155   C     0.72493   0.67454   0.62882   0.00000  Uiso   1.00
C156   C     0.98236   0.98764   0.65652   0.00000  Uiso   1.00
C157   C     0.10910   0.98732   0.67806   0.00000  Uiso   1.00
C158   C     0.16752   0.02632   0.64078   0.00000  Uiso   1.00
C159   C     0.81735   0.04977   0.68914   0.00000  Uiso   1.00
C160   C     0.80539   0.10169   0.73810   0.00000  Uiso   1.00
C161   C     0.72491   0.19302   0.72829   0.00000  Uiso   1.00
H162   H     0.72706   0.04807   0.54111   0.00000  Uiso   1.00
H163   H     0.61972   0.85259   0.51033   0.00000  Uiso   1.00
H164   H     0.92336   0.09396   0.51854   0.00000  Uiso   1.00
H165   H     0.61969   0.20831   0.57857   0.00000  Uiso   1.00
H166   H     0.52988   0.61913   0.50124   0.00000  Uiso   1.00
H167   H     0.17013   0.12809   0.51854   0.00000  Uiso   1.00
H168   H     0.52979   0.36923   0.64514   0.00000  Uiso   1.00
H169   H     0.95159   0.91916   0.73397   0.00000  Uiso   1.00
H170   H     0.85655   0.71660   0.71377   0.00000  Uiso   1.00
H171   H     0.16020   0.95796   0.72198   0.00000  Uiso   1.00
H172   H     0.85653   0.07231   0.78201   0.00000  Uiso   1.00
H173   H     0.72211   0.50875   0.66635   0.00000  Uiso   1.00
H174   H     0.36236   0.01772   0.68366   0.00000  Uiso   1.00
H175   H     0.72202   0.25885   0.81026   0.00000  Uiso   1.00
O176   O     0.55946   0.43301   0.56703   0.00000  Uiso   1.00
O177   O     0.39944   0.10077   0.58974   0.00000  Uiso   1.00
O178   O     0.55932   0.41713   0.75583   0.00000  Uiso   1.00
N179   N     0.58814   0.62096   0.54287   0.00000  Uiso   1.00
N180   N     0.18674   0.09679   0.55905   0.00000  Uiso   1.00
N181   N     0.58810   0.32225   0.67741   0.00000  Uiso   1.00
N182   N     0.69158   0.56157   0.63172   0.00000  Uiso   1.00
N183   N     0.29018   0.03740   0.64790   0.00000  Uiso   1.00
N184   N     0.69153   0.26286   0.76626   0.00000  Uiso   1.00
