data_job_05260
_audit_creation_date              2018-12-19
_audit_creation_method            'Materials Studio'
_symmetry_space_group_name_H-M    'P1'
_symmetry_Int_Tables_number       1
_symmetry_cell_setting            triclinic
loop_
_symmetry_equiv_pos_as_xyz
  x,y,z
_cell_length_a                    33.1443
_cell_length_b                    9.5347
_cell_length_c                    17.8713
_cell_angle_alpha                 90.0000
_cell_angle_beta                  90.0000
_cell_angle_gamma                 90.0000
loop_
_atom_site_label
_atom_site_type_symbol
_atom_site_fract_x
_atom_site_fract_y
_atom_site_fract_z
_atom_site_U_iso_or_equiv
_atom_site_adp_type
_atom_site_occupancy
C1     C     0.58374   0.27466   0.71259   0.00000  Uiso   1.00
C2     C     0.58513   0.27813   0.79786   0.00000  Uiso   1.00
C3     C     0.57008   0.38459   0.84285   0.00000  Uiso   1.00
C4     C     0.57430   0.36813   0.91964   0.00000  Uiso   1.00
C5     C     0.57366   0.39162   0.04739   0.00000  Uiso   1.00
C6     C     0.62730   0.25737   0.68675   0.00000  Uiso   1.00
C7     C     0.64770   0.34636   0.63832   0.00000  Uiso   1.00
C8     C     0.68742   0.31239   0.62158   0.00000  Uiso   1.00
C9     C     0.75224   0.30359   0.57678   0.00000  Uiso   1.00
C10    C     0.56227   0.13869   0.69178   0.00000  Uiso   1.00
C11    C     0.52799   0.12789   0.64756   0.00000  Uiso   1.00
C12    C     0.51296   0.99401   0.63504   0.00000  Uiso   1.00
C13    C     0.47679   0.80095   0.59806   0.00000  Uiso   1.00
C14    C     0.61801   0.05610   0.76895   0.00000  Uiso   1.00
C15    C     0.60375   0.15942   0.82847   0.00000  Uiso   1.00
C16    C     0.60800   0.14278   0.90521   0.00000  Uiso   1.00
C17    C     0.59295   0.24920   0.95032   0.00000  Uiso   1.00
C18    C     0.64592   0.13866   0.71737   0.00000  Uiso   1.00
C19    C     0.68562   0.10455   0.70068   0.00000  Uiso   1.00
C20    C     0.70607   0.19347   0.65225   0.00000  Uiso   1.00
C21    C     0.58088   0.01998   0.72240   0.00000  Uiso   1.00
C22    C     0.56590   0.88608   0.70993   0.00000  Uiso   1.00
C23    C     0.53161   0.87508   0.66571   0.00000  Uiso   1.00
H24    H     0.56925   0.36708   0.68875   0.00000  Uiso   1.00
H25    H     0.55568   0.47645   0.81914   0.00000  Uiso   1.00
H26    H     0.63329   0.43821   0.61463   0.00000  Uiso   1.00
H27    H     0.51359   0.21978   0.62388   0.00000  Uiso   1.00
H28    H     0.54886   0.54539   0.97720   0.00000  Uiso   1.00
H29    H     0.71249   0.46473   0.54597   0.00000  Uiso   1.00
H30    H     0.46009   0.00412   0.56547   0.00000  Uiso   1.00
H31    H     0.63250   0.96367   0.79279   0.00000  Uiso   1.00
H32    H     0.62240   0.05091   0.92889   0.00000  Uiso   1.00
H33    H     0.70001   0.01267   0.72438   0.00000  Uiso   1.00
H34    H     0.58032   0.79424   0.73363   0.00000  Uiso   1.00
H35    H     0.60302   0.20000   0.06627   0.00000  Uiso   1.00
H36    H     0.76665   0.11934   0.63504   0.00000  Uiso   1.00
H37    H     0.51425   0.65874   0.65454   0.00000  Uiso   1.00
O38    O     0.56816   0.43738   0.10939   0.00000  Uiso   1.00
O39    O     0.78285   0.33154   0.54362   0.00000  Uiso   1.00
O40    O     0.45169   0.72725   0.56921   0.00000  Uiso   1.00
N41    N     0.56298   0.45211   0.97948   0.00000  Uiso   1.00
N42    N     0.71598   0.37671   0.57632   0.00000  Uiso   1.00
N43    N     0.48000   0.94609   0.59453   0.00000  Uiso   1.00
N44    N     0.59212   0.26626   0.02742   0.00000  Uiso   1.00
N45    N     0.74512   0.19087   0.62425   0.00000  Uiso   1.00
N46    N     0.50915   0.76024   0.64246   0.00000  Uiso   1.00
C47    C     0.91626   0.72534   0.71259   0.00000  Uiso   1.00
C48    C     0.91487   0.72187   0.79786   0.00000  Uiso   1.00
C49    C     0.92992   0.61541   0.84285   0.00000  Uiso   1.00
C50    C     0.92570   0.63187   0.91964   0.00000  Uiso   1.00
C51    C     0.92634   0.60838   0.04739   0.00000  Uiso   1.00
C52    C     0.87270   0.74263   0.68675   0.00000  Uiso   1.00
C53    C     0.85230   0.65364   0.63832   0.00000  Uiso   1.00
C54    C     0.81258   0.68761   0.62158   0.00000  Uiso   1.00
C55    C     0.74776   0.69641   0.57678   0.00000  Uiso   1.00
C56    C     0.93773   0.86131   0.69178   0.00000  Uiso   1.00
C57    C     0.97201   0.87211   0.64756   0.00000  Uiso   1.00
C58    C     0.98704   0.00599   0.63504   0.00000  Uiso   1.00
C59    C     0.02321   0.19905   0.59806   0.00000  Uiso   1.00
C60    C     0.88199   0.94390   0.76895   0.00000  Uiso   1.00
C61    C     0.89625   0.84058   0.82847   0.00000  Uiso   1.00
C62    C     0.89200   0.85722   0.90521   0.00000  Uiso   1.00
C63    C     0.90705   0.75080   0.95032   0.00000  Uiso   1.00
C64    C     0.85408   0.86134   0.71737   0.00000  Uiso   1.00
C65    C     0.81438   0.89545   0.70068   0.00000  Uiso   1.00
C66    C     0.79393   0.80653   0.65225   0.00000  Uiso   1.00
C67    C     0.91912   0.98002   0.72240   0.00000  Uiso   1.00
C68    C     0.93410   0.11392   0.70993   0.00000  Uiso   1.00
C69    C     0.96839   0.12492   0.66571   0.00000  Uiso   1.00
H70    H     0.93075   0.63292   0.68875   0.00000  Uiso   1.00
H71    H     0.94432   0.52355   0.81914   0.00000  Uiso   1.00
H72    H     0.86671   0.56179   0.61463   0.00000  Uiso   1.00
H73    H     0.98641   0.78022   0.62388   0.00000  Uiso   1.00
H74    H     0.95114   0.45461   0.97720   0.00000  Uiso   1.00
H75    H     0.78751   0.53527   0.54597   0.00000  Uiso   1.00
H76    H     0.03991   0.99588   0.56547   0.00000  Uiso   1.00
H77    H     0.86750   0.03633   0.79279   0.00000  Uiso   1.00
H78    H     0.87760   0.94909   0.92889   0.00000  Uiso   1.00
H79    H     0.79999   0.98733   0.72438   0.00000  Uiso   1.00
H80    H     0.91968   0.20576   0.73363   0.00000  Uiso   1.00
H81    H     0.89698   0.80000   0.06627   0.00000  Uiso   1.00
H82    H     0.73335   0.88066   0.63504   0.00000  Uiso   1.00
H83    H     0.98575   0.34126   0.65454   0.00000  Uiso   1.00
O84    O     0.93184   0.56262   0.10939   0.00000  Uiso   1.00
O85    O     0.71715   0.66846   0.54362   0.00000  Uiso   1.00
O86    O     0.04831   0.27275   0.56921   0.00000  Uiso   1.00
N87    N     0.93702   0.54789   0.97948   0.00000  Uiso   1.00
N88    N     0.78402   0.62329   0.57632   0.00000  Uiso   1.00
N89    N     0.02000   0.05391   0.59453   0.00000  Uiso   1.00
N90    N     0.90788   0.73374   0.02742   0.00000  Uiso   1.00
N91    N     0.75488   0.80913   0.62425   0.00000  Uiso   1.00
N92    N     0.99085   0.23976   0.64246   0.00000  Uiso   1.00
C93    C     0.41626   0.27466   0.78741   0.00000  Uiso   1.00
C94    C     0.41487   0.27813   0.70214   0.00000  Uiso   1.00
C95    C     0.42992   0.38459   0.65715   0.00000  Uiso   1.00
C96    C     0.42570   0.36813   0.58036   0.00000  Uiso   1.00
C97    C     0.42634   0.39162   0.45261   0.00000  Uiso   1.00
C98    C     0.37270   0.25737   0.81325   0.00000  Uiso   1.00
C99    C     0.35230   0.34636   0.86168   0.00000  Uiso   1.00
C100   C     0.31258   0.31239   0.87842   0.00000  Uiso   1.00
C101   C     0.24776   0.30359   0.92322   0.00000  Uiso   1.00
C102   C     0.43773   0.13869   0.80822   0.00000  Uiso   1.00
C103   C     0.47201   0.12789   0.85244   0.00000  Uiso   1.00
C104   C     0.48704   0.99401   0.86496   0.00000  Uiso   1.00
C105   C     0.52321   0.80095   0.90194   0.00000  Uiso   1.00
C106   C     0.38199   0.05610   0.73105   0.00000  Uiso   1.00
C107   C     0.39625   0.15942   0.67153   0.00000  Uiso   1.00
C108   C     0.39200   0.14278   0.59479   0.00000  Uiso   1.00
C109   C     0.40705   0.24920   0.54968   0.00000  Uiso   1.00
C110   C     0.35408   0.13866   0.78263   0.00000  Uiso   1.00
C111   C     0.31438   0.10455   0.79932   0.00000  Uiso   1.00
C112   C     0.29393   0.19347   0.84775   0.00000  Uiso   1.00
C113   C     0.41912   0.01998   0.77760   0.00000  Uiso   1.00
C114   C     0.43410   0.88608   0.79007   0.00000  Uiso   1.00
C115   C     0.46839   0.87508   0.83429   0.00000  Uiso   1.00
H116   H     0.43075   0.36708   0.81125   0.00000  Uiso   1.00
H117   H     0.44432   0.47645   0.68086   0.00000  Uiso   1.00
H118   H     0.36671   0.43821   0.88537   0.00000  Uiso   1.00
H119   H     0.48641   0.21978   0.87612   0.00000  Uiso   1.00
H120   H     0.45114   0.54539   0.52280   0.00000  Uiso   1.00
H121   H     0.28751   0.46473   0.95403   0.00000  Uiso   1.00
H122   H     0.53991   0.00412   0.93453   0.00000  Uiso   1.00
H123   H     0.36750   0.96367   0.70721   0.00000  Uiso   1.00
H124   H     0.37760   0.05091   0.57111   0.00000  Uiso   1.00
H125   H     0.29999   0.01267   0.77562   0.00000  Uiso   1.00
H126   H     0.41968   0.79424   0.76637   0.00000  Uiso   1.00
H127   H     0.39698   0.20000   0.43373   0.00000  Uiso   1.00
H128   H     0.23335   0.11934   0.86496   0.00000  Uiso   1.00
H129   H     0.48575   0.65874   0.84546   0.00000  Uiso   1.00
O130   O     0.43184   0.43738   0.39061   0.00000  Uiso   1.00
O131   O     0.21715   0.33154   0.95638   0.00000  Uiso   1.00
O132   O     0.54831   0.72725   0.93079   0.00000  Uiso   1.00
N133   N     0.43702   0.45211   0.52052   0.00000  Uiso   1.00
N134   N     0.28402   0.37671   0.92368   0.00000  Uiso   1.00
N135   N     0.52000   0.94609   0.90547   0.00000  Uiso   1.00
N136   N     0.40788   0.26626   0.47258   0.00000  Uiso   1.00
N137   N     0.25488   0.19087   0.87575   0.00000  Uiso   1.00
N138   N     0.49085   0.76024   0.85754   0.00000  Uiso   1.00
C139   C     0.08374   0.72534   0.78741   0.00000  Uiso   1.00
C140   C     0.08513   0.72187   0.70214   0.00000  Uiso   1.00
C141   C     0.07008   0.61541   0.65715   0.00000  Uiso   1.00
C142   C     0.07430   0.63187   0.58036   0.00000  Uiso   1.00
C143   C     0.07366   0.60838   0.45261   0.00000  Uiso   1.00
C144   C     0.12730   0.74263   0.81325   0.00000  Uiso   1.00
C145   C     0.14770   0.65364   0.86168   0.00000  Uiso   1.00
C146   C     0.18742   0.68761   0.87842   0.00000  Uiso   1.00
C147   C     0.25224   0.69641   0.92322   0.00000  Uiso   1.00
C148   C     0.06227   0.86131   0.80822   0.00000  Uiso   1.00
C149   C     0.02799   0.87211   0.85244   0.00000  Uiso   1.00
C150   C     0.01296   0.00599   0.86496   0.00000  Uiso   1.00
C151   C     0.97679   0.19905   0.90194   0.00000  Uiso   1.00
C152   C     0.11801   0.94390   0.73105   0.00000  Uiso   1.00
C153   C     0.10375   0.84058   0.67153   0.00000  Uiso   1.00
C154   C     0.10800   0.85722   0.59479   0.00000  Uiso   1.00
C155   C     0.09295   0.75080   0.54968   0.00000  Uiso   1.00
C156   C     0.14592   0.86134   0.78263   0.00000  Uiso   1.00
C157   C     0.18562   0.89545   0.79932   0.00000  Uiso   1.00
C158   C     0.20607   0.80653   0.84775   0.00000  Uiso   1.00
C159   C     0.08088   0.98002   0.77760   0.00000  Uiso   1.00
C160   C     0.06590   0.11392   0.79007   0.00000  Uiso   1.00
C161   C     0.03161   0.12492   0.83429   0.00000  Uiso   1.00
H162   H     0.06925   0.63292   0.81125   0.00000  Uiso   1.00
H163   H     0.05568   0.52355   0.68086   0.00000  Uiso   1.00
H164   H     0.13329   0.56179   0.88537   0.00000  Uiso   1.00
H165   H     0.01359   0.78022   0.87612   0.00000  Uiso   1.00
H166   H     0.04886   0.45461   0.52280   0.00000  Uiso   1.00
H167   H     0.21249   0.53527   0.95403   0.00000  Uiso   1.00
H168   H     0.96009   0.99588   0.93453   0.00000  Uiso   1.00
H169   H     0.13250   0.03633   0.70721   0.00000  Uiso   1.00
H170   H     0.12240   0.94909   0.57111   0.00000  Uiso   1.00
H171   H     0.20001   0.98733   0.77562   0.00000  Uiso   1.00
H172   H     0.08032   0.20576   0.76637   0.00000  Uiso   1.00
H173   H     0.10302   0.80000   0.43373   0.00000  Uiso   1.00
H174   H     0.26665   0.88066   0.86496   0.00000  Uiso   1.00
H175   H     0.01425   0.34126   0.84546   0.00000  Uiso   1.00
O176   O     0.06816   0.56262   0.39061   0.00000  Uiso   1.00
O177   O     0.28285   0.66846   0.95638   0.00000  Uiso   1.00
O178   O     0.95169   0.27275   0.93079   0.00000  Uiso   1.00
N179   N     0.06298   0.54789   0.52052   0.00000  Uiso   1.00
N180   N     0.21598   0.62329   0.92368   0.00000  Uiso   1.00
N181   N     0.98000   0.05391   0.90547   0.00000  Uiso   1.00
N182   N     0.09212   0.73374   0.47258   0.00000  Uiso   1.00
N183   N     0.24512   0.80913   0.87575   0.00000  Uiso   1.00
N184   N     0.00915   0.23976   0.85754   0.00000  Uiso   1.00
C185   C     0.41626   0.72534   0.28741   0.00000  Uiso   1.00
C186   C     0.41487   0.72187   0.20214   0.00000  Uiso   1.00
C187   C     0.42992   0.61541   0.15715   0.00000  Uiso   1.00
C188   C     0.42570   0.63187   0.08036   0.00000  Uiso   1.00
C189   C     0.42634   0.60838   0.95261   0.00000  Uiso   1.00
C190   C     0.37270   0.74263   0.31325   0.00000  Uiso   1.00
C191   C     0.35230   0.65364   0.36168   0.00000  Uiso   1.00
C192   C     0.31258   0.68761   0.37842   0.00000  Uiso   1.00
C193   C     0.24776   0.69641   0.42322   0.00000  Uiso   1.00
C194   C     0.43773   0.86131   0.30822   0.00000  Uiso   1.00
C195   C     0.47201   0.87211   0.35244   0.00000  Uiso   1.00
C196   C     0.48704   0.00599   0.36496   0.00000  Uiso   1.00
C197   C     0.52321   0.19905   0.40194   0.00000  Uiso   1.00
C198   C     0.38199   0.94390   0.23105   0.00000  Uiso   1.00
C199   C     0.39625   0.84058   0.17153   0.00000  Uiso   1.00
C200   C     0.39200   0.85722   0.09479   0.00000  Uiso   1.00
C201   C     0.40705   0.75080   0.04968   0.00000  Uiso   1.00
C202   C     0.35408   0.86134   0.28263   0.00000  Uiso   1.00
C203   C     0.31438   0.89545   0.29932   0.00000  Uiso   1.00
C204   C     0.29393   0.80653   0.34775   0.00000  Uiso   1.00
C205   C     0.41912   0.98002   0.27760   0.00000  Uiso   1.00
C206   C     0.43410   0.11392   0.29007   0.00000  Uiso   1.00
C207   C     0.46839   0.12492   0.33429   0.00000  Uiso   1.00
H208   H     0.43075   0.63292   0.31125   0.00000  Uiso   1.00
H209   H     0.44432   0.52355   0.18086   0.00000  Uiso   1.00
H210   H     0.36671   0.56179   0.38537   0.00000  Uiso   1.00
H211   H     0.48641   0.78022   0.37612   0.00000  Uiso   1.00
H212   H     0.45114   0.45461   0.02280   0.00000  Uiso   1.00
H213   H     0.28751   0.53527   0.45403   0.00000  Uiso   1.00
H214   H     0.53991   0.99588   0.43453   0.00000  Uiso   1.00
H215   H     0.36750   0.03633   0.20721   0.00000  Uiso   1.00
H216   H     0.37760   0.94909   0.07111   0.00000  Uiso   1.00
H217   H     0.29999   0.98733   0.27562   0.00000  Uiso   1.00
H218   H     0.41968   0.20576   0.26637   0.00000  Uiso   1.00
H219   H     0.39698   0.80000   0.93373   0.00000  Uiso   1.00
H220   H     0.23335   0.88066   0.36496   0.00000  Uiso   1.00
H221   H     0.48575   0.34126   0.34546   0.00000  Uiso   1.00
O222   O     0.43184   0.56262   0.89061   0.00000  Uiso   1.00
O223   O     0.21715   0.66846   0.45638   0.00000  Uiso   1.00
O224   O     0.54831   0.27275   0.43079   0.00000  Uiso   1.00
N225   N     0.43702   0.54789   0.02052   0.00000  Uiso   1.00
N226   N     0.28402   0.62329   0.42368   0.00000  Uiso   1.00
N227   N     0.52000   0.05391   0.40547   0.00000  Uiso   1.00
N228   N     0.40788   0.73374   0.97258   0.00000  Uiso   1.00
N229   N     0.25488   0.80913   0.37575   0.00000  Uiso   1.00
N230   N     0.49085   0.23976   0.35754   0.00000  Uiso   1.00
C231   C     0.08374   0.27466   0.28741   0.00000  Uiso   1.00
C232   C     0.08513   0.27813   0.20214   0.00000  Uiso   1.00
C233   C     0.07008   0.38459   0.15715   0.00000  Uiso   1.00
C234   C     0.07430   0.36813   0.08036   0.00000  Uiso   1.00
C235   C     0.07366   0.39162   0.95261   0.00000  Uiso   1.00
C236   C     0.12730   0.25737   0.31325   0.00000  Uiso   1.00
C237   C     0.14770   0.34636   0.36168   0.00000  Uiso   1.00
C238   C     0.18742   0.31239   0.37842   0.00000  Uiso   1.00
C239   C     0.25224   0.30359   0.42322   0.00000  Uiso   1.00
C240   C     0.06227   0.13869   0.30822   0.00000  Uiso   1.00
C241   C     0.02799   0.12789   0.35244   0.00000  Uiso   1.00
C242   C     0.01296   0.99401   0.36496   0.00000  Uiso   1.00
C243   C     0.97679   0.80095   0.40194   0.00000  Uiso   1.00
C244   C     0.11801   0.05610   0.23105   0.00000  Uiso   1.00
C245   C     0.10375   0.15942   0.17153   0.00000  Uiso   1.00
C246   C     0.10800   0.14278   0.09479   0.00000  Uiso   1.00
C247   C     0.09295   0.24920   0.04968   0.00000  Uiso   1.00
C248   C     0.14592   0.13866   0.28263   0.00000  Uiso   1.00
C249   C     0.18562   0.10455   0.29932   0.00000  Uiso   1.00
C250   C     0.20607   0.19347   0.34775   0.00000  Uiso   1.00
C251   C     0.08088   0.01998   0.27760   0.00000  Uiso   1.00
C252   C     0.06590   0.88608   0.29007   0.00000  Uiso   1.00
C253   C     0.03161   0.87508   0.33429   0.00000  Uiso   1.00
H254   H     0.06925   0.36708   0.31125   0.00000  Uiso   1.00
H255   H     0.05568   0.47645   0.18086   0.00000  Uiso   1.00
H256   H     0.13329   0.43821   0.38537   0.00000  Uiso   1.00
H257   H     0.01359   0.21978   0.37612   0.00000  Uiso   1.00
H258   H     0.04886   0.54539   0.02280   0.00000  Uiso   1.00
H259   H     0.21249   0.46473   0.45403   0.00000  Uiso   1.00
H260   H     0.96009   0.00412   0.43453   0.00000  Uiso   1.00
H261   H     0.13250   0.96367   0.20721   0.00000  Uiso   1.00
H262   H     0.12240   0.05091   0.07111   0.00000  Uiso   1.00
H263   H     0.20001   0.01267   0.27562   0.00000  Uiso   1.00
H264   H     0.08032   0.79424   0.26637   0.00000  Uiso   1.00
H265   H     0.10302   0.20000   0.93373   0.00000  Uiso   1.00
H266   H     0.26665   0.11934   0.36496   0.00000  Uiso   1.00
H267   H     0.01425   0.65874   0.34546   0.00000  Uiso   1.00
O268   O     0.06816   0.43738   0.89061   0.00000  Uiso   1.00
O269   O     0.28285   0.33154   0.45638   0.00000  Uiso   1.00
O270   O     0.95169   0.72725   0.43079   0.00000  Uiso   1.00
N271   N     0.06298   0.45211   0.02052   0.00000  Uiso   1.00
N272   N     0.21598   0.37671   0.42368   0.00000  Uiso   1.00
N273   N     0.98000   0.94609   0.40547   0.00000  Uiso   1.00
N274   N     0.09212   0.26626   0.97258   0.00000  Uiso   1.00
N275   N     0.24512   0.19087   0.37575   0.00000  Uiso   1.00
N276   N     0.00915   0.76024   0.35754   0.00000  Uiso   1.00
C277   C     0.58374   0.72534   0.21259   0.00000  Uiso   1.00
C278   C     0.58513   0.72187   0.29786   0.00000  Uiso   1.00
C279   C     0.57008   0.61541   0.34285   0.00000  Uiso   1.00
C280   C     0.57430   0.63187   0.41964   0.00000  Uiso   1.00
C281   C     0.57366   0.60838   0.54739   0.00000  Uiso   1.00
C282   C     0.62730   0.74263   0.18675   0.00000  Uiso   1.00
C283   C     0.64770   0.65364   0.13832   0.00000  Uiso   1.00
C284   C     0.68742   0.68761   0.12158   0.00000  Uiso   1.00
C285   C     0.75224   0.69641   0.07678   0.00000  Uiso   1.00
C286   C     0.56227   0.86131   0.19178   0.00000  Uiso   1.00
C287   C     0.52799   0.87211   0.14756   0.00000  Uiso   1.00
C288   C     0.51296   0.00599   0.13504   0.00000  Uiso   1.00
C289   C     0.47679   0.19905   0.09806   0.00000  Uiso   1.00
C290   C     0.61801   0.94390   0.26895   0.00000  Uiso   1.00
C291   C     0.60375   0.84058   0.32847   0.00000  Uiso   1.00
C292   C     0.60800   0.85722   0.40521   0.00000  Uiso   1.00
C293   C     0.59295   0.75080   0.45032   0.00000  Uiso   1.00
C294   C     0.64592   0.86134   0.21737   0.00000  Uiso   1.00
C295   C     0.68562   0.89545   0.20068   0.00000  Uiso   1.00
C296   C     0.70607   0.80653   0.15225   0.00000  Uiso   1.00
C297   C     0.58088   0.98002   0.22240   0.00000  Uiso   1.00
C298   C     0.56590   0.11392   0.20993   0.00000  Uiso   1.00
C299   C     0.53161   0.12492   0.16571   0.00000  Uiso   1.00
H300   H     0.56925   0.63292   0.18875   0.00000  Uiso   1.00
H301   H     0.55568   0.52355   0.31914   0.00000  Uiso   1.00
H302   H     0.63329   0.56179   0.11463   0.00000  Uiso   1.00
H303   H     0.51359   0.78022   0.12388   0.00000  Uiso   1.00
H304   H     0.54886   0.45461   0.47720   0.00000  Uiso   1.00
H305   H     0.71249   0.53527   0.04597   0.00000  Uiso   1.00
H306   H     0.46009   0.99588   0.06547   0.00000  Uiso   1.00
H307   H     0.63250   0.03633   0.29279   0.00000  Uiso   1.00
H308   H     0.62240   0.94909   0.42889   0.00000  Uiso   1.00
H309   H     0.70001   0.98733   0.22438   0.00000  Uiso   1.00
H310   H     0.58032   0.20576   0.23363   0.00000  Uiso   1.00
H311   H     0.60302   0.80000   0.56627   0.00000  Uiso   1.00
H312   H     0.76665   0.88066   0.13504   0.00000  Uiso   1.00
H313   H     0.51425   0.34126   0.15454   0.00000  Uiso   1.00
O314   O     0.56816   0.56262   0.60939   0.00000  Uiso   1.00
O315   O     0.78285   0.66846   0.04362   0.00000  Uiso   1.00
O316   O     0.45169   0.27275   0.06921   0.00000  Uiso   1.00
N317   N     0.56298   0.54789   0.47948   0.00000  Uiso   1.00
N318   N     0.71598   0.62329   0.07632   0.00000  Uiso   1.00
N319   N     0.48000   0.05391   0.09453   0.00000  Uiso   1.00
N320   N     0.59212   0.73374   0.52742   0.00000  Uiso   1.00
N321   N     0.74512   0.80913   0.12425   0.00000  Uiso   1.00
N322   N     0.50915   0.23976   0.14246   0.00000  Uiso   1.00
C323   C     0.91626   0.27466   0.21259   0.00000  Uiso   1.00
C324   C     0.91487   0.27813   0.29786   0.00000  Uiso   1.00
C325   C     0.92992   0.38459   0.34285   0.00000  Uiso   1.00
C326   C     0.92570   0.36813   0.41964   0.00000  Uiso   1.00
C327   C     0.92634   0.39162   0.54739   0.00000  Uiso   1.00
C328   C     0.87270   0.25737   0.18675   0.00000  Uiso   1.00
C329   C     0.85230   0.34636   0.13832   0.00000  Uiso   1.00
C330   C     0.81258   0.31239   0.12158   0.00000  Uiso   1.00
C331   C     0.74776   0.30359   0.07678   0.00000  Uiso   1.00
C332   C     0.93773   0.13869   0.19178   0.00000  Uiso   1.00
C333   C     0.97201   0.12789   0.14756   0.00000  Uiso   1.00
C334   C     0.98704   0.99401   0.13504   0.00000  Uiso   1.00
C335   C     0.02321   0.80095   0.09806   0.00000  Uiso   1.00
C336   C     0.88199   0.05610   0.26895   0.00000  Uiso   1.00
C337   C     0.89625   0.15942   0.32847   0.00000  Uiso   1.00
C338   C     0.89200   0.14278   0.40521   0.00000  Uiso   1.00
C339   C     0.90705   0.24920   0.45032   0.00000  Uiso   1.00
C340   C     0.85408   0.13866   0.21737   0.00000  Uiso   1.00
C341   C     0.81438   0.10455   0.20068   0.00000  Uiso   1.00
C342   C     0.79393   0.19347   0.15225   0.00000  Uiso   1.00
C343   C     0.91912   0.01998   0.22240   0.00000  Uiso   1.00
C344   C     0.93410   0.88608   0.20993   0.00000  Uiso   1.00
C345   C     0.96839   0.87508   0.16571   0.00000  Uiso   1.00
H346   H     0.93075   0.36708   0.18875   0.00000  Uiso   1.00
H347   H     0.94432   0.47645   0.31914   0.00000  Uiso   1.00
H348   H     0.86671   0.43821   0.11463   0.00000  Uiso   1.00
H349   H     0.98641   0.21978   0.12388   0.00000  Uiso   1.00
H350   H     0.95114   0.54539   0.47720   0.00000  Uiso   1.00
H351   H     0.78751   0.46473   0.04597   0.00000  Uiso   1.00
H352   H     0.03991   0.00412   0.06547   0.00000  Uiso   1.00
H353   H     0.86750   0.96367   0.29279   0.00000  Uiso   1.00
H354   H     0.87760   0.05091   0.42889   0.00000  Uiso   1.00
H355   H     0.79999   0.01267   0.22438   0.00000  Uiso   1.00
H356   H     0.91968   0.79424   0.23363   0.00000  Uiso   1.00
H357   H     0.89698   0.20000   0.56627   0.00000  Uiso   1.00
H358   H     0.73335   0.11934   0.13504   0.00000  Uiso   1.00
H359   H     0.98575   0.65874   0.15454   0.00000  Uiso   1.00
O360   O     0.93184   0.43738   0.60939   0.00000  Uiso   1.00
O361   O     0.71715   0.33154   0.04362   0.00000  Uiso   1.00
O362   O     0.04831   0.72725   0.06921   0.00000  Uiso   1.00
N363   N     0.93702   0.45211   0.47948   0.00000  Uiso   1.00
N364   N     0.78402   0.37671   0.07632   0.00000  Uiso   1.00
N365   N     0.02000   0.94609   0.09453   0.00000  Uiso   1.00
N366   N     0.90788   0.26626   0.52742   0.00000  Uiso   1.00
N367   N     0.75488   0.19087   0.12425   0.00000  Uiso   1.00
N368   N     0.99085   0.76024   0.14246   0.00000  Uiso   1.00
