data_job_01094
_audit_creation_date              2018-12-19
_audit_creation_method            'Materials Studio'
_symmetry_space_group_name_H-M    'P1'
_symmetry_Int_Tables_number       1
_symmetry_cell_setting            triclinic
loop_
_symmetry_equiv_pos_as_xyz
  x,y,z
_cell_length_a                    12.4511
_cell_length_b                    14.0355
_cell_length_c                    21.1653
_cell_angle_alpha                 90.0000
_cell_angle_beta                  123.5854
_cell_angle_gamma                 90.0000
loop_
_atom_site_label
_atom_site_type_symbol
_atom_site_fract_x
_atom_site_fract_y
_atom_site_fract_z
_atom_site_U_iso_or_equiv
_atom_site_adp_type
_atom_site_occupancy
C1     C     0.65354   0.01971   0.32934   0.00000  Uiso   1.00
C2     C     0.71094   0.93557   0.38390   0.00000  Uiso   1.00
C3     C     0.76226   0.93880   0.46111   0.00000  Uiso   1.00
C4     C     0.81003   0.85411   0.50116   0.00000  Uiso   1.00
C5     C     0.89975   0.73638   0.59135   0.00000  Uiso   1.00
C6     C     0.72841   0.02639   0.29186   0.00000  Uiso   1.00
C7     C     0.79439   0.10597   0.29168   0.00000  Uiso   1.00
C8     C     0.85685   0.09773   0.25424   0.00000  Uiso   1.00
C9     C     0.97360   0.12101   0.20149   0.00000  Uiso   1.00
C10    C     0.51690   0.99016   0.26693   0.00000  Uiso   1.00
C11    C     0.40503   0.03930   0.24577   0.00000  Uiso   1.00
C12    C     0.28942   0.00056   0.18733   0.00000  Uiso   1.00
C13    C     0.07777   0.96760   0.09586   0.00000  Uiso   1.00
C14    C     0.64713   0.86356   0.26316   0.00000  Uiso   1.00
C15    C     0.70746   0.85076   0.34795   0.00000  Uiso   1.00
C16    C     0.75516   0.76604   0.38789   0.00000  Uiso   1.00
C17    C     0.80654   0.76914   0.46516   0.00000  Uiso   1.00
C18    C     0.72493   0.94158   0.25591   0.00000  Uiso   1.00
C19    C     0.78729   0.93321   0.21846   0.00000  Uiso   1.00
C20    C     0.85336   0.01276   0.21823   0.00000  Uiso   1.00
C21    C     0.51341   0.90534   0.23098   0.00000  Uiso   1.00
C22    C     0.39794   0.86653   0.17256   0.00000  Uiso   1.00
C23    C     0.28593   0.91560   0.15132   0.00000  Uiso   1.00
H24    H     0.65626   0.08574   0.35732   0.00000  Uiso   1.00
H25    H     0.76495   0.00445   0.48891   0.00000  Uiso   1.00
H26    H     0.79706   0.17160   0.31949   0.00000  Uiso   1.00
H27    H     0.40777   0.10493   0.27360   0.00000  Uiso   1.00
H28    H     0.88395   0.87693   0.61895   0.00000  Uiso   1.00
H29    H     0.95163   0.22938   0.26171   0.00000  Uiso   1.00
H30    H     0.13073   0.08880   0.16492   0.00000  Uiso   1.00
H31    H     0.64442   0.79753   0.23518   0.00000  Uiso   1.00
H32    H     0.75246   0.70042   0.36006   0.00000  Uiso   1.00
H33    H     0.78457   0.86757   0.19065   0.00000  Uiso   1.00
H34    H     0.39528   0.80090   0.14475   0.00000  Uiso   1.00
H35    H     0.87382   0.63017   0.51437   0.00000  Uiso   1.00
H36    H     0.94149   0.98262   0.15713   0.00000  Uiso   1.00
H37    H     0.12060   0.84203   0.06035   0.00000  Uiso   1.00
O38    O     0.95021   0.69488   0.65102   0.00000  Uiso   1.00
O39    O     0.03897   0.15729   0.18233   0.00000  Uiso   1.00
O40    O     0.96198   0.97284   0.05535   0.00000  Uiso   1.00
N41    N     0.86672   0.83218   0.57719   0.00000  Uiso   1.00
N42    N     0.93001   0.16170   0.24321   0.00000  Uiso   1.00
N43    N     0.16254   0.03027   0.15271   0.00000  Uiso   1.00
N44    N     0.86127   0.69940   0.52092   0.00000  Uiso   1.00
N45    N     0.92455   0.02891   0.18694   0.00000  Uiso   1.00
N46    N     0.15709   0.89749   0.09644   0.00000  Uiso   1.00
C47    C     0.34646   0.51971   0.17066   0.00000  Uiso   1.00
C48    C     0.28906   0.43557   0.11610   0.00000  Uiso   1.00
C49    C     0.23774   0.43880   0.03889   0.00000  Uiso   1.00
C50    C     0.18997   0.35411   0.99884   0.00000  Uiso   1.00
C51    C     0.10025   0.23638   0.90865   0.00000  Uiso   1.00
C52    C     0.27159   0.52639   0.20814   0.00000  Uiso   1.00
C53    C     0.20561   0.60597   0.20832   0.00000  Uiso   1.00
C54    C     0.14315   0.59773   0.24576   0.00000  Uiso   1.00
C55    C     0.02640   0.62101   0.29851   0.00000  Uiso   1.00
C56    C     0.48310   0.49016   0.23307   0.00000  Uiso   1.00
C57    C     0.59497   0.53930   0.25423   0.00000  Uiso   1.00
C58    C     0.71058   0.50056   0.31267   0.00000  Uiso   1.00
C59    C     0.92223   0.46760   0.40414   0.00000  Uiso   1.00
C60    C     0.35287   0.36356   0.23684   0.00000  Uiso   1.00
C61    C     0.29254   0.35076   0.15205   0.00000  Uiso   1.00
C62    C     0.24484   0.26604   0.11211   0.00000  Uiso   1.00
C63    C     0.19346   0.26914   0.03484   0.00000  Uiso   1.00
C64    C     0.27507   0.44158   0.24409   0.00000  Uiso   1.00
C65    C     0.21271   0.43321   0.28154   0.00000  Uiso   1.00
C66    C     0.14664   0.51276   0.28177   0.00000  Uiso   1.00
C67    C     0.48659   0.40534   0.26902   0.00000  Uiso   1.00
C68    C     0.60206   0.36653   0.32744   0.00000  Uiso   1.00
C69    C     0.71407   0.41560   0.34868   0.00000  Uiso   1.00
H70    H     0.34374   0.58574   0.14268   0.00000  Uiso   1.00
H71    H     0.23505   0.50445   0.01109   0.00000  Uiso   1.00
H72    H     0.20294   0.67160   0.18051   0.00000  Uiso   1.00
H73    H     0.59223   0.60493   0.22640   0.00000  Uiso   1.00
H74    H     0.11605   0.37693   0.88105   0.00000  Uiso   1.00
H75    H     0.04837   0.72938   0.23829   0.00000  Uiso   1.00
H76    H     0.86927   0.58880   0.33508   0.00000  Uiso   1.00
H77    H     0.35558   0.29753   0.26482   0.00000  Uiso   1.00
H78    H     0.24754   0.20042   0.13994   0.00000  Uiso   1.00
H79    H     0.21543   0.36757   0.30935   0.00000  Uiso   1.00
H80    H     0.60472   0.30090   0.35525   0.00000  Uiso   1.00
H81    H     0.12618   0.13017   0.98563   0.00000  Uiso   1.00
H82    H     0.05851   0.48262   0.34287   0.00000  Uiso   1.00
H83    H     0.87940   0.34203   0.43965   0.00000  Uiso   1.00
O84    O     0.04979   0.19488   0.84898   0.00000  Uiso   1.00
O85    O     0.96103   0.65729   0.31767   0.00000  Uiso   1.00
O86    O     0.03802   0.47284   0.44465   0.00000  Uiso   1.00
N87    N     0.13328   0.33218   0.92281   0.00000  Uiso   1.00
N88    N     0.06999   0.66170   0.25679   0.00000  Uiso   1.00
N89    N     0.83746   0.53027   0.34729   0.00000  Uiso   1.00
N90    N     0.13873   0.19940   0.97908   0.00000  Uiso   1.00
N91    N     0.07545   0.52891   0.31306   0.00000  Uiso   1.00
N92    N     0.84291   0.39749   0.40356   0.00000  Uiso   1.00
C93    C     0.34646   0.98029   0.67066   0.00000  Uiso   1.00
C94    C     0.28906   0.06443   0.61610   0.00000  Uiso   1.00
C95    C     0.23774   0.06120   0.53889   0.00000  Uiso   1.00
C96    C     0.18997   0.14589   0.49884   0.00000  Uiso   1.00
C97    C     0.10025   0.26362   0.40865   0.00000  Uiso   1.00
C98    C     0.27159   0.97361   0.70814   0.00000  Uiso   1.00
C99    C     0.20561   0.89403   0.70832   0.00000  Uiso   1.00
C100   C     0.14315   0.90227   0.74576   0.00000  Uiso   1.00
C101   C     0.02640   0.87899   0.79851   0.00000  Uiso   1.00
C102   C     0.48310   0.00984   0.73307   0.00000  Uiso   1.00
C103   C     0.59497   0.96070   0.75423   0.00000  Uiso   1.00
C104   C     0.71058   0.99944   0.81267   0.00000  Uiso   1.00
C105   C     0.92223   0.03240   0.90414   0.00000  Uiso   1.00
C106   C     0.35287   0.13644   0.73684   0.00000  Uiso   1.00
C107   C     0.29254   0.14924   0.65205   0.00000  Uiso   1.00
C108   C     0.24484   0.23396   0.61211   0.00000  Uiso   1.00
C109   C     0.19346   0.23086   0.53484   0.00000  Uiso   1.00
C110   C     0.27507   0.05842   0.74409   0.00000  Uiso   1.00
C111   C     0.21271   0.06679   0.78154   0.00000  Uiso   1.00
C112   C     0.14664   0.98724   0.78177   0.00000  Uiso   1.00
C113   C     0.48659   0.09466   0.76902   0.00000  Uiso   1.00
C114   C     0.60206   0.13347   0.82744   0.00000  Uiso   1.00
C115   C     0.71407   0.08440   0.84868   0.00000  Uiso   1.00
H116   H     0.34374   0.91426   0.64268   0.00000  Uiso   1.00
H117   H     0.23505   0.99555   0.51109   0.00000  Uiso   1.00
H118   H     0.20294   0.82840   0.68051   0.00000  Uiso   1.00
H119   H     0.59223   0.89507   0.72640   0.00000  Uiso   1.00
H120   H     0.11605   0.12307   0.38105   0.00000  Uiso   1.00
H121   H     0.04837   0.77062   0.73829   0.00000  Uiso   1.00
H122   H     0.86927   0.91120   0.83508   0.00000  Uiso   1.00
H123   H     0.35558   0.20247   0.76482   0.00000  Uiso   1.00
H124   H     0.24754   0.29958   0.63994   0.00000  Uiso   1.00
H125   H     0.21543   0.13243   0.80935   0.00000  Uiso   1.00
H126   H     0.60472   0.19910   0.85525   0.00000  Uiso   1.00
H127   H     0.12618   0.36983   0.48563   0.00000  Uiso   1.00
H128   H     0.05851   0.01738   0.84287   0.00000  Uiso   1.00
H129   H     0.87940   0.15797   0.93965   0.00000  Uiso   1.00
O130   O     0.04979   0.30512   0.34898   0.00000  Uiso   1.00
O131   O     0.96103   0.84271   0.81767   0.00000  Uiso   1.00
O132   O     0.03802   0.02716   0.94465   0.00000  Uiso   1.00
N133   N     0.13328   0.16782   0.42281   0.00000  Uiso   1.00
N134   N     0.06999   0.83830   0.75679   0.00000  Uiso   1.00
N135   N     0.83746   0.96973   0.84729   0.00000  Uiso   1.00
N136   N     0.13873   0.30060   0.47908   0.00000  Uiso   1.00
N137   N     0.07545   0.97109   0.81306   0.00000  Uiso   1.00
N138   N     0.84291   0.10251   0.90356   0.00000  Uiso   1.00
C139   C     0.65354   0.48029   0.82934   0.00000  Uiso   1.00
C140   C     0.71094   0.56443   0.88390   0.00000  Uiso   1.00
C141   C     0.76226   0.56120   0.96111   0.00000  Uiso   1.00
C142   C     0.81003   0.64589   0.00116   0.00000  Uiso   1.00
C143   C     0.89975   0.76362   0.09135   0.00000  Uiso   1.00
C144   C     0.72841   0.47361   0.79186   0.00000  Uiso   1.00
C145   C     0.79439   0.39403   0.79168   0.00000  Uiso   1.00
C146   C     0.85685   0.40227   0.75424   0.00000  Uiso   1.00
C147   C     0.97360   0.37899   0.70149   0.00000  Uiso   1.00
C148   C     0.51690   0.50984   0.76693   0.00000  Uiso   1.00
C149   C     0.40503   0.46070   0.74577   0.00000  Uiso   1.00
C150   C     0.28942   0.49944   0.68733   0.00000  Uiso   1.00
C151   C     0.07777   0.53240   0.59586   0.00000  Uiso   1.00
C152   C     0.64713   0.63644   0.76316   0.00000  Uiso   1.00
C153   C     0.70746   0.64924   0.84795   0.00000  Uiso   1.00
C154   C     0.75516   0.73396   0.88789   0.00000  Uiso   1.00
C155   C     0.80654   0.73086   0.96516   0.00000  Uiso   1.00
C156   C     0.72493   0.55842   0.75591   0.00000  Uiso   1.00
C157   C     0.78729   0.56679   0.71846   0.00000  Uiso   1.00
C158   C     0.85336   0.48724   0.71823   0.00000  Uiso   1.00
C159   C     0.51341   0.59466   0.73098   0.00000  Uiso   1.00
C160   C     0.39794   0.63347   0.67256   0.00000  Uiso   1.00
C161   C     0.28593   0.58440   0.65132   0.00000  Uiso   1.00
H162   H     0.65626   0.41426   0.85732   0.00000  Uiso   1.00
H163   H     0.76495   0.49555   0.98891   0.00000  Uiso   1.00
H164   H     0.79706   0.32840   0.81949   0.00000  Uiso   1.00
H165   H     0.40777   0.39507   0.77360   0.00000  Uiso   1.00
H166   H     0.88395   0.62307   0.11895   0.00000  Uiso   1.00
H167   H     0.95163   0.27062   0.76171   0.00000  Uiso   1.00
H168   H     0.13073   0.41120   0.66492   0.00000  Uiso   1.00
H169   H     0.64442   0.70247   0.73518   0.00000  Uiso   1.00
H170   H     0.75246   0.79958   0.86006   0.00000  Uiso   1.00
H171   H     0.78457   0.63243   0.69065   0.00000  Uiso   1.00
H172   H     0.39528   0.69910   0.64475   0.00000  Uiso   1.00
H173   H     0.87382   0.86983   0.01437   0.00000  Uiso   1.00
H174   H     0.94149   0.51738   0.65713   0.00000  Uiso   1.00
H175   H     0.12060   0.65797   0.56035   0.00000  Uiso   1.00
O176   O     0.95021   0.80512   0.15102   0.00000  Uiso   1.00
O177   O     0.03897   0.34271   0.68233   0.00000  Uiso   1.00
O178   O     0.96198   0.52716   0.55535   0.00000  Uiso   1.00
N179   N     0.86672   0.66782   0.07719   0.00000  Uiso   1.00
N180   N     0.93001   0.33830   0.74321   0.00000  Uiso   1.00
N181   N     0.16254   0.46973   0.65271   0.00000  Uiso   1.00
N182   N     0.86127   0.80060   0.02092   0.00000  Uiso   1.00
N183   N     0.92455   0.47109   0.68694   0.00000  Uiso   1.00
N184   N     0.15709   0.60251   0.59644   0.00000  Uiso   1.00
