data_job_05554
_audit_creation_date              2018-12-19
_audit_creation_method            'Materials Studio'
_symmetry_space_group_name_H-M    'P1'
_symmetry_Int_Tables_number       1
_symmetry_cell_setting            triclinic
loop_
_symmetry_equiv_pos_as_xyz
  x,y,z
_cell_length_a                    24.3927
_cell_length_b                    11.9109
_cell_length_c                    24.2163
_cell_angle_alpha                 90.0000
_cell_angle_beta                  90.0000
_cell_angle_gamma                 90.0000
loop_
_atom_site_label
_atom_site_type_symbol
_atom_site_fract_x
_atom_site_fract_y
_atom_site_fract_z
_atom_site_U_iso_or_equiv
_atom_site_adp_type
_atom_site_occupancy
C1     C     0.79472   0.53004   0.34253   0.00000  Uiso   1.00
C2     C     0.75412   0.46980   0.38015   0.00000  Uiso   1.00
C3     C     0.70576   0.41873   0.36343   0.00000  Uiso   1.00
C4     C     0.67424   0.36811   0.40416   0.00000  Uiso   1.00
C5     C     0.60871   0.27455   0.45415   0.00000  Uiso   1.00
C6     C     0.80075   0.64833   0.36584   0.00000  Uiso   1.00
C7     C     0.79159   0.74736   0.33709   0.00000  Uiso   1.00
C8     C     0.79934   0.84703   0.36578   0.00000  Uiso   1.00
C9     C     0.80623   0.03064   0.39354   0.00000  Uiso   1.00
C10    C     0.84987   0.47263   0.35155   0.00000  Uiso   1.00
C11    C     0.88203   0.42396   0.31078   0.00000  Uiso   1.00
C12    C     0.93114   0.37573   0.32745   0.00000  Uiso   1.00
C13    C     0.01431   0.28653   0.33302   0.00000  Uiso   1.00
C14    C     0.82476   0.53096   0.44461   0.00000  Uiso   1.00
C15    C     0.77044   0.47030   0.43559   0.00000  Uiso   1.00
C16    C     0.73899   0.41974   0.47637   0.00000  Uiso   1.00
C17    C     0.69059   0.36860   0.45971   0.00000  Uiso   1.00
C18    C     0.81707   0.64883   0.42129   0.00000  Uiso   1.00
C19    C     0.82483   0.74838   0.45003   0.00000  Uiso   1.00
C20    C     0.81568   0.84753   0.42133   0.00000  Uiso   1.00
C21    C     0.86619   0.47313   0.40700   0.00000  Uiso   1.00
C22    C     0.91526   0.42497   0.42372   0.00000  Uiso   1.00
C23    C     0.94749   0.37623   0.38299   0.00000  Uiso   1.00
H24    H     0.78202   0.52966   0.29936   0.00000  Uiso   1.00
H25    H     0.69314   0.41837   0.32052   0.00000  Uiso   1.00
H26    H     0.77897   0.74695   0.29418   0.00000  Uiso   1.00
H27    H     0.86939   0.42359   0.26788   0.00000  Uiso   1.00
H28    H     0.60179   0.29524   0.36842   0.00000  Uiso   1.00
H29    H     0.78278   0.98807   0.31289   0.00000  Uiso   1.00
H30    H     0.97346   0.30621   0.25743   0.00000  Uiso   1.00
H31    H     0.83747   0.53135   0.48778   0.00000  Uiso   1.00
H32    H     0.75163   0.42014   0.51927   0.00000  Uiso   1.00
H33    H     0.83746   0.74873   0.49293   0.00000  Uiso   1.00
H34    H     0.92788   0.42537   0.46663   0.00000  Uiso   1.00
H35    H     0.64926   0.29668   0.52974   0.00000  Uiso   1.00
H36    H     0.83026   0.98952   0.47420   0.00000  Uiso   1.00
H37    H     0.02093   0.30765   0.41875   0.00000  Uiso   1.00
O38    O     0.56805   0.22281   0.46640   0.00000  Uiso   1.00
O39    O     0.80552   0.13178   0.39353   0.00000  Uiso   1.00
O40    O     0.05567   0.23718   0.32078   0.00000  Uiso   1.00
N41    N     0.62475   0.31082   0.40206   0.00000  Uiso   1.00
N42    N     0.79396   0.95858   0.35014   0.00000  Uiso   1.00
N43    N     0.97223   0.32112   0.29829   0.00000  Uiso   1.00
N44    N     0.65029   0.31160   0.48887   0.00000  Uiso   1.00
N45    N     0.81950   0.95935   0.43695   0.00000  Uiso   1.00
N46    N     0.99777   0.32189   0.38510   0.00000  Uiso   1.00
C47    C     0.83744   0.46992   0.15350   0.00000  Uiso   1.00
C48    C     0.79682   0.53012   0.11589   0.00000  Uiso   1.00
C49    C     0.74841   0.58101   0.13260   0.00000  Uiso   1.00
C50    C     0.71688   0.63162   0.09187   0.00000  Uiso   1.00
C51    C     0.65131   0.72510   0.04190   0.00000  Uiso   1.00
C52    C     0.84356   0.35169   0.13013   0.00000  Uiso   1.00
C53    C     0.83446   0.25257   0.15883   0.00000  Uiso   1.00
C54    C     0.84228   0.15299   0.13009   0.00000  Uiso   1.00
C55    C     0.84932   0.96946   0.10224   0.00000  Uiso   1.00
C56    C     0.89255   0.52751   0.14454   0.00000  Uiso   1.00
C57    C     0.92465   0.57619   0.18535   0.00000  Uiso   1.00
C58    C     0.97374   0.62460   0.16875   0.00000  Uiso   1.00
C59    C     0.05685   0.71405   0.16327   0.00000  Uiso   1.00
C60    C     0.86754   0.46930   0.05144   0.00000  Uiso   1.00
C61    C     0.81317   0.52978   0.06045   0.00000  Uiso   1.00
C62    C     0.78171   0.58034   0.01968   0.00000  Uiso   1.00
C63    C     0.73326   0.63130   0.03634   0.00000  Uiso   1.00
C64    C     0.85991   0.35136   0.07470   0.00000  Uiso   1.00
C65    C     0.86776   0.25190   0.04591   0.00000  Uiso   1.00
C66    C     0.85867   0.15265   0.07455   0.00000  Uiso   1.00
C67    C     0.90891   0.52718   0.08910   0.00000  Uiso   1.00
C68    C     0.95795   0.57551   0.07243   0.00000  Uiso   1.00
C69    C     0.99012   0.62426   0.11321   0.00000  Uiso   1.00
H70    H     0.82471   0.47017   0.19666   0.00000  Uiso   1.00
H71    H     0.73576   0.58124   0.17551   0.00000  Uiso   1.00
H72    H     0.82181   0.25286   0.20173   0.00000  Uiso   1.00
H73    H     0.91199   0.57643   0.22825   0.00000  Uiso   1.00
H74    H     0.64436   0.70421   0.12761   0.00000  Uiso   1.00
H75    H     0.82580   0.01179   0.18290   0.00000  Uiso   1.00
H76    H     0.01596   0.69409   0.23882   0.00000  Uiso   1.00
H77    H     0.88027   0.46904   0.00828   0.00000  Uiso   1.00
H78    H     0.79437   0.58006   0.97679   0.00000  Uiso   1.00
H79    H     0.88042   0.25167   0.00301   0.00000  Uiso   1.00
H80    H     0.97060   0.57524   0.02953   0.00000  Uiso   1.00
H81    H     0.69192   0.70324   0.96632   0.00000  Uiso   1.00
H82    H     0.87337   0.01082   0.02162   0.00000  Uiso   1.00
H83    H     0.06353   0.69313   0.07754   0.00000  Uiso   1.00
O84    O     0.61062   0.77674   0.02964   0.00000  Uiso   1.00
O85    O     0.84868   0.86832   0.10220   0.00000  Uiso   1.00
O86    O     0.09817   0.76349   0.17556   0.00000  Uiso   1.00
N87    N     0.66734   0.68877   0.09397   0.00000  Uiso   1.00
N88    N     0.83697   0.04139   0.14567   0.00000  Uiso   1.00
N89    N     0.01477   0.67926   0.19795   0.00000  Uiso   1.00
N90    N     0.69294   0.68825   0.00718   0.00000  Uiso   1.00
N91    N     0.86257   0.04088   0.05888   0.00000  Uiso   1.00
N92    N     0.04036   0.67875   0.11116   0.00000  Uiso   1.00
C93    C     0.20528   0.46996   0.84253   0.00000  Uiso   1.00
C94    C     0.24588   0.53020   0.88015   0.00000  Uiso   1.00
C95    C     0.29424   0.58127   0.86343   0.00000  Uiso   1.00
C96    C     0.32576   0.63189   0.90416   0.00000  Uiso   1.00
C97    C     0.39129   0.72545   0.95415   0.00000  Uiso   1.00
C98    C     0.19925   0.35167   0.86584   0.00000  Uiso   1.00
C99    C     0.20841   0.25264   0.83709   0.00000  Uiso   1.00
C100   C     0.20066   0.15297   0.86578   0.00000  Uiso   1.00
C101   C     0.19377   0.96936   0.89354   0.00000  Uiso   1.00
C102   C     0.15013   0.52737   0.85155   0.00000  Uiso   1.00
C103   C     0.11797   0.57604   0.81078   0.00000  Uiso   1.00
C104   C     0.06886   0.62427   0.82745   0.00000  Uiso   1.00
C105   C     0.98569   0.71347   0.83302   0.00000  Uiso   1.00
C106   C     0.17524   0.46904   0.94461   0.00000  Uiso   1.00
C107   C     0.22956   0.52970   0.93559   0.00000  Uiso   1.00
C108   C     0.26101   0.58026   0.97637   0.00000  Uiso   1.00
C109   C     0.30941   0.63140   0.95971   0.00000  Uiso   1.00
C110   C     0.18293   0.35117   0.92129   0.00000  Uiso   1.00
C111   C     0.17517   0.25162   0.95003   0.00000  Uiso   1.00
C112   C     0.18432   0.15247   0.92133   0.00000  Uiso   1.00
C113   C     0.13381   0.52687   0.90700   0.00000  Uiso   1.00
C114   C     0.08474   0.57503   0.92372   0.00000  Uiso   1.00
C115   C     0.05251   0.62377   0.88299   0.00000  Uiso   1.00
H116   H     0.21798   0.47034   0.79936   0.00000  Uiso   1.00
H117   H     0.30686   0.58163   0.82052   0.00000  Uiso   1.00
H118   H     0.22103   0.25305   0.79418   0.00000  Uiso   1.00
H119   H     0.13061   0.57641   0.76788   0.00000  Uiso   1.00
H120   H     0.39821   0.70476   0.86842   0.00000  Uiso   1.00
H121   H     0.21722   0.01193   0.81289   0.00000  Uiso   1.00
H122   H     0.02654   0.69379   0.75743   0.00000  Uiso   1.00
H123   H     0.16253   0.46865   0.98778   0.00000  Uiso   1.00
H124   H     0.24837   0.57986   0.01927   0.00000  Uiso   1.00
H125   H     0.16254   0.25127   0.99293   0.00000  Uiso   1.00
H126   H     0.07212   0.57463   0.96663   0.00000  Uiso   1.00
H127   H     0.35074   0.70332   0.02974   0.00000  Uiso   1.00
H128   H     0.16974   0.01048   0.97420   0.00000  Uiso   1.00
H129   H     0.97907   0.69235   0.91875   0.00000  Uiso   1.00
O130   O     0.43195   0.77719   0.96640   0.00000  Uiso   1.00
O131   O     0.19448   0.86822   0.89353   0.00000  Uiso   1.00
O132   O     0.94433   0.76282   0.82078   0.00000  Uiso   1.00
N133   N     0.37525   0.68918   0.90206   0.00000  Uiso   1.00
N134   N     0.20604   0.04142   0.85014   0.00000  Uiso   1.00
N135   N     0.02777   0.67888   0.79829   0.00000  Uiso   1.00
N136   N     0.34971   0.68840   0.98887   0.00000  Uiso   1.00
N137   N     0.18050   0.04065   0.93695   0.00000  Uiso   1.00
N138   N     0.00223   0.67811   0.88510   0.00000  Uiso   1.00
C139   C     0.16256   0.53008   0.65350   0.00000  Uiso   1.00
C140   C     0.20318   0.46988   0.61589   0.00000  Uiso   1.00
C141   C     0.25159   0.41899   0.63260   0.00000  Uiso   1.00
C142   C     0.28312   0.36838   0.59187   0.00000  Uiso   1.00
C143   C     0.34869   0.27490   0.54190   0.00000  Uiso   1.00
C144   C     0.15644   0.64831   0.63013   0.00000  Uiso   1.00
C145   C     0.16554   0.74743   0.65883   0.00000  Uiso   1.00
C146   C     0.15772   0.84701   0.63009   0.00000  Uiso   1.00
C147   C     0.15068   0.03054   0.60224   0.00000  Uiso   1.00
C148   C     0.10745   0.47249   0.64454   0.00000  Uiso   1.00
C149   C     0.07535   0.42381   0.68535   0.00000  Uiso   1.00
C150   C     0.02626   0.37540   0.66875   0.00000  Uiso   1.00
C151   C     0.94315   0.28595   0.66327   0.00000  Uiso   1.00
C152   C     0.13246   0.53070   0.55144   0.00000  Uiso   1.00
C153   C     0.18683   0.47022   0.56045   0.00000  Uiso   1.00
C154   C     0.21829   0.41966   0.51968   0.00000  Uiso   1.00
C155   C     0.26674   0.36870   0.53634   0.00000  Uiso   1.00
C156   C     0.14009   0.64864   0.57470   0.00000  Uiso   1.00
C157   C     0.13224   0.74810   0.54591   0.00000  Uiso   1.00
C158   C     0.14133   0.84735   0.57455   0.00000  Uiso   1.00
C159   C     0.09109   0.47282   0.58910   0.00000  Uiso   1.00
C160   C     0.04205   0.42449   0.57243   0.00000  Uiso   1.00
C161   C     0.00988   0.37574   0.61321   0.00000  Uiso   1.00
H162   H     0.17529   0.52983   0.69666   0.00000  Uiso   1.00
H163   H     0.26424   0.41876   0.67551   0.00000  Uiso   1.00
H164   H     0.17819   0.74714   0.70173   0.00000  Uiso   1.00
H165   H     0.08801   0.42357   0.72825   0.00000  Uiso   1.00
H166   H     0.35564   0.29579   0.62761   0.00000  Uiso   1.00
H167   H     0.17420   0.98821   0.68290   0.00000  Uiso   1.00
H168   H     0.98404   0.30591   0.73882   0.00000  Uiso   1.00
H169   H     0.11973   0.53096   0.50828   0.00000  Uiso   1.00
H170   H     0.20563   0.41994   0.47679   0.00000  Uiso   1.00
H171   H     0.11958   0.74833   0.50301   0.00000  Uiso   1.00
H172   H     0.02940   0.42476   0.52953   0.00000  Uiso   1.00
H173   H     0.30808   0.29676   0.46632   0.00000  Uiso   1.00
H174   H     0.12663   0.98918   0.52162   0.00000  Uiso   1.00
H175   H     0.93647   0.30687   0.57754   0.00000  Uiso   1.00
O176   O     0.38938   0.22326   0.52964   0.00000  Uiso   1.00
O177   O     0.15132   0.13168   0.60220   0.00000  Uiso   1.00
O178   O     0.90183   0.23651   0.67556   0.00000  Uiso   1.00
N179   N     0.33266   0.31123   0.59397   0.00000  Uiso   1.00
N180   N     0.16303   0.95861   0.64567   0.00000  Uiso   1.00
N181   N     0.98523   0.32074   0.69795   0.00000  Uiso   1.00
N182   N     0.30706   0.31175   0.50718   0.00000  Uiso   1.00
N183   N     0.13743   0.95912   0.55888   0.00000  Uiso   1.00
N184   N     0.95964   0.32125   0.61116   0.00000  Uiso   1.00
C185   C     0.29472   0.96996   0.34253   0.00000  Uiso   1.00
C186   C     0.25412   0.03020   0.38015   0.00000  Uiso   1.00
C187   C     0.20576   0.08127   0.36343   0.00000  Uiso   1.00
C188   C     0.17424   0.13189   0.40416   0.00000  Uiso   1.00
C189   C     0.10871   0.22545   0.45415   0.00000  Uiso   1.00
C190   C     0.30075   0.85167   0.36584   0.00000  Uiso   1.00
C191   C     0.29159   0.75264   0.33709   0.00000  Uiso   1.00
C192   C     0.29934   0.65297   0.36578   0.00000  Uiso   1.00
C193   C     0.30623   0.46936   0.39354   0.00000  Uiso   1.00
C194   C     0.34987   0.02737   0.35155   0.00000  Uiso   1.00
C195   C     0.38203   0.07604   0.31078   0.00000  Uiso   1.00
C196   C     0.43114   0.12427   0.32745   0.00000  Uiso   1.00
C197   C     0.51431   0.21347   0.33302   0.00000  Uiso   1.00
C198   C     0.32476   0.96904   0.44461   0.00000  Uiso   1.00
C199   C     0.27044   0.02970   0.43559   0.00000  Uiso   1.00
C200   C     0.23899   0.08026   0.47637   0.00000  Uiso   1.00
C201   C     0.19059   0.13140   0.45971   0.00000  Uiso   1.00
C202   C     0.31707   0.85117   0.42129   0.00000  Uiso   1.00
C203   C     0.32483   0.75162   0.45003   0.00000  Uiso   1.00
C204   C     0.31568   0.65247   0.42133   0.00000  Uiso   1.00
C205   C     0.36619   0.02687   0.40700   0.00000  Uiso   1.00
C206   C     0.41526   0.07503   0.42372   0.00000  Uiso   1.00
C207   C     0.44749   0.12377   0.38299   0.00000  Uiso   1.00
H208   H     0.28202   0.97034   0.29936   0.00000  Uiso   1.00
H209   H     0.19314   0.08163   0.32052   0.00000  Uiso   1.00
H210   H     0.27897   0.75305   0.29418   0.00000  Uiso   1.00
H211   H     0.36939   0.07641   0.26788   0.00000  Uiso   1.00
H212   H     0.10179   0.20476   0.36842   0.00000  Uiso   1.00
H213   H     0.28278   0.51193   0.31289   0.00000  Uiso   1.00
H214   H     0.47346   0.19379   0.25743   0.00000  Uiso   1.00
H215   H     0.33747   0.96865   0.48778   0.00000  Uiso   1.00
H216   H     0.25163   0.07986   0.51927   0.00000  Uiso   1.00
H217   H     0.33746   0.75127   0.49293   0.00000  Uiso   1.00
H218   H     0.42788   0.07463   0.46663   0.00000  Uiso   1.00
H219   H     0.14926   0.20332   0.52974   0.00000  Uiso   1.00
H220   H     0.33026   0.51048   0.47420   0.00000  Uiso   1.00
H221   H     0.52093   0.19235   0.41875   0.00000  Uiso   1.00
O222   O     0.06805   0.27719   0.46640   0.00000  Uiso   1.00
O223   O     0.30552   0.36822   0.39353   0.00000  Uiso   1.00
O224   O     0.55567   0.26282   0.32078   0.00000  Uiso   1.00
N225   N     0.12475   0.18918   0.40206   0.00000  Uiso   1.00
N226   N     0.29396   0.54142   0.35014   0.00000  Uiso   1.00
N227   N     0.47223   0.17888   0.29829   0.00000  Uiso   1.00
N228   N     0.15029   0.18840   0.48887   0.00000  Uiso   1.00
N229   N     0.31950   0.54065   0.43695   0.00000  Uiso   1.00
N230   N     0.49777   0.17811   0.38510   0.00000  Uiso   1.00
C231   C     0.33744   0.03008   0.15350   0.00000  Uiso   1.00
C232   C     0.29682   0.96988   0.11589   0.00000  Uiso   1.00
C233   C     0.24841   0.91899   0.13260   0.00000  Uiso   1.00
C234   C     0.21688   0.86838   0.09187   0.00000  Uiso   1.00
C235   C     0.15131   0.77490   0.04190   0.00000  Uiso   1.00
C236   C     0.34356   0.14831   0.13013   0.00000  Uiso   1.00
C237   C     0.33446   0.24743   0.15883   0.00000  Uiso   1.00
C238   C     0.34228   0.34701   0.13009   0.00000  Uiso   1.00
C239   C     0.34932   0.53054   0.10224   0.00000  Uiso   1.00
C240   C     0.39255   0.97249   0.14454   0.00000  Uiso   1.00
C241   C     0.42465   0.92381   0.18535   0.00000  Uiso   1.00
C242   C     0.47374   0.87540   0.16875   0.00000  Uiso   1.00
C243   C     0.55685   0.78595   0.16327   0.00000  Uiso   1.00
C244   C     0.36754   0.03070   0.05144   0.00000  Uiso   1.00
C245   C     0.31317   0.97022   0.06045   0.00000  Uiso   1.00
C246   C     0.28171   0.91966   0.01968   0.00000  Uiso   1.00
C247   C     0.23326   0.86870   0.03634   0.00000  Uiso   1.00
C248   C     0.35991   0.14864   0.07470   0.00000  Uiso   1.00
C249   C     0.36776   0.24810   0.04591   0.00000  Uiso   1.00
C250   C     0.35867   0.34735   0.07455   0.00000  Uiso   1.00
C251   C     0.40891   0.97282   0.08910   0.00000  Uiso   1.00
C252   C     0.45795   0.92449   0.07243   0.00000  Uiso   1.00
C253   C     0.49012   0.87574   0.11321   0.00000  Uiso   1.00
H254   H     0.32471   0.02983   0.19666   0.00000  Uiso   1.00
H255   H     0.23576   0.91876   0.17551   0.00000  Uiso   1.00
H256   H     0.32181   0.24714   0.20173   0.00000  Uiso   1.00
H257   H     0.41199   0.92357   0.22825   0.00000  Uiso   1.00
H258   H     0.14436   0.79579   0.12761   0.00000  Uiso   1.00
H259   H     0.32580   0.48821   0.18290   0.00000  Uiso   1.00
H260   H     0.51596   0.80591   0.23882   0.00000  Uiso   1.00
H261   H     0.38027   0.03096   0.00828   0.00000  Uiso   1.00
H262   H     0.29437   0.91994   0.97679   0.00000  Uiso   1.00
H263   H     0.38042   0.24833   0.00301   0.00000  Uiso   1.00
H264   H     0.47060   0.92476   0.02953   0.00000  Uiso   1.00
H265   H     0.19192   0.79676   0.96632   0.00000  Uiso   1.00
H266   H     0.37337   0.48918   0.02162   0.00000  Uiso   1.00
H267   H     0.56353   0.80687   0.07754   0.00000  Uiso   1.00
O268   O     0.11062   0.72326   0.02964   0.00000  Uiso   1.00
O269   O     0.34868   0.63168   0.10220   0.00000  Uiso   1.00
O270   O     0.59817   0.73651   0.17556   0.00000  Uiso   1.00
N271   N     0.16734   0.81123   0.09397   0.00000  Uiso   1.00
N272   N     0.33697   0.45861   0.14567   0.00000  Uiso   1.00
N273   N     0.51477   0.82074   0.19795   0.00000  Uiso   1.00
N274   N     0.19294   0.81175   0.00718   0.00000  Uiso   1.00
N275   N     0.36257   0.45912   0.05888   0.00000  Uiso   1.00
N276   N     0.54036   0.82125   0.11116   0.00000  Uiso   1.00
C277   C     0.70528   0.03004   0.84253   0.00000  Uiso   1.00
C278   C     0.74588   0.96980   0.88015   0.00000  Uiso   1.00
C279   C     0.79424   0.91873   0.86343   0.00000  Uiso   1.00
C280   C     0.82576   0.86811   0.90416   0.00000  Uiso   1.00
C281   C     0.89129   0.77455   0.95415   0.00000  Uiso   1.00
C282   C     0.69925   0.14833   0.86584   0.00000  Uiso   1.00
C283   C     0.70841   0.24736   0.83709   0.00000  Uiso   1.00
C284   C     0.70066   0.34703   0.86578   0.00000  Uiso   1.00
C285   C     0.69377   0.53064   0.89354   0.00000  Uiso   1.00
C286   C     0.65013   0.97263   0.85155   0.00000  Uiso   1.00
C287   C     0.61797   0.92396   0.81078   0.00000  Uiso   1.00
C288   C     0.56886   0.87573   0.82745   0.00000  Uiso   1.00
C289   C     0.48569   0.78653   0.83302   0.00000  Uiso   1.00
C290   C     0.67524   0.03096   0.94461   0.00000  Uiso   1.00
C291   C     0.72956   0.97030   0.93559   0.00000  Uiso   1.00
C292   C     0.76101   0.91974   0.97637   0.00000  Uiso   1.00
C293   C     0.80941   0.86860   0.95971   0.00000  Uiso   1.00
C294   C     0.68293   0.14883   0.92129   0.00000  Uiso   1.00
C295   C     0.67517   0.24838   0.95003   0.00000  Uiso   1.00
C296   C     0.68432   0.34753   0.92133   0.00000  Uiso   1.00
C297   C     0.63381   0.97313   0.90700   0.00000  Uiso   1.00
C298   C     0.58474   0.92497   0.92372   0.00000  Uiso   1.00
C299   C     0.55251   0.87623   0.88299   0.00000  Uiso   1.00
H300   H     0.71798   0.02966   0.79936   0.00000  Uiso   1.00
H301   H     0.80686   0.91837   0.82052   0.00000  Uiso   1.00
H302   H     0.72103   0.24695   0.79418   0.00000  Uiso   1.00
H303   H     0.63061   0.92359   0.76788   0.00000  Uiso   1.00
H304   H     0.89821   0.79524   0.86842   0.00000  Uiso   1.00
H305   H     0.71722   0.48807   0.81289   0.00000  Uiso   1.00
H306   H     0.52654   0.80621   0.75743   0.00000  Uiso   1.00
H307   H     0.66253   0.03135   0.98778   0.00000  Uiso   1.00
H308   H     0.74837   0.92014   0.01927   0.00000  Uiso   1.00
H309   H     0.66254   0.24873   0.99293   0.00000  Uiso   1.00
H310   H     0.57212   0.92537   0.96663   0.00000  Uiso   1.00
H311   H     0.85074   0.79668   0.02974   0.00000  Uiso   1.00
H312   H     0.66974   0.48952   0.97420   0.00000  Uiso   1.00
H313   H     0.47907   0.80765   0.91875   0.00000  Uiso   1.00
O314   O     0.93195   0.72281   0.96640   0.00000  Uiso   1.00
O315   O     0.69448   0.63178   0.89353   0.00000  Uiso   1.00
O316   O     0.44433   0.73718   0.82078   0.00000  Uiso   1.00
N317   N     0.87525   0.81082   0.90206   0.00000  Uiso   1.00
N318   N     0.70604   0.45858   0.85014   0.00000  Uiso   1.00
N319   N     0.52777   0.82112   0.79829   0.00000  Uiso   1.00
N320   N     0.84971   0.81160   0.98887   0.00000  Uiso   1.00
N321   N     0.68050   0.45935   0.93695   0.00000  Uiso   1.00
N322   N     0.50223   0.82189   0.88510   0.00000  Uiso   1.00
C323   C     0.66256   0.96992   0.65350   0.00000  Uiso   1.00
C324   C     0.70318   0.03012   0.61589   0.00000  Uiso   1.00
C325   C     0.75159   0.08101   0.63260   0.00000  Uiso   1.00
C326   C     0.78312   0.13162   0.59187   0.00000  Uiso   1.00
C327   C     0.84869   0.22510   0.54190   0.00000  Uiso   1.00
C328   C     0.65644   0.85169   0.63013   0.00000  Uiso   1.00
C329   C     0.66554   0.75257   0.65883   0.00000  Uiso   1.00
C330   C     0.65772   0.65299   0.63009   0.00000  Uiso   1.00
C331   C     0.65068   0.46946   0.60224   0.00000  Uiso   1.00
C332   C     0.60745   0.02751   0.64454   0.00000  Uiso   1.00
C333   C     0.57535   0.07619   0.68535   0.00000  Uiso   1.00
C334   C     0.52626   0.12460   0.66875   0.00000  Uiso   1.00
C335   C     0.44315   0.21405   0.66327   0.00000  Uiso   1.00
C336   C     0.63246   0.96930   0.55144   0.00000  Uiso   1.00
C337   C     0.68683   0.02978   0.56045   0.00000  Uiso   1.00
C338   C     0.71829   0.08034   0.51968   0.00000  Uiso   1.00
C339   C     0.76674   0.13130   0.53634   0.00000  Uiso   1.00
C340   C     0.64009   0.85136   0.57470   0.00000  Uiso   1.00
C341   C     0.63224   0.75190   0.54591   0.00000  Uiso   1.00
C342   C     0.64133   0.65265   0.57455   0.00000  Uiso   1.00
C343   C     0.59109   0.02718   0.58910   0.00000  Uiso   1.00
C344   C     0.54205   0.07551   0.57243   0.00000  Uiso   1.00
C345   C     0.50988   0.12426   0.61321   0.00000  Uiso   1.00
H346   H     0.67529   0.97017   0.69666   0.00000  Uiso   1.00
H347   H     0.76424   0.08124   0.67551   0.00000  Uiso   1.00
H348   H     0.67819   0.75286   0.70173   0.00000  Uiso   1.00
H349   H     0.58801   0.07643   0.72825   0.00000  Uiso   1.00
H350   H     0.85564   0.20421   0.62761   0.00000  Uiso   1.00
H351   H     0.67420   0.51179   0.68290   0.00000  Uiso   1.00
H352   H     0.48404   0.19409   0.73882   0.00000  Uiso   1.00
H353   H     0.61973   0.96904   0.50828   0.00000  Uiso   1.00
H354   H     0.70563   0.08006   0.47679   0.00000  Uiso   1.00
H355   H     0.61958   0.75167   0.50301   0.00000  Uiso   1.00
H356   H     0.52940   0.07524   0.52953   0.00000  Uiso   1.00
H357   H     0.80808   0.20324   0.46632   0.00000  Uiso   1.00
H358   H     0.62663   0.51082   0.52162   0.00000  Uiso   1.00
H359   H     0.43647   0.19313   0.57754   0.00000  Uiso   1.00
O360   O     0.88938   0.27674   0.52964   0.00000  Uiso   1.00
O361   O     0.65132   0.36832   0.60220   0.00000  Uiso   1.00
O362   O     0.40183   0.26349   0.67556   0.00000  Uiso   1.00
N363   N     0.83266   0.18877   0.59397   0.00000  Uiso   1.00
N364   N     0.66303   0.54139   0.64567   0.00000  Uiso   1.00
N365   N     0.48523   0.17926   0.69795   0.00000  Uiso   1.00
N366   N     0.80706   0.18825   0.50718   0.00000  Uiso   1.00
N367   N     0.63743   0.54088   0.55888   0.00000  Uiso   1.00
N368   N     0.45964   0.17875   0.61116   0.00000  Uiso   1.00
