data_job_01856
_audit_creation_date              2018-12-19
_audit_creation_method            'Materials Studio'
_symmetry_space_group_name_H-M    'P1'
_symmetry_Int_Tables_number       1
_symmetry_cell_setting            triclinic
loop_
_symmetry_equiv_pos_as_xyz
  x,y,z
_cell_length_a                    9.6845
_cell_length_b                    10.9863
_cell_length_c                    13.4727
_cell_angle_alpha                 107.4078
_cell_angle_beta                  90.4734
_cell_angle_gamma                 64.7241
loop_
_atom_site_label
_atom_site_type_symbol
_atom_site_fract_x
_atom_site_fract_y
_atom_site_fract_z
_atom_site_U_iso_or_equiv
_atom_site_adp_type
_atom_site_occupancy
C1     C     0.74456   0.88392   0.82464   0.00000  Uiso   1.00
C2     C     0.64241   0.87539   0.73864   0.00000  Uiso   1.00
C3     C     0.50201   0.87168   0.74910   0.00000  Uiso   1.00
C4     C     0.42625   0.86383   0.66117   0.00000  Uiso   1.00
C5     C     0.25818   0.85112   0.54205   0.00000  Uiso   1.00
C6     C     0.90121   0.75611   0.78049   0.00000  Uiso   1.00
C7     C     0.97841   0.65213   0.82615   0.00000  Uiso   1.00
C8     C     0.12052   0.54387   0.77346   0.00000  Uiso   1.00
C9     C     0.35428   0.34604   0.71936   0.00000  Uiso   1.00
C10    C     0.76894   0.01520   0.83504   0.00000  Uiso   1.00
C11    C     0.73498   0.12905   0.92657   0.00000  Uiso   1.00
C12    C     0.76576   0.23892   0.91981   0.00000  Uiso   1.00
C13    C     0.79416   0.44337   0.95041   0.00000  Uiso   1.00
C14    C     0.85967   0.87658   0.64990   0.00000  Uiso   1.00
C15    C     0.70495   0.87140   0.64373   0.00000  Uiso   1.00
C16    C     0.62938   0.86356   0.55576   0.00000  Uiso   1.00
C17    C     0.48889   0.85984   0.56609   0.00000  Uiso   1.00
C18    C     0.96374   0.75212   0.68558   0.00000  Uiso   1.00
C19    C     0.10577   0.64400   0.63282   0.00000  Uiso   1.00
C20    C     0.18316   0.53988   0.67838   0.00000  Uiso   1.00
C21    C     0.83147   0.01122   0.74013   0.00000  Uiso   1.00
C22    C     0.86233   0.12093   0.73323   0.00000  Uiso   1.00
C23    C     0.82840   0.23492   0.82473   0.00000  Uiso   1.00
H24    H     0.69589   0.88702   0.89854   0.00000  Uiso   1.00
H25    H     0.45367   0.87475   0.82256   0.00000  Uiso   1.00
H26    H     0.93000   0.65525   0.89961   0.00000  Uiso   1.00
H27    H     0.68659   0.13210   0.00000   0.00000  Uiso   1.00
H28    H     0.21273   0.85935   0.69646   0.00000  Uiso   1.00
H29    H     0.21712   0.39653   0.85893   0.00000  Uiso   1.00
H30    H     0.70385   0.40207   0.07064   0.00000  Uiso   1.00
H31    H     0.90836   0.87347   0.57600   0.00000  Uiso   1.00
H32    H     0.67779   0.86047   0.48233   0.00000  Uiso   1.00
H33    H     0.15413   0.64096   0.55937   0.00000  Uiso   1.00
H34    H     0.91072   0.11781   0.65977   0.00000  Uiso   1.00
H35    H     0.39464   0.84775   0.42031   0.00000  Uiso   1.00
H36    H     0.39904   0.38493   0.58279   0.00000  Uiso   1.00
H37    H     0.88576   0.39046   0.79449   0.00000  Uiso   1.00
O38    O     0.14821   0.84519   0.50257   0.00000  Uiso   1.00
O39    O     0.46594   0.23802   0.71574   0.00000  Uiso   1.00
O40    O     0.79253   0.55725   0.99350   0.00000  Uiso   1.00
N41    N     0.28717   0.85843   0.64433   0.00000  Uiso   1.00
N42    N     0.22621   0.42571   0.79622   0.00000  Uiso   1.00
N43    N     0.74638   0.36579   0.99416   0.00000  Uiso   1.00
N44    N     0.38505   0.85219   0.49573   0.00000  Uiso   1.00
N45    N     0.32409   0.41947   0.64763   0.00000  Uiso   1.00
N46    N     0.84426   0.35954   0.84557   0.00000  Uiso   1.00
C47    C     0.25544   0.11608   0.17536   0.00000  Uiso   1.00
C48    C     0.35759   0.12461   0.26136   0.00000  Uiso   1.00
C49    C     0.49799   0.12832   0.25090   0.00000  Uiso   1.00
C50    C     0.57375   0.13617   0.33883   0.00000  Uiso   1.00
C51    C     0.74182   0.14888   0.45795   0.00000  Uiso   1.00
C52    C     0.09879   0.24389   0.21951   0.00000  Uiso   1.00
C53    C     0.02159   0.34787   0.17385   0.00000  Uiso   1.00
C54    C     0.87948   0.45613   0.22654   0.00000  Uiso   1.00
C55    C     0.64572   0.65396   0.28064   0.00000  Uiso   1.00
C56    C     0.23106   0.98480   0.16496   0.00000  Uiso   1.00
C57    C     0.26502   0.87095   0.07343   0.00000  Uiso   1.00
C58    C     0.23424   0.76108   0.08019   0.00000  Uiso   1.00
C59    C     0.20584   0.55663   0.04959   0.00000  Uiso   1.00
C60    C     0.14033   0.12342   0.35010   0.00000  Uiso   1.00
C61    C     0.29505   0.12860   0.35627   0.00000  Uiso   1.00
C62    C     0.37062   0.13644   0.44424   0.00000  Uiso   1.00
C63    C     0.51111   0.14016   0.43391   0.00000  Uiso   1.00
C64    C     0.03626   0.24788   0.31442   0.00000  Uiso   1.00
C65    C     0.89423   0.35600   0.36718   0.00000  Uiso   1.00
C66    C     0.81684   0.46012   0.32162   0.00000  Uiso   1.00
C67    C     0.16853   0.98878   0.25987   0.00000  Uiso   1.00
C68    C     0.13767   0.87907   0.26677   0.00000  Uiso   1.00
C69    C     0.17160   0.76508   0.17527   0.00000  Uiso   1.00
H70    H     0.30411   0.11298   0.10146   0.00000  Uiso   1.00
H71    H     0.54633   0.12525   0.17744   0.00000  Uiso   1.00
H72    H     0.07000   0.34475   0.10039   0.00000  Uiso   1.00
H73    H     0.31341   0.86790  -0.00000   0.00000  Uiso   1.00
H74    H     0.78727   0.14065   0.30354   0.00000  Uiso   1.00
H75    H     0.78288   0.60347   0.14107   0.00000  Uiso   1.00
H76    H     0.29615   0.59793   0.92936   0.00000  Uiso   1.00
H77    H     0.09164   0.12653   0.42400   0.00000  Uiso   1.00
H78    H     0.32221   0.13953   0.51767   0.00000  Uiso   1.00
H79    H     0.84587   0.35904   0.44063   0.00000  Uiso   1.00
H80    H     0.08928   0.88219   0.34023   0.00000  Uiso   1.00
H81    H     0.60536   0.15225   0.57969   0.00000  Uiso   1.00
H82    H     0.60096   0.61507   0.41721   0.00000  Uiso   1.00
H83    H     0.11424   0.60954   0.20551   0.00000  Uiso   1.00
O84    O     0.85179   0.15481   0.49743   0.00000  Uiso   1.00
O85    O     0.53406   0.76198   0.28426   0.00000  Uiso   1.00
O86    O     0.20747   0.44275   0.00650   0.00000  Uiso   1.00
N87    N     0.71283   0.14157   0.35567   0.00000  Uiso   1.00
N88    N     0.77379   0.57429   0.20378   0.00000  Uiso   1.00
N89    N     0.25362   0.63421   0.00584   0.00000  Uiso   1.00
N90    N     0.61495   0.14781   0.50427   0.00000  Uiso   1.00
N91    N     0.67591   0.58053   0.35237   0.00000  Uiso   1.00
N92    N     0.15574   0.64046   0.15443   0.00000  Uiso   1.00
