data_job_01574
_audit_creation_date              2018-12-19
_audit_creation_method            'Materials Studio'
_symmetry_space_group_name_H-M    'P1'
_symmetry_Int_Tables_number       1
_symmetry_cell_setting            triclinic
loop_
_symmetry_equiv_pos_as_xyz
  x,y,z
_cell_length_a                    36.2880
_cell_length_b                    7.2381
_cell_length_c                    23.8901
_cell_angle_alpha                 90.0000
_cell_angle_beta                  124.4840
_cell_angle_gamma                 90.0000
loop_
_atom_site_label
_atom_site_type_symbol
_atom_site_fract_x
_atom_site_fract_y
_atom_site_fract_z
_atom_site_U_iso_or_equiv
_atom_site_adp_type
_atom_site_occupancy
C1     C     0.10090   0.85470   0.70795   0.00000  Uiso   1.00
C2     C     0.05555   0.75921   0.66524   0.00000  Uiso   1.00
C3     C     0.01474   0.83701   0.64457   0.00000  Uiso   1.00
C4     C     0.97707   0.72697   0.60576   0.00000  Uiso   1.00
C5     C     0.90619   0.60624   0.54213   0.00000  Uiso   1.00
C6     C     0.12997   0.73170   0.76984   0.00000  Uiso   1.00
C7     C     0.15173   0.78638   0.83711   0.00000  Uiso   1.00
C8     C     0.17671   0.65318   0.88636   0.00000  Uiso   1.00
C9     C     0.22140   0.48978   0.98512   0.00000  Uiso   1.00
C10    C     0.12106   0.84446   0.66674   0.00000  Uiso   1.00
C11    C     0.13534   0.99395   0.64734   0.00000  Uiso   1.00
C12    C     0.15282   0.95568   0.60980   0.00000  Uiso   1.00
C13    C     0.18367   0.96736   0.54849   0.00000  Uiso   1.00
C14    C     0.10656   0.52094   0.67579   0.00000  Uiso   1.00
C15    C     0.05863   0.57792   0.64777   0.00000  Uiso   1.00
C16    C     0.02101   0.46773   0.60899   0.00000  Uiso   1.00
C17    C     0.98015   0.54536   0.58826   0.00000  Uiso   1.00
C18    C     0.13305   0.55042   0.75237   0.00000  Uiso   1.00
C19    C     0.15800   0.41711   0.80153   0.00000  Uiso   1.00
C20    C     0.17980   0.47156   0.86886   0.00000  Uiso   1.00
C21    C     0.12413   0.66317   0.64927   0.00000  Uiso   1.00
C22    C     0.14160   0.62467   0.61176   0.00000  Uiso   1.00
C23    C     0.15591   0.77407   0.59230   0.00000  Uiso   1.00
H24    H     0.09851   0.99584   0.72155   0.00000  Uiso   1.00
H25    H     0.01238   0.97731   0.65810   0.00000  Uiso   1.00
H26    H     0.14935   0.92669   0.85061   0.00000  Uiso   1.00
H27    H     0.13295   0.13422   0.66087   0.00000  Uiso   1.00
H28    H     0.91824   0.87679   0.58007   0.00000  Uiso   1.00
H29    H     0.20707   0.77007   0.98599   0.00000  Uiso   1.00
H30    H     0.17250   0.20770   0.58588   0.00000  Uiso   1.00
H31    H     0.10896   0.37979   0.66219   0.00000  Uiso   1.00
H32    H     0.02340   0.32745   0.59548   0.00000  Uiso   1.00
H33    H     0.16038   0.27683   0.78799   0.00000  Uiso   1.00
H34    H     0.14398   0.48436   0.59825   0.00000  Uiso   1.00
H35    H     0.92719   0.34933   0.52925   0.00000  Uiso   1.00
H36    H     0.21603   0.24262   0.93517   0.00000  Uiso   1.00
H37    H     0.18145   0.68024   0.53506   0.00000  Uiso   1.00
O38    O     0.86625   0.58972   0.51187   0.00000  Uiso   1.00
O39    O     0.24519   0.44973   0.04442   0.00000  Uiso   1.00
O40    O     0.19983   0.02388   0.51948   0.00000  Uiso   1.00
N41    N     0.93209   0.75985   0.57725   0.00000  Uiso   1.00
N42    N     0.20212   0.66007   0.95677   0.00000  Uiso   1.00
N43    N     0.16981   0.06921   0.58271   0.00000  Uiso   1.00
N44    N     0.93691   0.47603   0.54991   0.00000  Uiso   1.00
N45    N     0.20694   0.37625   0.92942   0.00000  Uiso   1.00
N46    N     0.17463   0.78539   0.55537   0.00000  Uiso   1.00
C47    C     0.60090   0.35470   0.70795   0.00000  Uiso   1.00
C48    C     0.55555   0.25921   0.66524   0.00000  Uiso   1.00
C49    C     0.51474   0.33701   0.64457   0.00000  Uiso   1.00
C50    C     0.47707   0.22697   0.60576   0.00000  Uiso   1.00
C51    C     0.40619   0.10624   0.54213   0.00000  Uiso   1.00
C52    C     0.62997   0.23170   0.76984   0.00000  Uiso   1.00
C53    C     0.65173   0.28638   0.83711   0.00000  Uiso   1.00
C54    C     0.67671   0.15318   0.88636   0.00000  Uiso   1.00
C55    C     0.72140   0.98978   0.98512   0.00000  Uiso   1.00
C56    C     0.62106   0.34446   0.66674   0.00000  Uiso   1.00
C57    C     0.63534   0.49395   0.64734   0.00000  Uiso   1.00
C58    C     0.65282   0.45568   0.60980   0.00000  Uiso   1.00
C59    C     0.68367   0.46736   0.54849   0.00000  Uiso   1.00
C60    C     0.60656   0.02094   0.67579   0.00000  Uiso   1.00
C61    C     0.55863   0.07792   0.64777   0.00000  Uiso   1.00
C62    C     0.52101   0.96773   0.60899   0.00000  Uiso   1.00
C63    C     0.48015   0.04536   0.58826   0.00000  Uiso   1.00
C64    C     0.63305   0.05042   0.75237   0.00000  Uiso   1.00
C65    C     0.65800   0.91711   0.80153   0.00000  Uiso   1.00
C66    C     0.67980   0.97156   0.86886   0.00000  Uiso   1.00
C67    C     0.62413   0.16317   0.64927   0.00000  Uiso   1.00
C68    C     0.64160   0.12467   0.61176   0.00000  Uiso   1.00
C69    C     0.65591   0.27407   0.59230   0.00000  Uiso   1.00
H70    H     0.59851   0.49584   0.72155   0.00000  Uiso   1.00
H71    H     0.51238   0.47731   0.65810   0.00000  Uiso   1.00
H72    H     0.64935   0.42669   0.85061   0.00000  Uiso   1.00
H73    H     0.63295   0.63422   0.66087   0.00000  Uiso   1.00
H74    H     0.41824   0.37679   0.58007   0.00000  Uiso   1.00
H75    H     0.70707   0.27007   0.98599   0.00000  Uiso   1.00
H76    H     0.67250   0.70770   0.58588   0.00000  Uiso   1.00
H77    H     0.60896   0.87979   0.66219   0.00000  Uiso   1.00
H78    H     0.52340   0.82745   0.59548   0.00000  Uiso   1.00
H79    H     0.66038   0.77683   0.78799   0.00000  Uiso   1.00
H80    H     0.64398   0.98436   0.59825   0.00000  Uiso   1.00
H81    H     0.42719   0.84933   0.52925   0.00000  Uiso   1.00
H82    H     0.71603   0.74262   0.93517   0.00000  Uiso   1.00
H83    H     0.68145   0.18024   0.53506   0.00000  Uiso   1.00
O84    O     0.36625   0.08972   0.51187   0.00000  Uiso   1.00
O85    O     0.74519   0.94973   0.04442   0.00000  Uiso   1.00
O86    O     0.69983   0.52388   0.51948   0.00000  Uiso   1.00
N87    N     0.43209   0.25985   0.57725   0.00000  Uiso   1.00
N88    N     0.70212   0.16007   0.95677   0.00000  Uiso   1.00
N89    N     0.66981   0.56921   0.58271   0.00000  Uiso   1.00
N90    N     0.43691   0.97603   0.54991   0.00000  Uiso   1.00
N91    N     0.70694   0.87625   0.92942   0.00000  Uiso   1.00
N92    N     0.67463   0.28539   0.55537   0.00000  Uiso   1.00
C93    C     0.89910   0.85470   0.79205   0.00000  Uiso   1.00
C94    C     0.94445   0.75921   0.83476   0.00000  Uiso   1.00
C95    C     0.98526   0.83701   0.85543   0.00000  Uiso   1.00
C96    C     0.02293   0.72697   0.89424   0.00000  Uiso   1.00
C97    C     0.09381   0.60624   0.95787   0.00000  Uiso   1.00
C98    C     0.87003   0.73170   0.73016   0.00000  Uiso   1.00
C99    C     0.84827   0.78638   0.66289   0.00000  Uiso   1.00
C100   C     0.82329   0.65318   0.61364   0.00000  Uiso   1.00
C101   C     0.77860   0.48978   0.51488   0.00000  Uiso   1.00
C102   C     0.87894   0.84446   0.83326   0.00000  Uiso   1.00
C103   C     0.86466   0.99395   0.85266   0.00000  Uiso   1.00
C104   C     0.84718   0.95568   0.89020   0.00000  Uiso   1.00
C105   C     0.81633   0.96736   0.95151   0.00000  Uiso   1.00
C106   C     0.89344   0.52094   0.82421   0.00000  Uiso   1.00
C107   C     0.94137   0.57792   0.85223   0.00000  Uiso   1.00
C108   C     0.97899   0.46773   0.89101   0.00000  Uiso   1.00
C109   C     0.01985   0.54536   0.91174   0.00000  Uiso   1.00
C110   C     0.86695   0.55042   0.74763   0.00000  Uiso   1.00
C111   C     0.84200   0.41711   0.69847   0.00000  Uiso   1.00
C112   C     0.82020   0.47156   0.63114   0.00000  Uiso   1.00
C113   C     0.87587   0.66317   0.85073   0.00000  Uiso   1.00
C114   C     0.85840   0.62467   0.88824   0.00000  Uiso   1.00
C115   C     0.84409   0.77407   0.90770   0.00000  Uiso   1.00
H116   H     0.90149   0.99584   0.77845   0.00000  Uiso   1.00
H117   H     0.98762   0.97731   0.84190   0.00000  Uiso   1.00
H118   H     0.85065   0.92669   0.64939   0.00000  Uiso   1.00
H119   H     0.86705   0.13422   0.83913   0.00000  Uiso   1.00
H120   H     0.08176   0.87679   0.91993   0.00000  Uiso   1.00
H121   H     0.79293   0.77007   0.51401   0.00000  Uiso   1.00
H122   H     0.82750   0.20770   0.91412   0.00000  Uiso   1.00
H123   H     0.89104   0.37979   0.83781   0.00000  Uiso   1.00
H124   H     0.97660   0.32745   0.90452   0.00000  Uiso   1.00
H125   H     0.83962   0.27683   0.71201   0.00000  Uiso   1.00
H126   H     0.85602   0.48436   0.90175   0.00000  Uiso   1.00
H127   H     0.07281   0.34933   0.97075   0.00000  Uiso   1.00
H128   H     0.78397   0.24262   0.56483   0.00000  Uiso   1.00
H129   H     0.81855   0.68024   0.96494   0.00000  Uiso   1.00
O130   O     0.13375   0.58972   0.98813   0.00000  Uiso   1.00
O131   O     0.75481   0.44973   0.45558   0.00000  Uiso   1.00
O132   O     0.80017   0.02388   0.98052   0.00000  Uiso   1.00
N133   N     0.06791   0.75985   0.92275   0.00000  Uiso   1.00
N134   N     0.79788   0.66007   0.54323   0.00000  Uiso   1.00
N135   N     0.83019   0.06921   0.91729   0.00000  Uiso   1.00
N136   N     0.06309   0.47603   0.95009   0.00000  Uiso   1.00
N137   N     0.79306   0.37625   0.57058   0.00000  Uiso   1.00
N138   N     0.82537   0.78539   0.94463   0.00000  Uiso   1.00
C139   C     0.39910   0.35470   0.79205   0.00000  Uiso   1.00
C140   C     0.44445   0.25921   0.83476   0.00000  Uiso   1.00
C141   C     0.48526   0.33701   0.85543   0.00000  Uiso   1.00
C142   C     0.52293   0.22697   0.89424   0.00000  Uiso   1.00
C143   C     0.59381   0.10624   0.95787   0.00000  Uiso   1.00
C144   C     0.37003   0.23170   0.73016   0.00000  Uiso   1.00
C145   C     0.34827   0.28638   0.66289   0.00000  Uiso   1.00
C146   C     0.32329   0.15318   0.61364   0.00000  Uiso   1.00
C147   C     0.27860   0.98978   0.51488   0.00000  Uiso   1.00
C148   C     0.37894   0.34446   0.83326   0.00000  Uiso   1.00
C149   C     0.36466   0.49395   0.85266   0.00000  Uiso   1.00
C150   C     0.34718   0.45568   0.89020   0.00000  Uiso   1.00
C151   C     0.31633   0.46736   0.95151   0.00000  Uiso   1.00
C152   C     0.39344   0.02094   0.82421   0.00000  Uiso   1.00
C153   C     0.44137   0.07792   0.85223   0.00000  Uiso   1.00
C154   C     0.47899   0.96773   0.89101   0.00000  Uiso   1.00
C155   C     0.51985   0.04536   0.91174   0.00000  Uiso   1.00
C156   C     0.36695   0.05042   0.74763   0.00000  Uiso   1.00
C157   C     0.34200   0.91711   0.69847   0.00000  Uiso   1.00
C158   C     0.32020   0.97156   0.63114   0.00000  Uiso   1.00
C159   C     0.37587   0.16317   0.85073   0.00000  Uiso   1.00
C160   C     0.35840   0.12467   0.88824   0.00000  Uiso   1.00
C161   C     0.34409   0.27407   0.90770   0.00000  Uiso   1.00
H162   H     0.40149   0.49584   0.77845   0.00000  Uiso   1.00
H163   H     0.48762   0.47731   0.84190   0.00000  Uiso   1.00
H164   H     0.35065   0.42669   0.64939   0.00000  Uiso   1.00
H165   H     0.36705   0.63422   0.83913   0.00000  Uiso   1.00
H166   H     0.58176   0.37679   0.91993   0.00000  Uiso   1.00
H167   H     0.29293   0.27007   0.51401   0.00000  Uiso   1.00
H168   H     0.32750   0.70770   0.91412   0.00000  Uiso   1.00
H169   H     0.39104   0.87979   0.83781   0.00000  Uiso   1.00
H170   H     0.47660   0.82745   0.90452   0.00000  Uiso   1.00
H171   H     0.33962   0.77683   0.71201   0.00000  Uiso   1.00
H172   H     0.35602   0.98436   0.90175   0.00000  Uiso   1.00
H173   H     0.57281   0.84933   0.97075   0.00000  Uiso   1.00
H174   H     0.28397   0.74262   0.56483   0.00000  Uiso   1.00
H175   H     0.31855   0.18024   0.96494   0.00000  Uiso   1.00
O176   O     0.63375   0.08972   0.98813   0.00000  Uiso   1.00
O177   O     0.25481   0.94973   0.45558   0.00000  Uiso   1.00
O178   O     0.30017   0.52388   0.98052   0.00000  Uiso   1.00
N179   N     0.56791   0.25985   0.92275   0.00000  Uiso   1.00
N180   N     0.29788   0.16007   0.54323   0.00000  Uiso   1.00
N181   N     0.33019   0.56921   0.91729   0.00000  Uiso   1.00
N182   N     0.56309   0.97603   0.95009   0.00000  Uiso   1.00
N183   N     0.29306   0.87625   0.57058   0.00000  Uiso   1.00
N184   N     0.32537   0.28539   0.94463   0.00000  Uiso   1.00
C185   C     0.89910   0.14530   0.29205   0.00000  Uiso   1.00
C186   C     0.94445   0.24079   0.33476   0.00000  Uiso   1.00
C187   C     0.98526   0.16299   0.35543   0.00000  Uiso   1.00
C188   C     0.02293   0.27303   0.39424   0.00000  Uiso   1.00
C189   C     0.09381   0.39376   0.45787   0.00000  Uiso   1.00
C190   C     0.87003   0.26830   0.23016   0.00000  Uiso   1.00
C191   C     0.84827   0.21362   0.16289   0.00000  Uiso   1.00
C192   C     0.82329   0.34682   0.11364   0.00000  Uiso   1.00
C193   C     0.77860   0.51022   0.01488   0.00000  Uiso   1.00
C194   C     0.87894   0.15554   0.33326   0.00000  Uiso   1.00
C195   C     0.86466   0.00605   0.35266   0.00000  Uiso   1.00
C196   C     0.84718   0.04432   0.39020   0.00000  Uiso   1.00
C197   C     0.81633   0.03264   0.45151   0.00000  Uiso   1.00
C198   C     0.89344   0.47906   0.32421   0.00000  Uiso   1.00
C199   C     0.94137   0.42208   0.35223   0.00000  Uiso   1.00
C200   C     0.97899   0.53227   0.39101   0.00000  Uiso   1.00
C201   C     0.01985   0.45464   0.41174   0.00000  Uiso   1.00
C202   C     0.86695   0.44958   0.24763   0.00000  Uiso   1.00
C203   C     0.84200   0.58289   0.19847   0.00000  Uiso   1.00
C204   C     0.82020   0.52844   0.13114   0.00000  Uiso   1.00
C205   C     0.87587   0.33683   0.35073   0.00000  Uiso   1.00
C206   C     0.85840   0.37533   0.38824   0.00000  Uiso   1.00
C207   C     0.84409   0.22593   0.40770   0.00000  Uiso   1.00
H208   H     0.90149   0.00416   0.27845   0.00000  Uiso   1.00
H209   H     0.98762   0.02269   0.34190   0.00000  Uiso   1.00
H210   H     0.85065   0.07331   0.14939   0.00000  Uiso   1.00
H211   H     0.86705   0.86578   0.33913   0.00000  Uiso   1.00
H212   H     0.08176   0.12321   0.41993   0.00000  Uiso   1.00
H213   H     0.79293   0.22993   0.01401   0.00000  Uiso   1.00
H214   H     0.82750   0.79230   0.41412   0.00000  Uiso   1.00
H215   H     0.89104   0.62021   0.33781   0.00000  Uiso   1.00
H216   H     0.97660   0.67255   0.40452   0.00000  Uiso   1.00
H217   H     0.83962   0.72317   0.21201   0.00000  Uiso   1.00
H218   H     0.85602   0.51564   0.40175   0.00000  Uiso   1.00
H219   H     0.07281   0.65067   0.47075   0.00000  Uiso   1.00
H220   H     0.78397   0.75738   0.06483   0.00000  Uiso   1.00
H221   H     0.81855   0.31976   0.46494   0.00000  Uiso   1.00
O222   O     0.13375   0.41028   0.48813   0.00000  Uiso   1.00
O223   O     0.75481   0.55027   0.95558   0.00000  Uiso   1.00
O224   O     0.80017   0.97612   0.48052   0.00000  Uiso   1.00
N225   N     0.06791   0.24015   0.42275   0.00000  Uiso   1.00
N226   N     0.79788   0.33993   0.04323   0.00000  Uiso   1.00
N227   N     0.83019   0.93079   0.41729   0.00000  Uiso   1.00
N228   N     0.06309   0.52397   0.45009   0.00000  Uiso   1.00
N229   N     0.79306   0.62375   0.07058   0.00000  Uiso   1.00
N230   N     0.82537   0.21461   0.44463   0.00000  Uiso   1.00
C231   C     0.39910   0.64530   0.29205   0.00000  Uiso   1.00
C232   C     0.44445   0.74079   0.33476   0.00000  Uiso   1.00
C233   C     0.48526   0.66299   0.35543   0.00000  Uiso   1.00
C234   C     0.52293   0.77303   0.39424   0.00000  Uiso   1.00
C235   C     0.59381   0.89376   0.45787   0.00000  Uiso   1.00
C236   C     0.37003   0.76830   0.23016   0.00000  Uiso   1.00
C237   C     0.34827   0.71362   0.16289   0.00000  Uiso   1.00
C238   C     0.32329   0.84682   0.11364   0.00000  Uiso   1.00
C239   C     0.27860   0.01022   0.01488   0.00000  Uiso   1.00
C240   C     0.37894   0.65554   0.33326   0.00000  Uiso   1.00
C241   C     0.36466   0.50605   0.35266   0.00000  Uiso   1.00
C242   C     0.34718   0.54432   0.39020   0.00000  Uiso   1.00
C243   C     0.31633   0.53264   0.45151   0.00000  Uiso   1.00
C244   C     0.39344   0.97906   0.32421   0.00000  Uiso   1.00
C245   C     0.44137   0.92208   0.35223   0.00000  Uiso   1.00
C246   C     0.47899   0.03227   0.39101   0.00000  Uiso   1.00
C247   C     0.51985   0.95464   0.41174   0.00000  Uiso   1.00
C248   C     0.36695   0.94958   0.24763   0.00000  Uiso   1.00
C249   C     0.34200   0.08289   0.19847   0.00000  Uiso   1.00
C250   C     0.32020   0.02844   0.13114   0.00000  Uiso   1.00
C251   C     0.37587   0.83683   0.35073   0.00000  Uiso   1.00
C252   C     0.35840   0.87533   0.38824   0.00000  Uiso   1.00
C253   C     0.34409   0.72593   0.40770   0.00000  Uiso   1.00
H254   H     0.40149   0.50416   0.27845   0.00000  Uiso   1.00
H255   H     0.48762   0.52269   0.34190   0.00000  Uiso   1.00
H256   H     0.35065   0.57331   0.14939   0.00000  Uiso   1.00
H257   H     0.36705   0.36578   0.33913   0.00000  Uiso   1.00
H258   H     0.58176   0.62321   0.41993   0.00000  Uiso   1.00
H259   H     0.29293   0.72993   0.01401   0.00000  Uiso   1.00
H260   H     0.32750   0.29230   0.41412   0.00000  Uiso   1.00
H261   H     0.39104   0.12021   0.33781   0.00000  Uiso   1.00
H262   H     0.47660   0.17255   0.40452   0.00000  Uiso   1.00
H263   H     0.33962   0.22317   0.21201   0.00000  Uiso   1.00
H264   H     0.35602   0.01564   0.40175   0.00000  Uiso   1.00
H265   H     0.57281   0.15067   0.47075   0.00000  Uiso   1.00
H266   H     0.28397   0.25738   0.06483   0.00000  Uiso   1.00
H267   H     0.31855   0.81976   0.46494   0.00000  Uiso   1.00
O268   O     0.63375   0.91028   0.48813   0.00000  Uiso   1.00
O269   O     0.25481   0.05027   0.95558   0.00000  Uiso   1.00
O270   O     0.30017   0.47612   0.48052   0.00000  Uiso   1.00
N271   N     0.56791   0.74015   0.42275   0.00000  Uiso   1.00
N272   N     0.29788   0.83993   0.04323   0.00000  Uiso   1.00
N273   N     0.33019   0.43079   0.41729   0.00000  Uiso   1.00
N274   N     0.56309   0.02397   0.45009   0.00000  Uiso   1.00
N275   N     0.29306   0.12375   0.07058   0.00000  Uiso   1.00
N276   N     0.32537   0.71461   0.44463   0.00000  Uiso   1.00
C277   C     0.10090   0.14530   0.20795   0.00000  Uiso   1.00
C278   C     0.05555   0.24079   0.16524   0.00000  Uiso   1.00
C279   C     0.01474   0.16299   0.14457   0.00000  Uiso   1.00
C280   C     0.97707   0.27303   0.10576   0.00000  Uiso   1.00
C281   C     0.90619   0.39376   0.04213   0.00000  Uiso   1.00
C282   C     0.12997   0.26830   0.26984   0.00000  Uiso   1.00
C283   C     0.15173   0.21362   0.33711   0.00000  Uiso   1.00
C284   C     0.17671   0.34682   0.38636   0.00000  Uiso   1.00
C285   C     0.22140   0.51022   0.48512   0.00000  Uiso   1.00
C286   C     0.12106   0.15554   0.16674   0.00000  Uiso   1.00
C287   C     0.13534   0.00605   0.14734   0.00000  Uiso   1.00
C288   C     0.15282   0.04432   0.10980   0.00000  Uiso   1.00
C289   C     0.18367   0.03264   0.04849   0.00000  Uiso   1.00
C290   C     0.10656   0.47906   0.17579   0.00000  Uiso   1.00
C291   C     0.05863   0.42208   0.14777   0.00000  Uiso   1.00
C292   C     0.02101   0.53227   0.10899   0.00000  Uiso   1.00
C293   C     0.98015   0.45464   0.08826   0.00000  Uiso   1.00
C294   C     0.13305   0.44958   0.25237   0.00000  Uiso   1.00
C295   C     0.15800   0.58289   0.30153   0.00000  Uiso   1.00
C296   C     0.17980   0.52844   0.36886   0.00000  Uiso   1.00
C297   C     0.12413   0.33683   0.14927   0.00000  Uiso   1.00
C298   C     0.14160   0.37533   0.11176   0.00000  Uiso   1.00
C299   C     0.15591   0.22593   0.09230   0.00000  Uiso   1.00
H300   H     0.09851   0.00416   0.22155   0.00000  Uiso   1.00
H301   H     0.01238   0.02269   0.15810   0.00000  Uiso   1.00
H302   H     0.14935   0.07331   0.35061   0.00000  Uiso   1.00
H303   H     0.13295   0.86578   0.16087   0.00000  Uiso   1.00
H304   H     0.91824   0.12321   0.08007   0.00000  Uiso   1.00
H305   H     0.20707   0.22993   0.48599   0.00000  Uiso   1.00
H306   H     0.17250   0.79230   0.08588   0.00000  Uiso   1.00
H307   H     0.10896   0.62021   0.16219   0.00000  Uiso   1.00
H308   H     0.02340   0.67255   0.09548   0.00000  Uiso   1.00
H309   H     0.16038   0.72317   0.28799   0.00000  Uiso   1.00
H310   H     0.14398   0.51564   0.09825   0.00000  Uiso   1.00
H311   H     0.92719   0.65067   0.02925   0.00000  Uiso   1.00
H312   H     0.21603   0.75738   0.43517   0.00000  Uiso   1.00
H313   H     0.18145   0.31976   0.03506   0.00000  Uiso   1.00
O314   O     0.86625   0.41028   0.01187   0.00000  Uiso   1.00
O315   O     0.24519   0.55027   0.54442   0.00000  Uiso   1.00
O316   O     0.19983   0.97612   0.01948   0.00000  Uiso   1.00
N317   N     0.93209   0.24015   0.07725   0.00000  Uiso   1.00
N318   N     0.20212   0.33993   0.45677   0.00000  Uiso   1.00
N319   N     0.16981   0.93079   0.08271   0.00000  Uiso   1.00
N320   N     0.93691   0.52397   0.04991   0.00000  Uiso   1.00
N321   N     0.20694   0.62375   0.42942   0.00000  Uiso   1.00
N322   N     0.17463   0.21461   0.05537   0.00000  Uiso   1.00
C323   C     0.60090   0.64530   0.20795   0.00000  Uiso   1.00
C324   C     0.55555   0.74079   0.16524   0.00000  Uiso   1.00
C325   C     0.51474   0.66299   0.14457   0.00000  Uiso   1.00
C326   C     0.47707   0.77303   0.10576   0.00000  Uiso   1.00
C327   C     0.40619   0.89376   0.04213   0.00000  Uiso   1.00
C328   C     0.62997   0.76830   0.26984   0.00000  Uiso   1.00
C329   C     0.65173   0.71362   0.33711   0.00000  Uiso   1.00
C330   C     0.67671   0.84682   0.38636   0.00000  Uiso   1.00
C331   C     0.72140   0.01022   0.48512   0.00000  Uiso   1.00
C332   C     0.62106   0.65554   0.16674   0.00000  Uiso   1.00
C333   C     0.63534   0.50605   0.14734   0.00000  Uiso   1.00
C334   C     0.65282   0.54432   0.10980   0.00000  Uiso   1.00
C335   C     0.68367   0.53264   0.04849   0.00000  Uiso   1.00
C336   C     0.60656   0.97906   0.17579   0.00000  Uiso   1.00
C337   C     0.55863   0.92208   0.14777   0.00000  Uiso   1.00
C338   C     0.52101   0.03227   0.10899   0.00000  Uiso   1.00
C339   C     0.48015   0.95464   0.08826   0.00000  Uiso   1.00
C340   C     0.63305   0.94958   0.25237   0.00000  Uiso   1.00
C341   C     0.65800   0.08289   0.30153   0.00000  Uiso   1.00
C342   C     0.67980   0.02844   0.36886   0.00000  Uiso   1.00
C343   C     0.62413   0.83683   0.14927   0.00000  Uiso   1.00
C344   C     0.64160   0.87533   0.11176   0.00000  Uiso   1.00
C345   C     0.65591   0.72593   0.09230   0.00000  Uiso   1.00
H346   H     0.59851   0.50416   0.22155   0.00000  Uiso   1.00
H347   H     0.51238   0.52269   0.15810   0.00000  Uiso   1.00
H348   H     0.64935   0.57331   0.35061   0.00000  Uiso   1.00
H349   H     0.63295   0.36578   0.16087   0.00000  Uiso   1.00
H350   H     0.41824   0.62321   0.08007   0.00000  Uiso   1.00
H351   H     0.70707   0.72993   0.48599   0.00000  Uiso   1.00
H352   H     0.67250   0.29230   0.08588   0.00000  Uiso   1.00
H353   H     0.60896   0.12021   0.16219   0.00000  Uiso   1.00
H354   H     0.52340   0.17255   0.09548   0.00000  Uiso   1.00
H355   H     0.66038   0.22317   0.28799   0.00000  Uiso   1.00
H356   H     0.64398   0.01564   0.09825   0.00000  Uiso   1.00
H357   H     0.42719   0.15067   0.02925   0.00000  Uiso   1.00
H358   H     0.71603   0.25738   0.43517   0.00000  Uiso   1.00
H359   H     0.68145   0.81976   0.03506   0.00000  Uiso   1.00
O360   O     0.36625   0.91028   0.01187   0.00000  Uiso   1.00
O361   O     0.74519   0.05027   0.54442   0.00000  Uiso   1.00
O362   O     0.69983   0.47612   0.01948   0.00000  Uiso   1.00
N363   N     0.43209   0.74015   0.07725   0.00000  Uiso   1.00
N364   N     0.70212   0.83993   0.45677   0.00000  Uiso   1.00
N365   N     0.66981   0.43079   0.08271   0.00000  Uiso   1.00
N366   N     0.43691   0.02397   0.04991   0.00000  Uiso   1.00
N367   N     0.70694   0.12375   0.42942   0.00000  Uiso   1.00
N368   N     0.67463   0.71461   0.05537   0.00000  Uiso   1.00
