data_job_06580
_audit_creation_date              2018-12-19
_audit_creation_method            'Materials Studio'
_symmetry_space_group_name_H-M    'P1'
_symmetry_Int_Tables_number       1
_symmetry_cell_setting            triclinic
loop_
_symmetry_equiv_pos_as_xyz
  x,y,z
_cell_length_a                    17.6025
_cell_length_b                    21.4260
_cell_length_c                    22.0386
_cell_angle_alpha                 66.9523
_cell_angle_beta                  99.0592
_cell_angle_gamma                 71.5754
loop_
_atom_site_label
_atom_site_type_symbol
_atom_site_fract_x
_atom_site_fract_y
_atom_site_fract_z
_atom_site_U_iso_or_equiv
_atom_site_adp_type
_atom_site_occupancy
C1     C     0.07261   0.72810   0.87197   0.00000  Uiso   1.00
C2     C     0.13101   0.66823   0.85910   0.00000  Uiso   1.00
C3     C     0.10860   0.65056   0.80670   0.00000  Uiso   1.00
C4     C     0.17116   0.59402   0.80367   0.00000  Uiso   1.00
C5     C     0.24935   0.50674   0.77647   0.00000  Uiso   1.00
C6     C     0.07459   0.68864   0.94711   0.00000  Uiso   1.00
C7     C     0.00476   0.68815   0.96870   0.00000  Uiso   1.00
C8     C     0.01983   0.64880   0.03976   0.00000  Uiso   1.00
C9     C     0.01043   0.59325   0.14919   0.00000  Uiso   1.00
C10    C     0.11568   0.78015   0.86987   0.00000  Uiso   1.00
C11    C     0.08038   0.85659   0.82653   0.00000  Uiso   1.00
C12    C     0.13003   0.89429   0.83257   0.00000  Uiso   1.00
C13    C     0.18441   0.98081   0.82207   0.00000  Uiso   1.00
C14    C     0.22355   0.65912   0.95978   0.00000  Uiso   1.00
C15    C     0.21299   0.63076   0.90680   0.00000  Uiso   1.00
C16    C     0.27560   0.57424   0.90385   0.00000  Uiso   1.00
C17    C     0.25329   0.55649   0.85145   0.00000  Uiso   1.00
C18    C     0.15657   0.65117   0.99481   0.00000  Uiso   1.00
C19    C     0.17175   0.61183   0.06585   0.00000  Uiso   1.00
C20    C     0.10196   0.61126   0.08754   0.00000  Uiso   1.00
C21    C     0.19766   0.74268   0.91756   0.00000  Uiso   1.00
C22    C     0.24737   0.78027   0.92368   0.00000  Uiso   1.00
C23    C     0.21216   0.85675   0.88035   0.00000  Uiso   1.00
H24    H     0.00878   0.75727   0.83484   0.00000  Uiso   1.00
H25    H     0.04515   0.67957   0.76980   0.00000  Uiso   1.00
H26    H     0.94132   0.71716   0.93178   0.00000  Uiso   1.00
H27    H     0.01693   0.88557   0.78963   0.00000  Uiso   1.00
H28    H     0.12161   0.57688   0.71875   0.00000  Uiso   1.00
H29    H     0.90268   0.65615   0.06028   0.00000  Uiso   1.00
H30    H     0.06212   0.01129   0.76053   0.00000  Uiso   1.00
H31    H     0.28738   0.62994   0.99692   0.00000  Uiso   1.00
H32    H     0.33904   0.54525   0.94077   0.00000  Uiso   1.00
H33    H     0.23520   0.58284   0.10275   0.00000  Uiso   1.00
H34    H     0.31081   0.75125   0.96060   0.00000  Uiso   1.00
H35    H     0.36014   0.46786   0.85751   0.00000  Uiso   1.00
H36    H     0.14120   0.54714   0.19905   0.00000  Uiso   1.00
H37    H     0.30065   0.90227   0.89930   0.00000  Uiso   1.00
O38    O     0.26982   0.46893   0.74829   0.00000  Uiso   1.00
O39    O     0.98259   0.57296   0.19637   0.00000  Uiso   1.00
O40    O     0.19177   0.03888   0.80310   0.00000  Uiso   1.00
N41    N     0.17066   0.56285   0.75910   0.00000  Uiso   1.00
N42    N     0.96598   0.63696   0.07842   0.00000  Uiso   1.00
N43    N     0.11503   0.96899   0.79819   0.00000  Uiso   1.00
N44    N     0.29901   0.50419   0.83377   0.00000  Uiso   1.00
N45    N     0.09433   0.57830   0.15309   0.00000  Uiso   1.00
N46    N     0.24338   0.91033   0.87286   0.00000  Uiso   1.00
C47    C     0.28101   0.48313   0.48672   0.00000  Uiso   1.00
C48    C     0.33342   0.41241   0.55559   0.00000  Uiso   1.00
C49    C     0.40943   0.35637   0.56761   0.00000  Uiso   1.00
C50    C     0.44756   0.29619   0.63419   0.00000  Uiso   1.00
C51    C     0.53449   0.18696   0.73311   0.00000  Uiso   1.00
C52    C     0.19334   0.48398   0.46838   0.00000  Uiso   1.00
C53    C     0.15157   0.48812   0.40707   0.00000  Uiso   1.00
C54    C     0.07177   0.48819   0.40023   0.00000  Uiso   1.00
C55    C     0.94119   0.49013   0.36374   0.00000  Uiso   1.00
C56    C     0.27004   0.54803   0.50257   0.00000  Uiso   1.00
C57    C     0.29273   0.60606   0.46999   0.00000  Uiso   1.00
C58    C     0.27749   0.66007   0.49193   0.00000  Uiso   1.00
C59    C     0.26600   0.76147   0.50852   0.00000  Uiso   1.00
C60    C     0.21355   0.47589   0.58359   0.00000  Uiso   1.00
C61    C     0.29678   0.40848   0.60820   0.00000  Uiso   1.00
C62    C     0.33480   0.34837   0.67479   0.00000  Uiso   1.00
C63    C     0.41086   0.29225   0.68690   0.00000  Uiso   1.00
C64    C     0.15670   0.48004   0.52099   0.00000  Uiso   1.00
C65    C     0.07693   0.48011   0.51425   0.00000  Uiso   1.00
C66    C     0.03506   0.48425   0.45294   0.00000  Uiso   1.00
C67    C     0.23340   0.54410   0.55519   0.00000  Uiso   1.00
C68    C     0.21811   0.59804   0.57717   0.00000  Uiso   1.00
C69    C     0.24078   0.65613   0.54464   0.00000  Uiso   1.00
H70    H     0.30953   0.48619   0.44575   0.00000  Uiso   1.00
H71    H     0.43777   0.35943   0.52687   0.00000  Uiso   1.00
H72    H     0.17994   0.49117   0.36636   0.00000  Uiso   1.00
H73    H     0.32109   0.60908   0.42927   0.00000  Uiso   1.00
H74    H     0.56376   0.21716   0.64000   0.00000  Uiso   1.00
H75    H     0.02011   0.49495   0.30154   0.00000  Uiso   1.00
H76    H     0.31775   0.74359   0.43421   0.00000  Uiso   1.00
H77    H     0.18502   0.47283   0.62456   0.00000  Uiso   1.00
H78    H     0.30643   0.34534   0.71549   0.00000  Uiso   1.00
H79    H     0.04860   0.47708   0.55497   0.00000  Uiso   1.00
H80    H     0.18975   0.59499   0.61789   0.00000  Uiso   1.00
H81    H     0.45716   0.20572   0.79310   0.00000  Uiso   1.00
H82    H     0.91350   0.48352   0.45463   0.00000  Uiso   1.00
H83    H     0.21115   0.73215   0.58730   0.00000  Uiso   1.00
O84    O     0.59256   0.12780   0.77314   0.00000  Uiso   1.00
O85    O     0.87930   0.49227   0.32908   0.00000  Uiso   1.00
O86    O     0.26980   0.81848   0.50315   0.00000  Uiso   1.00
N87    N     0.52202   0.23197   0.66356   0.00000  Uiso   1.00
N88    N     0.01374   0.49168   0.34712   0.00000  Uiso   1.00
N89    N     0.29199   0.72415   0.47114   0.00000  Uiso   1.00
N90    N     0.46466   0.22581   0.74594   0.00000  Uiso   1.00
N91    N     0.95638   0.48552   0.42950   0.00000  Uiso   1.00
N92    N     0.23463   0.71799   0.55352   0.00000  Uiso   1.00
C93    C     0.72441   0.03781   0.09701   0.00000  Uiso   1.00
C94    C     0.67251   0.12118   0.04939   0.00000  Uiso   1.00
C95    C     0.63505   0.17316   0.07041   0.00000  Uiso   1.00
C96    C     0.59019   0.24674   0.01888   0.00000  Uiso   1.00
C97    C     0.51064   0.37302   0.95559   0.00000  Uiso   1.00
C98    C     0.68182   0.99871   0.06833   0.00000  Uiso   1.00
C99    C     0.65220   0.94772   0.10528   0.00000  Uiso   1.00
C100   C     0.61518   0.91820   0.06969   0.00000  Uiso   1.00
C101   C     0.55015   0.85431   0.03583   0.00000  Uiso   1.00
C102   C     0.80994   0.01974   0.08496   0.00000  Uiso   1.00
C103   C     0.88805   0.98641   0.13589   0.00000  Uiso   1.00
C104   C     0.95891   0.97458   0.11431   0.00000  Uiso   1.00
C105   C     0.09281   0.94335   0.10625   0.00000  Uiso   1.00
C106   C     0.71136   0.07605   0.96810   0.00000  Uiso   1.00
C107   C     0.66542   0.14195   0.97938   0.00000  Uiso   1.00
C108   C     0.62061   0.21547   0.92780   0.00000  Uiso   1.00
C109   C     0.58309   0.26755   0.94874   0.00000  Uiso   1.00
C110   C     0.67473   0.01948   0.99832   0.00000  Uiso   1.00
C111   C     0.63776   0.99003   0.96267   0.00000  Uiso   1.00
C112   C     0.60808   0.93900   0.99955   0.00000  Uiso   1.00
C113   C     0.80286   0.04051   0.01494   0.00000  Uiso   1.00
C114   C     0.87361   0.02873   0.99327   0.00000  Uiso   1.00
C115   C     0.95181   0.99539   0.04416   0.00000  Uiso   1.00
H116   H     0.72993   0.02163   0.15152   0.00000  Uiso   1.00
H117   H     0.64054   0.15706   0.12460   0.00000  Uiso   1.00
H118   H     0.65770   0.93165   0.15947   0.00000  Uiso   1.00
H119   H     0.89351   0.97034   0.19007   0.00000  Uiso   1.00
H120   H     0.53829   0.31636   0.06388   0.00000  Uiso   1.00
H121   H     0.57449   0.84105   0.13740   0.00000  Uiso   1.00
H122   H     0.07176   0.92264   0.20194   0.00000  Uiso   1.00
H123   H     0.70584   0.09222   0.91359   0.00000  Uiso   1.00
H124   H     0.61513   0.23153   0.87362   0.00000  Uiso   1.00
H125   H     0.63229   0.00611   0.90849   0.00000  Uiso   1.00
H126   H     0.86810   0.04481   0.93909   0.00000  Uiso   1.00
H127   H     0.51766   0.37680   0.86018   0.00000  Uiso   1.00
H128   H     0.55387   0.90148   0.93370   0.00000  Uiso   1.00
H129   H     0.05113   0.98308   0.99823   0.00000  Uiso   1.00
O130   O     0.46872   0.43694   0.94002   0.00000  Uiso   1.00
O131   O     0.51623   0.81334   0.03649   0.00000  Uiso   1.00
O132   O     0.16863   0.92039   0.12115   0.00000  Uiso   1.00
N133   N     0.54590   0.31147   0.02143   0.00000  Uiso   1.00
N134   N     0.57973   0.86709   0.09016   0.00000  Uiso   1.00
N135   N     0.04464   0.94335   0.15050   0.00000  Uiso   1.00
N136   N     0.53480   0.34399   0.91181   0.00000  Uiso   1.00
N137   N     0.56863   0.89961   0.98055   0.00000  Uiso   1.00
N138   N     0.03354   0.97587   0.04089   0.00000  Uiso   1.00
C139   C     0.17393   0.13872   0.39726   0.00000  Uiso   1.00
C140   C     0.08583   0.20201   0.35719   0.00000  Uiso   1.00
C141   C     0.04167   0.22950   0.28770   0.00000  Uiso   1.00
C142   C     0.96188   0.28759   0.26068   0.00000  Uiso   1.00
C143   C     0.83029   0.38135   0.19222   0.00000  Uiso   1.00
C144   C     0.16510   0.08081   0.46008   0.00000  Uiso   1.00
C145   C     0.18760   0.00638   0.47711   0.00000  Uiso   1.00
C146   C     0.17456   0.96244   0.53671   0.00000  Uiso   1.00
C147   C     0.16609   0.86801   0.62802   0.00000  Uiso   1.00
C148   C     0.22756   0.17056   0.42631   0.00000  Uiso   1.00
C149   C     0.30261   0.17159   0.41495   0.00000  Uiso   1.00
C150   C     0.34216   0.20320   0.44613   0.00000  Uiso   1.00
C151   C     0.43068   0.24813   0.48500   0.00000  Uiso   1.00
C152   C     0.11076   0.19303   0.47284   0.00000  Uiso   1.00
C153   C     0.05152   0.23151   0.39824   0.00000  Uiso   1.00
C154   C     0.97178   0.28958   0.37132   0.00000  Uiso   1.00
C155   C     0.92751   0.31714   0.30180   0.00000  Uiso   1.00
C156   C     0.13079   0.11030   0.50113   0.00000  Uiso   1.00
C157   C     0.11771   0.06646   0.56073   0.00000  Uiso   1.00
C158   C     0.14018   0.99199   0.57784   0.00000  Uiso   1.00
C159   C     0.19325   0.20006   0.46736   0.00000  Uiso   1.00
C160   C     0.23271   0.23167   0.49857   0.00000  Uiso   1.00
C161   C     0.30779   0.23275   0.48726   0.00000  Uiso   1.00
H162   H     0.20064   0.11576   0.36530   0.00000  Uiso   1.00
H163   H     0.06824   0.20665   0.25595   0.00000  Uiso   1.00
H164   H     0.21416   0.98357   0.44533   0.00000  Uiso   1.00
H165   H     0.32914   0.14875   0.38318   0.00000  Uiso   1.00
H166   H     0.90631   0.32041   0.15282   0.00000  Uiso   1.00
H167   H     0.21401   0.85002   0.55216   0.00000  Uiso   1.00
H168   H     0.45647   0.19835   0.42110   0.00000  Uiso   1.00
H169   H     0.08404   0.21599   0.50480   0.00000  Uiso   1.00
H170   H     0.94524   0.31239   0.40310   0.00000  Uiso   1.00
H171   H     0.09116   0.08930   0.59248   0.00000  Uiso   1.00
H172   H     0.20614   0.25449   0.53033   0.00000  Uiso   1.00
H173   H     0.80648   0.40623   0.27226   0.00000  Uiso   1.00
H174   H     0.11418   0.93584   0.67159   0.00000  Uiso   1.00
H175   H     0.35664   0.28417   0.54054   0.00000  Uiso   1.00
O176   O     0.76718   0.42491   0.14313   0.00000  Uiso   1.00
O177   O     0.17089   0.80777   0.66704   0.00000  Uiso   1.00
O178   O     0.48898   0.26478   0.49510   0.00000  Uiso   1.00
N179   N     0.90187   0.32739   0.19489   0.00000  Uiso   1.00
N180   N     0.18954   0.88761   0.56823   0.00000  Uiso   1.00
N181   N     0.41623   0.21325   0.44572   0.00000  Uiso   1.00
N182   N     0.84815   0.37357   0.25915   0.00000  Uiso   1.00
N183   N     0.13582   0.93379   0.63250   0.00000  Uiso   1.00
N184   N     0.36251   0.25943   0.50999   0.00000  Uiso   1.00
C185   C     0.64811   0.55901   0.94855   0.00000  Uiso   1.00
C186   C     0.66589   0.57437   0.01006   0.00000  Uiso   1.00
C187   C     0.61078   0.58778   0.04666   0.00000  Uiso   1.00
C188   C     0.63889   0.60061   0.10130   0.00000  Uiso   1.00
C189   C     0.65429   0.62452   0.19421   0.00000  Uiso   1.00
C190   C     0.71924   0.48439   0.96865   0.00000  Uiso   1.00
C191   C     0.70899   0.42215   0.97042   0.00000  Uiso   1.00
C192   C     0.78201   0.35923   0.99018   0.00000  Uiso   1.00
C193   C     0.88023   0.24346   0.01874   0.00000  Uiso   1.00
C194   C     0.66057   0.61752   0.88882   0.00000  Uiso   1.00
C195   C     0.60099   0.66722   0.82345   0.00000  Uiso   1.00
C196   C     0.62462   0.71638   0.77600   0.00000  Uiso   1.00
C197   C     0.63175   0.80732   0.68060   0.00000  Uiso   1.00
C198   C     0.79602   0.55794   0.98049   0.00000  Uiso   1.00
C199   C     0.74623   0.57379   0.02741   0.00000  Uiso   1.00
C200   C     0.77443   0.58660   0.08200   0.00000  Uiso   1.00
C201   C     0.71937   0.60003   0.11868   0.00000  Uiso   1.00
C202   C     0.79958   0.48381   0.98600   0.00000  Uiso   1.00
C203   C     0.87263   0.42097   0.00576   0.00000  Uiso   1.00
C204   C     0.86249   0.35865   0.00756   0.00000  Uiso   1.00
C205   C     0.74091   0.61695   0.90616   0.00000  Uiso   1.00
C206   C     0.76464   0.66604   0.85880   0.00000  Uiso   1.00
C207   C     0.70511   0.71580   0.79338   0.00000  Uiso   1.00
H208   H     0.58557   0.55945   0.93504   0.00000  Uiso   1.00
H209   H     0.54862   0.58822   0.03323   0.00000  Uiso   1.00
H210   H     0.64681   0.42262   0.95698   0.00000  Uiso   1.00
H211   H     0.53883   0.66765   0.81005   0.00000  Uiso   1.00
H212   H     0.54310   0.61983   0.14975   0.00000  Uiso   1.00
H213   H     0.75013   0.27065   0.98897   0.00000  Uiso   1.00
H214   H     0.52243   0.78735   0.67912   0.00000  Uiso   1.00
H215   H     0.85858   0.55749   0.99399   0.00000  Uiso   1.00
H216   H     0.83661   0.58615   0.09542   0.00000  Uiso   1.00
H217   H     0.93479   0.42054   0.01917   0.00000  Uiso   1.00
H218   H     0.82682   0.66558   0.87224   0.00000  Uiso   1.00
H219   H     0.77684   0.61815   0.20023   0.00000  Uiso   1.00
H220   H     0.98387   0.26897   0.03944   0.00000  Uiso   1.00
H221   H     0.75618   0.78567   0.72960   0.00000  Uiso   1.00
O222   O     0.64060   0.63785   0.24066   0.00000  Uiso   1.00
O223   O     0.91221   0.17975   0.02970   0.00000  Uiso   1.00
O224   O     0.61348   0.85765   0.62320   0.00000  Uiso   1.00
N225   N     0.60112   0.61551   0.14771   0.00000  Uiso   1.00
N226   N     0.79468   0.28905   0.99739   0.00000  Uiso   1.00
N227   N     0.58181   0.77210   0.70770   0.00000  Uiso   1.00
N228   N     0.72689   0.61461   0.17487   0.00000  Uiso   1.00
N229   N     0.92045   0.28815   0.02455   0.00000  Uiso   1.00
N230   N     0.70759   0.77120   0.73487   0.00000  Uiso   1.00
C231   C     0.73650   0.61491   0.59360   0.00000  Uiso   1.00
C232   C     0.77580   0.55154   0.57712   0.00000  Uiso   1.00
C233   C     0.85725   0.49563   0.61138   0.00000  Uiso   1.00
C234   C     0.88126   0.44277   0.58849   0.00000  Uiso   1.00
C235   C     0.95073   0.34390   0.57132   0.00000  Uiso   1.00
C236   C     0.65610   0.61009   0.60816   0.00000  Uiso   1.00
C237   C     0.63691   0.60341   0.66850   0.00000  Uiso   1.00
C238   C     0.56015   0.59984   0.67173   0.00000  Uiso   1.00
C239   C     0.44376   0.59191   0.70271   0.00000  Uiso   1.00
C240   C     0.70755   0.68690   0.52594   0.00000  Uiso   1.00
C241   C     0.73158   0.74482   0.51716   0.00000  Uiso   1.00
C242   C     0.69812   0.80592   0.45118   0.00000  Uiso   1.00
C243   C     0.66159   0.91726   0.35451   0.00000  Uiso   1.00
C244   C     0.63430   0.62046   0.49205   0.00000  Uiso   1.00
C245   C     0.72029   0.55456   0.52197   0.00000  Uiso   1.00
C246   C     0.74419   0.50177   0.49902   0.00000  Uiso   1.00
C247   C     0.82566   0.44579   0.53323   0.00000  Uiso   1.00
C248   C     0.60060   0.61310   0.55300   0.00000  Uiso   1.00
C249   C     0.52385   0.60955   0.55614   0.00000  Uiso   1.00
C250   C     0.50455   0.60286   0.61647   0.00000  Uiso   1.00
C251   C     0.65204   0.68991   0.47078   0.00000  Uiso   1.00
C252   C     0.61853   0.75095   0.40480   0.00000  Uiso   1.00
C253   C     0.64251   0.80894   0.39592   0.00000  Uiso   1.00
H254   H     0.77970   0.61257   0.63655   0.00000  Uiso   1.00
H255   H     0.90018   0.49332   0.65407   0.00000  Uiso   1.00
H256   H     0.67987   0.60109   0.71117   0.00000  Uiso   1.00
H257   H     0.77454   0.74246   0.55986   0.00000  Uiso   1.00
H258   H     0.00927   0.36242   0.64918   0.00000  Uiso   1.00
H259   H     0.54472   0.58968   0.76958   0.00000  Uiso   1.00
H260   H     0.74434   0.88781   0.45050   0.00000  Uiso   1.00
H261   H     0.59109   0.62280   0.44911   0.00000  Uiso   1.00
H262   H     0.70122   0.50411   0.45634   0.00000  Uiso   1.00
H263   H     0.48091   0.61188   0.51345   0.00000  Uiso   1.00
H264   H     0.57557   0.75326   0.36213   0.00000  Uiso   1.00
H265   H     0.84778   0.37118   0.48870   0.00000  Uiso   1.00
H266   H     0.38323   0.59845   0.60910   0.00000  Uiso   1.00
H267   H     0.58285   0.89657   0.29002   0.00000  Uiso   1.00
O268   O     0.00437   0.28852   0.57709   0.00000  Uiso   1.00
O269   O     0.39489   0.58670   0.73505   0.00000  Uiso   1.00
O270   O     0.65679   0.97783   0.31642   0.00000  Uiso   1.00
N271   N     0.95616   0.38078   0.61041   0.00000  Uiso   1.00
N272   N     0.52184   0.59324   0.72298   0.00000  Uiso   1.00
N273   N     0.70844   0.87198   0.42467   0.00000  Uiso   1.00
N274   N     0.86926   0.38549   0.52405   0.00000  Uiso   1.00
N275   N     0.43494   0.59796   0.63663   0.00000  Uiso   1.00
N276   N     0.62155   0.87669   0.33832   0.00000  Uiso   1.00
C277   C     0.02504   0.86359   0.37878   0.00000  Uiso   1.00
C278   C     0.98520   0.87840   0.43114   0.00000  Uiso   1.00
C279   C     0.02523   0.84493   0.50237   0.00000  Uiso   1.00
C280   C     0.97791   0.86602   0.54136   0.00000  Uiso   1.00
C281   C     0.92888   0.88104   0.62741   0.00000  Uiso   1.00
C282   C     0.01510   0.93916   0.32435   0.00000  Uiso   1.00
C283   C     0.08026   0.95678   0.30578   0.00000  Uiso   1.00
C284   C     0.05810   0.02901   0.25485   0.00000  Uiso   1.00
C285   C     0.05548   0.13835   0.17506   0.00000  Uiso   1.00
C286   C     0.96846   0.83966   0.34149   0.00000  Uiso   1.00
C287   C     0.99442   0.77362   0.33731   0.00000  Uiso   1.00
C288   C     0.93300   0.76209   0.30080   0.00000  Uiso   1.00
C289   C     0.85798   0.71693   0.24762   0.00000  Uiso   1.00
C290   C     0.86982   0.96056   0.32135   0.00000  Uiso   1.00
C291   C     0.90089   0.93107   0.39995   0.00000  Uiso   1.00
C292   C     0.85350   0.95222   0.43883   0.00000  Uiso   1.00
C293   C     0.89345   0.91879   0.51011   0.00000  Uiso   1.00
C294   C     0.93079   0.99183   0.29315   0.00000  Uiso   1.00
C295   C     0.90853   0.06406   0.24224   0.00000  Uiso   1.00
C296   C     0.97364   0.08178   0.22360   0.00000  Uiso   1.00
C297   C     0.88415   0.89233   0.31029   0.00000  Uiso   1.00
C298   C     0.82268   0.88090   0.27377   0.00000  Uiso   1.00
C299   C     0.84854   0.81485   0.26955   0.00000  Uiso   1.00
H300   H     0.09068   0.82259   0.40306   0.00000  Uiso   1.00
H301   H     0.09048   0.80418   0.52650   0.00000  Uiso   1.00
H302   H     0.14550   0.91600   0.32992   0.00000  Uiso   1.00
H303   H     0.05967   0.73287   0.36146   0.00000  Uiso   1.00
H304   H     0.05308   0.80702   0.64958   0.00000  Uiso   1.00
H305   H     0.16909   0.04280   0.23509   0.00000  Uiso   1.00
H306   H     0.98810   0.65663   0.30157   0.00000  Uiso   1.00
H307   H     0.80418   0.00157   0.29706   0.00000  Uiso   1.00
H308   H     0.78825   0.99298   0.41468   0.00000  Uiso   1.00
H309   H     0.84328   0.10480   0.21811   0.00000  Uiso   1.00
H310   H     0.75745   0.92167   0.24964   0.00000  Uiso   1.00
H311   H     0.80779   0.96026   0.55883   0.00000  Uiso   1.00
H312   H     0.92380   0.19604   0.14433   0.00000  Uiso   1.00
H313   H     0.74281   0.80987   0.21082   0.00000  Uiso   1.00
O314   O     0.92514   0.87478   0.68349   0.00000  Uiso   1.00
O315   O     0.07734   0.18410   0.13968   0.00000  Uiso   1.00
O316   O     0.83988   0.67746   0.22691   0.00000  Uiso   1.00
N317   N     0.99753   0.84425   0.61209   0.00000  Uiso   1.00
N318   N     0.10600   0.06469   0.22456   0.00000  Uiso   1.00
N319   N     0.93679   0.70367   0.28671   0.00000  Uiso   1.00
N320   N     0.86554   0.92671   0.56325   0.00000  Uiso   1.00
N321   N     0.97401   0.14715   0.17573   0.00000  Uiso   1.00
N322   N     0.80480   0.78613   0.23787   0.00000  Uiso   1.00
C323   C     0.79486   0.15990   0.79908   0.00000  Uiso   1.00
C324   C     0.74488   0.22574   0.72657   0.00000  Uiso   1.00
C325   C     0.66825   0.28426   0.70884   0.00000  Uiso   1.00
C326   C     0.63268   0.33911   0.63970   0.00000  Uiso   1.00
C327   C     0.54906   0.44191   0.53465   0.00000  Uiso   1.00
C328   C     0.88244   0.15936   0.81687   0.00000  Uiso   1.00
C329   C     0.92146   0.16206   0.87507   0.00000  Uiso   1.00
C330   C     0.00169   0.16101   0.88193   0.00000  Uiso   1.00
C331   C     0.13166   0.16071   0.91711   0.00000  Uiso   1.00
C332   C     0.80735   0.09003   0.79125   0.00000  Uiso   1.00
C333   C     0.78325   0.03442   0.82793   0.00000  Uiso   1.00
C334   C     0.80028   0.97500   0.81324   0.00000  Uiso   1.00
C335   C     0.81365   0.86705   0.80864   0.00000  Uiso   1.00
C336   C     0.86796   0.15323   0.70779   0.00000  Uiso   1.00
C337   C     0.78459   0.22212   0.67699   0.00000  Uiso   1.00
C338   C     0.74912   0.27689   0.60785   0.00000  Uiso   1.00
C339   C     0.67245   0.33548   0.59002   0.00000  Uiso   1.00
C340   C     0.92215   0.15574   0.76729   0.00000  Uiso   1.00
C341   C     0.00234   0.15468   0.77407   0.00000  Uiso   1.00
C342   C     0.04147   0.15739   0.83226   0.00000  Uiso   1.00
C343   C     0.84705   0.08641   0.74167   0.00000  Uiso   1.00
C344   C     0.86412   0.02706   0.72692   0.00000  Uiso   1.00
C345   C     0.84005   0.97137   0.76356   0.00000  Uiso   1.00
H346   H     0.76395   0.16272   0.83769   0.00000  Uiso   1.00
H347   H     0.63755   0.28705   0.74723   0.00000  Uiso   1.00
H348   H     0.89072   0.16485   0.91343   0.00000  Uiso   1.00
H349   H     0.75253   0.03725   0.86629   0.00000  Uiso   1.00
H350   H     0.51493   0.42331   0.62509   0.00000  Uiso   1.00
H351   H     0.04877   0.16563   0.97554   0.00000  Uiso   1.00
H352   H     0.75737   0.89654   0.87614   0.00000  Uiso   1.00
H353   H     0.89887   0.15041   0.66919   0.00000  Uiso   1.00
H354   H     0.77987   0.27407   0.56949   0.00000  Uiso   1.00
H355   H     0.03304   0.15188   0.73569   0.00000  Uiso   1.00
H356   H     0.89485   0.02427   0.68855   0.00000  Uiso   1.00
H357   H     0.63044   0.41278   0.48082   0.00000  Uiso   1.00
H358   H     0.16429   0.15510   0.83128   0.00000  Uiso   1.00
H359   H     0.87288   0.88601   0.73188   0.00000  Uiso   1.00
O360   O     0.49198   0.49963   0.49041   0.00000  Uiso   1.00
O361   O     0.19237   0.16155   0.95020   0.00000  Uiso   1.00
O362   O     0.81005   0.80851   0.81979   0.00000  Uiso   1.00
N363   N     0.55844   0.40385   0.60482   0.00000  Uiso   1.00
N364   N     0.05755   0.16295   0.93246   0.00000  Uiso   1.00
N365   N     0.78513   0.91137   0.83955   0.00000  Uiso   1.00
N366   N     0.62059   0.39819   0.52719   0.00000  Uiso   1.00
N367   N     0.11970   0.15728   0.85484   0.00000  Uiso   1.00
N368   N     0.84728   0.90570   0.76192   0.00000  Uiso   1.00
C369   C     0.30151   0.72267   0.12110   0.00000  Uiso   1.00
C370   C     0.34776   0.63964   0.17238   0.00000  Uiso   1.00
C371   C     0.39541   0.58477   0.15831   0.00000  Uiso   1.00
C372   C     0.43272   0.51207   0.21221   0.00000  Uiso   1.00
C373   C     0.50609   0.38576   0.28188   0.00000  Uiso   1.00
C374   C     0.33490   0.76235   0.15554   0.00000  Uiso   1.00
C375   C     0.37173   0.81067   0.12730   0.00000  Uiso   1.00
C376   C     0.39820   0.84128   0.16703   0.00000  Uiso   1.00
C377   C     0.45155   0.90553   0.21052   0.00000  Uiso   1.00
C378   C     0.20921   0.74440   0.11811   0.00000  Uiso   1.00
C379   C     0.14035   0.77764   0.05841   0.00000  Uiso   1.00
C380   C     0.06099   0.79315   0.06662   0.00000  Uiso   1.00
C381   C     0.91919   0.82952   0.05200   0.00000  Uiso   1.00
C382   C     0.28301   0.69113   0.24184   0.00000  Uiso   1.00
C383   C     0.33771   0.62251   0.23796   0.00000  Uiso   1.00
C384   C     0.37495   0.54988   0.29190   0.00000  Uiso   1.00
C385   C     0.42265   0.49491   0.27791   0.00000  Uiso   1.00
C386   C     0.32485   0.74523   0.22112   0.00000  Uiso   1.00
C387   C     0.35126   0.77578   0.26089   0.00000  Uiso   1.00
C388   C     0.38813   0.82412   0.23273   0.00000  Uiso   1.00
C389   C     0.19916   0.72727   0.18369   0.00000  Uiso   1.00
C390   C     0.11989   0.74274   0.19200   0.00000  Uiso   1.00
C391   C     0.05092   0.77599   0.13232   0.00000  Uiso   1.00
H392   H     0.30934   0.73601   0.07004   0.00000  Uiso   1.00
H393   H     0.40318   0.59805   0.10755   0.00000  Uiso   1.00
H394   H     0.37949   0.82392   0.07655   0.00000  Uiso   1.00
H395   H     0.14815   0.79089   0.00766   0.00000  Uiso   1.00
H396   H     0.50282   0.43755   0.17807   0.00000  Uiso   1.00
H397   H     0.45284   0.91383   0.11269   0.00000  Uiso   1.00
H398   H     0.96502   0.84418   0.96743   0.00000  Uiso   1.00
H399   H     0.27519   0.67779   0.29290   0.00000  Uiso   1.00
H400   H     0.36716   0.53664   0.34264   0.00000  Uiso   1.00
H401   H     0.34347   0.76251   0.31164   0.00000  Uiso   1.00
H402   H     0.11213   0.72948   0.24276   0.00000  Uiso   1.00
H403   H     0.47359   0.38770   0.36888   0.00000  Uiso   1.00
H404   H     0.42361   0.86398   0.30350   0.00000  Uiso   1.00
H405   H     0.93578   0.79433   0.15824   0.00000  Uiso   1.00
O406   O     0.54935   0.32082   0.30219   0.00000  Uiso   1.00
O407   O     0.48376   0.94569   0.21640   0.00000  Uiso   1.00
O408   O     0.84375   0.85431   0.02583   0.00000  Uiso   1.00
N409   N     0.48331   0.44519   0.21615   0.00000  Uiso   1.00
N410   N     0.43659   0.89047   0.15502   0.00000  Uiso   1.00
N411   N     0.98051   0.82537   0.01922   0.00000  Uiso   1.00
N412   N     0.46757   0.41836   0.31882   0.00000  Uiso   1.00
N413   N     0.42086   0.86365   0.25770   0.00000  Uiso   1.00
N414   N     0.96478   0.79855   0.12189   0.00000  Uiso   1.00
C415   C     0.93769   0.54276   0.81126   0.00000  Uiso   1.00
C416   C     0.02222   0.49673   0.86989   0.00000  Uiso   1.00
C417   C     0.04815   0.51153   0.92361   0.00000  Uiso   1.00
C418   C     0.12778   0.46275   0.97213   0.00000  Uiso   1.00
C419   C     0.25118   0.40063   0.06392   0.00000  Uiso   1.00
C420   C     0.95898   0.56529   0.74357   0.00000  Uiso   1.00
C421   C     0.93172   0.63773   0.69108   0.00000  Uiso   1.00
C422   C     0.95811   0.64666   0.63327   0.00000  Uiso   1.00
C423   C     0.98327   0.69097   0.52892   0.00000  Uiso   1.00
C424   C     0.89719   0.48887   0.81390   0.00000  Uiso   1.00
C425   C     0.81797   0.49708   0.82053   0.00000  Uiso   1.00
C426   C     0.79234   0.44168   0.82191   0.00000  Uiso   1.00
C427   C     0.72157   0.36735   0.82676   0.00000  Uiso   1.00
C428   C     0.03301   0.42981   0.80190   0.00000  Uiso   1.00
C429   C     0.07400   0.43538   0.86480   0.00000  Uiso   1.00
C430   C     0.15361   0.38657   0.91326   0.00000  Uiso   1.00
C431   C     0.17965   0.40129   0.96704   0.00000  Uiso   1.00
C432   C     0.01075   0.50394   0.73849   0.00000  Uiso   1.00
C433   C     0.03719   0.51277   0.68073   0.00000  Uiso   1.00
C434   C     0.00998   0.58521   0.62817   0.00000  Uiso   1.00
C435   C     0.94897   0.42752   0.80882   0.00000  Uiso   1.00
C436   C     0.92345   0.37211   0.81018   0.00000  Uiso   1.00
C437   C     0.84421   0.38022   0.81681   0.00000  Uiso   1.00
H438   H     0.89737   0.59053   0.81521   0.00000  Uiso   1.00
H439   H     0.00806   0.55901   0.92752   0.00000  Uiso   1.00
H440   H     0.89164   0.68519   0.69503   0.00000  Uiso   1.00
H441   H     0.77792   0.54456   0.82446   0.00000  Uiso   1.00
H442   H     0.15362   0.49704   0.04978   0.00000  Uiso   1.00
H443   H     0.90813   0.76309   0.55955   0.00000  Uiso   1.00
H444   H     0.66832   0.46654   0.83248   0.00000  Uiso   1.00
H445   H     0.07332   0.38205   0.79794   0.00000  Uiso   1.00
H446   H     0.19367   0.33910   0.90931   0.00000  Uiso   1.00
H447   H     0.07725   0.46528   0.67681   0.00000  Uiso   1.00
H448   H     0.96353   0.32464   0.80624   0.00000  Uiso   1.00
H449   H     0.30427   0.31855   0.03500   0.00000  Uiso   1.00
H450   H     0.05877   0.58461   0.54476   0.00000  Uiso   1.00
H451   H     0.81897   0.28805   0.81769   0.00000  Uiso   1.00
O452   O     0.30495   0.38331   0.11595   0.00000  Uiso   1.00
O453   O     0.98285   0.73237   0.47278   0.00000  Uiso   1.00
O454   O     0.66824   0.34329   0.83085   0.00000  Uiso   1.00
N455   N     0.17255   0.46092   0.03103   0.00000  Uiso   1.00
N456   N     0.94304   0.70966   0.57269   0.00000  Uiso   1.00
N457   N     0.71883   0.43242   0.82784   0.00000  Uiso   1.00
N458   N     0.25362   0.36487   0.02307   0.00000  Uiso   1.00
N459   N     0.02411   0.61362   0.56474   0.00000  Uiso   1.00
N460   N     0.79990   0.33638   0.81988   0.00000  Uiso   1.00
C461   C     0.44974   0.11735   0.27952   0.00000  Uiso   1.00
C462   C     0.42582   0.11857   0.20936   0.00000  Uiso   1.00
C463   C     0.47818   0.11297   0.16902   0.00000  Uiso   1.00
C464   C     0.44444   0.11526   0.10645   0.00000  Uiso   1.00
C465   C     0.41992   0.11604   0.00074   0.00000  Uiso   1.00
C466   C     0.38442   0.18913   0.27155   0.00000  Uiso   1.00
C467   C     0.40198   0.24284   0.28351   0.00000  Uiso   1.00
C468   C     0.33339   0.30452   0.27329   0.00000  Uiso   1.00
C469   C     0.24459   0.41482   0.26418   0.00000  Uiso   1.00
C470   C     0.43412   0.05396   0.33066   0.00000  Uiso   1.00
C471   C     0.49347   0.99403   0.39234   0.00000  Uiso   1.00
C472   C     0.46673   0.94192   0.43190   0.00000  Uiso   1.00
C473   C     0.45512   0.84235   0.51458   0.00000  Uiso   1.00
C474   C     0.29671   0.13138   0.24012   0.00000  Uiso   1.00
C475   C     0.34269   0.12620   0.18796   0.00000  Uiso   1.00
C476   C     0.30887   0.12849   0.12543   0.00000  Uiso   1.00
C477   C     0.36117   0.12289   0.08501   0.00000  Uiso   1.00
C478   C     0.30130   0.19675   0.25015   0.00000  Uiso   1.00
C479   C     0.23267   0.25837   0.23992   0.00000  Uiso   1.00
C480   C     0.25011   0.31216   0.25185   0.00000  Uiso   1.00
C481   C     0.35100   0.06158   0.30926   0.00000  Uiso   1.00
C482   C     0.32416   0.00956   0.34874   0.00000  Uiso   1.00
C483   C     0.38346   0.94956   0.41046   0.00000  Uiso   1.00
H484   H     0.51445   0.11142   0.29618   0.00000  Uiso   1.00
H485   H     0.54250   0.10708   0.18560   0.00000  Uiso   1.00
H486   H     0.46631   0.23692   0.30007   0.00000  Uiso   1.00
H487   H     0.55779   0.98816   0.40888   0.00000  Uiso   1.00
H488   H     0.53692   0.10565   0.05354   0.00000  Uiso   1.00
H489   H     0.37627   0.37943   0.29494   0.00000  Uiso   1.00
H490   H     0.56918   0.85485   0.52439   0.00000  Uiso   1.00
H491   H     0.23200   0.13732   0.22346   0.00000  Uiso   1.00
H492   H     0.24454   0.13439   0.10888   0.00000  Uiso   1.00
H493   H     0.16835   0.26424   0.22336   0.00000  Uiso   1.00
H494   H     0.25983   0.01547   0.33217   0.00000  Uiso   1.00
H495   H     0.29509   0.12783   0.99127   0.00000  Uiso   1.00
H496   H     0.13444   0.40161   0.23268   0.00000  Uiso   1.00
H497   H     0.32735   0.87703   0.46212   0.00000  Uiso   1.00
O498   O     0.42935   0.11437   0.94834   0.00000  Uiso   1.00
O499   O     0.21858   0.47355   0.26506   0.00000  Uiso   1.00
O500   O     0.47167   0.78532   0.56608   0.00000  Uiso   1.00
N501   N     0.47829   0.11126   0.05462   0.00000  Uiso   1.00
N502   N     0.32809   0.36723   0.28031   0.00000  Uiso   1.00
N503   N     0.50844   0.87680   0.49483   0.00000  Uiso   1.00
N504   N     0.34816   0.12319   0.02111   0.00000  Uiso   1.00
N505   N     0.19796   0.37916   0.24680   0.00000  Uiso   1.00
N506   N     0.37831   0.88873   0.46132   0.00000  Uiso   1.00
C507   C     0.35546   0.00358   0.66840   0.00000  Uiso   1.00
C508   C     0.32222   0.06314   0.69078   0.00000  Uiso   1.00
C509   C     0.24266   0.12199   0.65954   0.00000  Uiso   1.00
C510   C     0.22436   0.17049   0.68776   0.00000  Uiso   1.00
C511   C     0.16376   0.26451   0.71376   0.00000  Uiso   1.00
C512   C     0.43682   0.00602   0.65427   0.00000  Uiso   1.00
C513   C     0.45360   0.01684   0.59234   0.00000  Uiso   1.00
C514   C     0.53178   0.01725   0.58984   0.00000  Uiso   1.00
C515   C     0.64911   0.02254   0.55917   0.00000  Uiso   1.00
C516   C     0.38203   0.92890   0.73254   0.00000  Uiso   1.00
C517   C     0.35277   0.87487   0.73642   0.00000  Uiso   1.00
C518   C     0.38484   0.81033   0.79981   0.00000  Uiso   1.00
C519   C     0.41711   0.69589   0.89067   0.00000  Uiso   1.00
C520   C     0.46445   0.98505   0.77405   0.00000  Uiso   1.00
C521   C     0.38142   0.05307   0.74816   0.00000  Uiso   1.00
C522   C     0.36324   0.10148   0.77644   0.00000  Uiso   1.00
C523   C     0.28366   0.16040   0.74525   0.00000  Uiso   1.00
C524   C     0.49601   0.99595   0.71165   0.00000  Uiso   1.00
C525   C     0.57418   0.99633   0.70924   0.00000  Uiso   1.00
C526   C     0.59108   0.00716   0.64732   0.00000  Uiso   1.00
C527   C     0.44123   0.91883   0.78993   0.00000  Uiso   1.00
C528   C     0.47335   0.85436   0.85332   0.00000  Uiso   1.00
C529   C     0.44414   0.80025   0.85730   0.00000  Uiso   1.00
H530   H     0.30938   0.01142   0.62372   0.00000  Uiso   1.00
H531   H     0.19687   0.12977   0.61513   0.00000  Uiso   1.00
H532   H     0.40778   0.02462   0.54795   0.00000  Uiso   1.00
H533   H     0.30696   0.88268   0.69200   0.00000  Uiso   1.00
H534   H     0.09825   0.25655   0.63090   0.00000  Uiso   1.00
H535   H     0.54298   0.03483   0.48925   0.00000  Uiso   1.00
H536   H     0.33039   0.73550   0.79302   0.00000  Uiso   1.00
H537   H     0.51054   0.97721   0.81873   0.00000  Uiso   1.00
H538   H     0.40906   0.09368   0.82085   0.00000  Uiso   1.00
H539   H     0.61998   0.98854   0.75366   0.00000  Uiso   1.00
H540   H     0.51916   0.84659   0.89772   0.00000  Uiso   1.00
H541   H     0.27047   0.22726   0.79787   0.00000  Uiso   1.00
H542   H     0.71521   0.00554   0.65621   0.00000  Uiso   1.00
H543   H     0.50262   0.70621   0.95998   0.00000  Uiso   1.00
O544   O     0.11399   0.31916   0.71224   0.00000  Uiso   1.00
O545   O     0.69747   0.02825   0.52640   0.00000  Uiso   1.00
O546   O     0.41855   0.63555   0.92494   0.00000  Uiso   1.00
N547   N     0.15270   0.23367   0.66991   0.00000  Uiso   1.00
N548   N     0.56850   0.02638   0.53747   0.00000  Uiso   1.00
N549   N     0.36976   0.74653   0.82147   0.00000  Uiso   1.00
N550   N     0.24537   0.21791   0.75976   0.00000  Uiso   1.00
N551   N     0.66117   0.01062   0.62732   0.00000  Uiso   1.00
N552   N     0.46243   0.73077   0.91131   0.00000  Uiso   1.00
