data_job_05884
_audit_creation_date              2018-12-19
_audit_creation_method            'Materials Studio'
_symmetry_space_group_name_H-M    'P1'
_symmetry_Int_Tables_number       1
_symmetry_cell_setting            triclinic
loop_
_symmetry_equiv_pos_as_xyz
  x,y,z
_cell_length_a                    9.3053
_cell_length_b                    22.8375
_cell_length_c                    29.7405
_cell_angle_alpha                 90.0000
_cell_angle_beta                  90.9522
_cell_angle_gamma                 90.0000
loop_
_atom_site_label
_atom_site_type_symbol
_atom_site_fract_x
_atom_site_fract_y
_atom_site_fract_z
_atom_site_U_iso_or_equiv
_atom_site_adp_type
_atom_site_occupancy
C1     C     0.64679   0.62889   0.11125   0.00000  Uiso   1.00
C2     C     0.61114   0.59638   0.15444   0.00000  Uiso   1.00
C3     C     0.51592   0.54990   0.15797   0.00000  Uiso   1.00
C4     C     0.49813   0.52614   0.20048   0.00000  Uiso   1.00
C5     C     0.43135   0.47234   0.26183   0.00000  Uiso   1.00
C6     C     0.61417   0.69325   0.12015   0.00000  Uiso   1.00
C7     C     0.52151   0.72821   0.09484   0.00000  Uiso   1.00
C8     C     0.50628   0.78599   0.10849   0.00000  Uiso   1.00
C9     C     0.44428   0.88260   0.11659   0.00000  Uiso   1.00
C10    C     0.80942   0.62475   0.10660   0.00000  Uiso   1.00
C11    C     0.88094   0.60213   0.06988   0.00000  Uiso   1.00
C12    C     0.03010   0.60225   0.07211   0.00000  Uiso   1.00
C13    C     0.27125   0.59250   0.05916   0.00000  Uiso   1.00
C14    C     0.78452   0.66933   0.18048   0.00000  Uiso   1.00
C15    C     0.68595   0.61835   0.19205   0.00000  Uiso   1.00
C16    C     0.66830   0.59465   0.23457   0.00000  Uiso   1.00
C17    C     0.57307   0.54814   0.23815   0.00000  Uiso   1.00
C18    C     0.68897   0.71522   0.15776   0.00000  Uiso   1.00
C19    C     0.67389   0.77296   0.17144   0.00000  Uiso   1.00
C20    C     0.58122   0.80800   0.14616   0.00000  Uiso   1.00
C21    C     0.88423   0.64671   0.14420   0.00000  Uiso   1.00
C22    C     0.03331   0.64687   0.14648   0.00000  Uiso   1.00
C23    C     0.10504   0.62426   0.10978   0.00000  Uiso   1.00
H24    H     0.58855   0.61179   0.08197   0.00000  Uiso   1.00
H25    H     0.45804   0.53292   0.12885   0.00000  Uiso   1.00
H26    H     0.46364   0.71120   0.06574   0.00000  Uiso   1.00
H27    H     0.82301   0.58514   0.04079   0.00000  Uiso   1.00
H28    H     0.34630   0.45518   0.19742   0.00000  Uiso   1.00
H29    H     0.35815   0.83111   0.06433   0.00000  Uiso   1.00
H30    H     0.11595   0.56527   0.01171   0.00000  Uiso   1.00
H31    H     0.84276   0.68643   0.20976   0.00000  Uiso   1.00
H32    H     0.72621   0.61166   0.26366   0.00000  Uiso   1.00
H33    H     0.73180   0.78994   0.20054   0.00000  Uiso   1.00
H34    H     0.09117   0.66388   0.17559   0.00000  Uiso   1.00
H35    H     0.56395   0.51909   0.30684   0.00000  Uiso   1.00
H36    H     0.57580   0.89501   0.17374   0.00000  Uiso   1.00
H37    H     0.33360   0.62918   0.12112   0.00000  Uiso   1.00
O38    O     0.37383   0.43661   0.28528   0.00000  Uiso   1.00
O39    O     0.38940   0.92981   0.11066   0.00000  Uiso   1.00
O40    O     0.38360   0.58104   0.04163   0.00000  Uiso   1.00
N41    N     0.41354   0.48048   0.21578   0.00000  Uiso   1.00
N42    N     0.42460   0.83194   0.09135   0.00000  Uiso   1.00
N43    N     0.13308   0.58342   0.04214   0.00000  Uiso   1.00
N44    N     0.53066   0.51486   0.27465   0.00000  Uiso   1.00
N45    N     0.54172   0.86633   0.15022   0.00000  Uiso   1.00
N46    N     0.25020   0.61781   0.10102   0.00000  Uiso   1.00
C47    C     0.83275   0.39406   0.11103   0.00000  Uiso   1.00
C48    C     0.87107   0.42549   0.15485   0.00000  Uiso   1.00
C49    C     0.96521   0.47233   0.15938   0.00000  Uiso   1.00
C50    C     0.98589   0.49496   0.20233   0.00000  Uiso   1.00
C51    C     0.05625   0.54732   0.26473   0.00000  Uiso   1.00
C52    C     0.86803   0.32962   0.11892   0.00000  Uiso   1.00
C53    C     0.95960   0.29586   0.09322   0.00000  Uiso   1.00
C54    C     0.97770   0.23779   0.10592   0.00000  Uiso   1.00
C55    C     0.04325   0.14129   0.11251   0.00000  Uiso   1.00
C56    C     0.66960   0.39751   0.10609   0.00000  Uiso   1.00
C57    C     0.59432   0.42081   0.06960   0.00000  Uiso   1.00
C58    C     0.44534   0.41988   0.07150   0.00000  Uiso   1.00
C59    C     0.20280   0.42879   0.05818   0.00000  Uiso   1.00
C60    C     0.70206   0.35095   0.17926   0.00000  Uiso   1.00
C61    C     0.80009   0.40208   0.19191   0.00000  Uiso   1.00
C62    C     0.82062   0.42465   0.23487   0.00000  Uiso   1.00
C63    C     0.91477   0.47151   0.23945   0.00000  Uiso   1.00
C64    C     0.79705   0.30621   0.15598   0.00000  Uiso   1.00
C65    C     0.81501   0.24817   0.16871   0.00000  Uiso   1.00
C66    C     0.90658   0.21433   0.14305   0.00000  Uiso   1.00
C67    C     0.59861   0.37410   0.14315   0.00000  Uiso   1.00
C68    C     0.44973   0.37313   0.14510   0.00000  Uiso   1.00
C69    C     0.37423   0.39643   0.10863   0.00000  Uiso   1.00
H70    H     0.88802   0.41228   0.08218   0.00000  Uiso   1.00
H71    H     0.02014   0.49043   0.13069   0.00000  Uiso   1.00
H72    H     0.01451   0.31399   0.06454   0.00000  Uiso   1.00
H73    H     0.64929   0.43892   0.04093   0.00000  Uiso   1.00
H74    H     0.13535   0.56675   0.20082   0.00000  Uiso   1.00
H75    H     0.12344   0.19469   0.06133   0.00000  Uiso   1.00
H76    H     0.35330   0.45814   0.01154   0.00000  Uiso   1.00
H77    H     0.64679   0.33272   0.20812   0.00000  Uiso   1.00
H78    H     0.76567   0.40652   0.26354   0.00000  Uiso   1.00
H79    H     0.76005   0.23007   0.19739   0.00000  Uiso   1.00
H80    H     0.39483   0.35501   0.17378   0.00000  Uiso   1.00
H81    H     0.92882   0.49864   0.30864   0.00000  Uiso   1.00
H82    H     0.91691   0.12658   0.16916   0.00000  Uiso   1.00
H83    H     0.14677   0.39003   0.11937   0.00000  Uiso   1.00
O84    O     0.11468   0.58266   0.28892   0.00000  Uiso   1.00
O85    O     0.09904   0.09454   0.10592   0.00000  Uiso   1.00
O86    O     0.08863   0.44018   0.04060   0.00000  Uiso   1.00
N87    N     0.07041   0.54060   0.21859   0.00000  Uiso   1.00
N88    N     0.05929   0.19275   0.08818   0.00000  Uiso   1.00
N89    N     0.33927   0.43904   0.04163   0.00000  Uiso   1.00
N90    N     0.95927   0.50395   0.27661   0.00000  Uiso   1.00
N91    N     0.94816   0.15610   0.14620   0.00000  Uiso   1.00
N92    N     0.22814   0.40239   0.09965   0.00000  Uiso   1.00
C93    C     0.35321   0.12889   0.38875   0.00000  Uiso   1.00
C94    C     0.38886   0.09638   0.34556   0.00000  Uiso   1.00
C95    C     0.48408   0.04990   0.34203   0.00000  Uiso   1.00
C96    C     0.50187   0.02614   0.29952   0.00000  Uiso   1.00
C97    C     0.56865   0.97234   0.23817   0.00000  Uiso   1.00
C98    C     0.38583   0.19325   0.37985   0.00000  Uiso   1.00
C99    C     0.47849   0.22821   0.40516   0.00000  Uiso   1.00
C100   C     0.49372   0.28599   0.39151   0.00000  Uiso   1.00
C101   C     0.55572   0.38260   0.38341   0.00000  Uiso   1.00
C102   C     0.19058   0.12475   0.39340   0.00000  Uiso   1.00
C103   C     0.11906   0.10213   0.43012   0.00000  Uiso   1.00
C104   C     0.96990   0.10225   0.42789   0.00000  Uiso   1.00
C105   C     0.72875   0.09250   0.44084   0.00000  Uiso   1.00
C106   C     0.21548   0.16933   0.31952   0.00000  Uiso   1.00
C107   C     0.31405   0.11835   0.30795   0.00000  Uiso   1.00
C108   C     0.33170   0.09465   0.26543   0.00000  Uiso   1.00
C109   C     0.42693   0.04814   0.26185   0.00000  Uiso   1.00
C110   C     0.31103   0.21522   0.34224   0.00000  Uiso   1.00
C111   C     0.32611   0.27296   0.32856   0.00000  Uiso   1.00
C112   C     0.41878   0.30800   0.35384   0.00000  Uiso   1.00
C113   C     0.11577   0.14671   0.35580   0.00000  Uiso   1.00
C114   C     0.96669   0.14687   0.35352   0.00000  Uiso   1.00
C115   C     0.89496   0.12426   0.39022   0.00000  Uiso   1.00
H116   H     0.41145   0.11179   0.41803   0.00000  Uiso   1.00
H117   H     0.54196   0.03292   0.37115   0.00000  Uiso   1.00
H118   H     0.53636   0.21120   0.43426   0.00000  Uiso   1.00
H119   H     0.17699   0.08514   0.45921   0.00000  Uiso   1.00
H120   H     0.65370   0.95518   0.30258   0.00000  Uiso   1.00
H121   H     0.64185   0.33111   0.43567   0.00000  Uiso   1.00
H122   H     0.88405   0.06527   0.48829   0.00000  Uiso   1.00
H123   H     0.15724   0.18643   0.29024   0.00000  Uiso   1.00
H124   H     0.27379   0.11166   0.23634   0.00000  Uiso   1.00
H125   H     0.26820   0.28994   0.29946   0.00000  Uiso   1.00
H126   H     0.90883   0.16388   0.32441   0.00000  Uiso   1.00
H127   H     0.43605   0.01909   0.19316   0.00000  Uiso   1.00
H128   H     0.42420   0.39501   0.32626   0.00000  Uiso   1.00
H129   H     0.66640   0.12918   0.37888   0.00000  Uiso   1.00
O130   O     0.62617   0.93661   0.21472   0.00000  Uiso   1.00
O131   O     0.61060   0.42981   0.38934   0.00000  Uiso   1.00
O132   O     0.61640   0.08104   0.45837   0.00000  Uiso   1.00
N133   N     0.58646   0.98048   0.28422   0.00000  Uiso   1.00
N134   N     0.57540   0.33194   0.40865   0.00000  Uiso   1.00
N135   N     0.86692   0.08342   0.45786   0.00000  Uiso   1.00
N136   N     0.46934   0.01486   0.22535   0.00000  Uiso   1.00
N137   N     0.45828   0.36633   0.34978   0.00000  Uiso   1.00
N138   N     0.74980   0.11781   0.39898   0.00000  Uiso   1.00
C139   C     0.16725   0.89406   0.38897   0.00000  Uiso   1.00
C140   C     0.12893   0.92549   0.34515   0.00000  Uiso   1.00
C141   C     0.03479   0.97233   0.34062   0.00000  Uiso   1.00
C142   C     0.01411   0.99496   0.29767   0.00000  Uiso   1.00
C143   C     0.94375   0.04732   0.23527   0.00000  Uiso   1.00
C144   C     0.13197   0.82962   0.38108   0.00000  Uiso   1.00
C145   C     0.04040   0.79586   0.40678   0.00000  Uiso   1.00
C146   C     0.02230   0.73779   0.39408   0.00000  Uiso   1.00
C147   C     0.95675   0.64129   0.38749   0.00000  Uiso   1.00
C148   C     0.33040   0.89751   0.39391   0.00000  Uiso   1.00
C149   C     0.40568   0.92081   0.43040   0.00000  Uiso   1.00
C150   C     0.55466   0.91988   0.42850   0.00000  Uiso   1.00
C151   C     0.79720   0.92879   0.44182   0.00000  Uiso   1.00
C152   C     0.29794   0.85095   0.32074   0.00000  Uiso   1.00
C153   C     0.19991   0.90208   0.30809   0.00000  Uiso   1.00
C154   C     0.17938   0.92465   0.26513   0.00000  Uiso   1.00
C155   C     0.08523   0.97151   0.26055   0.00000  Uiso   1.00
C156   C     0.20295   0.80621   0.34402   0.00000  Uiso   1.00
C157   C     0.18499   0.74817   0.33129   0.00000  Uiso   1.00
C158   C     0.09342   0.71433   0.35695   0.00000  Uiso   1.00
C159   C     0.40139   0.87410   0.35685   0.00000  Uiso   1.00
C160   C     0.55027   0.87313   0.35490   0.00000  Uiso   1.00
C161   C     0.62577   0.89643   0.39137   0.00000  Uiso   1.00
H162   H     0.11198   0.91228   0.41782   0.00000  Uiso   1.00
H163   H     0.97986   0.99043   0.36931   0.00000  Uiso   1.00
H164   H     0.98549   0.81399   0.43546   0.00000  Uiso   1.00
H165   H     0.35071   0.93892   0.45907   0.00000  Uiso   1.00
H166   H     0.86465   0.06675   0.29918   0.00000  Uiso   1.00
H167   H     0.87656   0.69469   0.43867   0.00000  Uiso   1.00
H168   H     0.64670   0.95814   0.48846   0.00000  Uiso   1.00
H169   H     0.35321   0.83272   0.29188   0.00000  Uiso   1.00
H170   H     0.23433   0.90652   0.23646   0.00000  Uiso   1.00
H171   H     0.23995   0.73007   0.30261   0.00000  Uiso   1.00
H172   H     0.60517   0.85501   0.32622   0.00000  Uiso   1.00
H173   H     0.07118   0.99864   0.19136   0.00000  Uiso   1.00
H174   H     0.08309   0.62658   0.33084   0.00000  Uiso   1.00
H175   H     0.85323   0.89003   0.38063   0.00000  Uiso   1.00
O176   O     0.88532   0.08266   0.21108   0.00000  Uiso   1.00
O177   O     0.90096   0.59454   0.39408   0.00000  Uiso   1.00
O178   O     0.91137   0.94018   0.45940   0.00000  Uiso   1.00
N179   N     0.92959   0.04060   0.28141   0.00000  Uiso   1.00
N180   N     0.94071   0.69275   0.41182   0.00000  Uiso   1.00
N181   N     0.66073   0.93904   0.45837   0.00000  Uiso   1.00
N182   N     0.04073   0.00395   0.22339   0.00000  Uiso   1.00
N183   N     0.05184   0.65610   0.35380   0.00000  Uiso   1.00
N184   N     0.77186   0.90239   0.40035   0.00000  Uiso   1.00
C185   C     0.35321   0.37111   0.88875   0.00000  Uiso   1.00
C186   C     0.38886   0.40362   0.84556   0.00000  Uiso   1.00
C187   C     0.48408   0.45010   0.84203   0.00000  Uiso   1.00
C188   C     0.50187   0.47386   0.79952   0.00000  Uiso   1.00
C189   C     0.56865   0.52766   0.73817   0.00000  Uiso   1.00
C190   C     0.38583   0.30675   0.87985   0.00000  Uiso   1.00
C191   C     0.47849   0.27179   0.90516   0.00000  Uiso   1.00
C192   C     0.49372   0.21401   0.89151   0.00000  Uiso   1.00
C193   C     0.55572   0.11740   0.88341   0.00000  Uiso   1.00
C194   C     0.19058   0.37525   0.89340   0.00000  Uiso   1.00
C195   C     0.11906   0.39787   0.93012   0.00000  Uiso   1.00
C196   C     0.96990   0.39775   0.92789   0.00000  Uiso   1.00
C197   C     0.72875   0.40750   0.94084   0.00000  Uiso   1.00
C198   C     0.21548   0.33067   0.81952   0.00000  Uiso   1.00
C199   C     0.31405   0.38165   0.80795   0.00000  Uiso   1.00
C200   C     0.33170   0.40535   0.76543   0.00000  Uiso   1.00
C201   C     0.42693   0.45186   0.76185   0.00000  Uiso   1.00
C202   C     0.31103   0.28478   0.84224   0.00000  Uiso   1.00
C203   C     0.32611   0.22704   0.82856   0.00000  Uiso   1.00
C204   C     0.41878   0.19200   0.85384   0.00000  Uiso   1.00
C205   C     0.11577   0.35329   0.85580   0.00000  Uiso   1.00
C206   C     0.96669   0.35313   0.85352   0.00000  Uiso   1.00
C207   C     0.89496   0.37574   0.89022   0.00000  Uiso   1.00
H208   H     0.41145   0.38821   0.91803   0.00000  Uiso   1.00
H209   H     0.54196   0.46708   0.87115   0.00000  Uiso   1.00
H210   H     0.53636   0.28880   0.93426   0.00000  Uiso   1.00
H211   H     0.17699   0.41486   0.95921   0.00000  Uiso   1.00
H212   H     0.65370   0.54482   0.80258   0.00000  Uiso   1.00
H213   H     0.64185   0.16889   0.93567   0.00000  Uiso   1.00
H214   H     0.88405   0.43473   0.98829   0.00000  Uiso   1.00
H215   H     0.15724   0.31357   0.79024   0.00000  Uiso   1.00
H216   H     0.27379   0.38834   0.73634   0.00000  Uiso   1.00
H217   H     0.26820   0.21006   0.79946   0.00000  Uiso   1.00
H218   H     0.90883   0.33612   0.82441   0.00000  Uiso   1.00
H219   H     0.43605   0.48091   0.69316   0.00000  Uiso   1.00
H220   H     0.42420   0.10499   0.82626   0.00000  Uiso   1.00
H221   H     0.66640   0.37082   0.87888   0.00000  Uiso   1.00
O222   O     0.62617   0.56339   0.71472   0.00000  Uiso   1.00
O223   O     0.61060   0.07019   0.88934   0.00000  Uiso   1.00
O224   O     0.61640   0.41896   0.95837   0.00000  Uiso   1.00
N225   N     0.58646   0.51952   0.78422   0.00000  Uiso   1.00
N226   N     0.57540   0.16806   0.90865   0.00000  Uiso   1.00
N227   N     0.86692   0.41658   0.95786   0.00000  Uiso   1.00
N228   N     0.46934   0.48514   0.72535   0.00000  Uiso   1.00
N229   N     0.45828   0.13367   0.84978   0.00000  Uiso   1.00
N230   N     0.74980   0.38219   0.89898   0.00000  Uiso   1.00
C231   C     0.16725   0.60594   0.88897   0.00000  Uiso   1.00
C232   C     0.12893   0.57451   0.84515   0.00000  Uiso   1.00
C233   C     0.03479   0.52767   0.84062   0.00000  Uiso   1.00
C234   C     0.01411   0.50504   0.79767   0.00000  Uiso   1.00
C235   C     0.94375   0.45268   0.73527   0.00000  Uiso   1.00
C236   C     0.13197   0.67038   0.88108   0.00000  Uiso   1.00
C237   C     0.04040   0.70414   0.90678   0.00000  Uiso   1.00
C238   C     0.02230   0.76221   0.89408   0.00000  Uiso   1.00
C239   C     0.95675   0.85871   0.88749   0.00000  Uiso   1.00
C240   C     0.33040   0.60249   0.89391   0.00000  Uiso   1.00
C241   C     0.40568   0.57919   0.93040   0.00000  Uiso   1.00
C242   C     0.55466   0.58012   0.92850   0.00000  Uiso   1.00
C243   C     0.79720   0.57121   0.94182   0.00000  Uiso   1.00
C244   C     0.29794   0.64905   0.82074   0.00000  Uiso   1.00
C245   C     0.19991   0.59792   0.80809   0.00000  Uiso   1.00
C246   C     0.17938   0.57535   0.76513   0.00000  Uiso   1.00
C247   C     0.08523   0.52849   0.76055   0.00000  Uiso   1.00
C248   C     0.20295   0.69379   0.84402   0.00000  Uiso   1.00
C249   C     0.18499   0.75183   0.83129   0.00000  Uiso   1.00
C250   C     0.09342   0.78567   0.85695   0.00000  Uiso   1.00
C251   C     0.40139   0.62590   0.85685   0.00000  Uiso   1.00
C252   C     0.55027   0.62687   0.85490   0.00000  Uiso   1.00
C253   C     0.62577   0.60357   0.89137   0.00000  Uiso   1.00
H254   H     0.11198   0.58772   0.91782   0.00000  Uiso   1.00
H255   H     0.97986   0.50957   0.86931   0.00000  Uiso   1.00
H256   H     0.98549   0.68601   0.93546   0.00000  Uiso   1.00
H257   H     0.35071   0.56108   0.95907   0.00000  Uiso   1.00
H258   H     0.86465   0.43325   0.79918   0.00000  Uiso   1.00
H259   H     0.87656   0.80531   0.93867   0.00000  Uiso   1.00
H260   H     0.64670   0.54186   0.98846   0.00000  Uiso   1.00
H261   H     0.35321   0.66728   0.79188   0.00000  Uiso   1.00
H262   H     0.23433   0.59348   0.73646   0.00000  Uiso   1.00
H263   H     0.23995   0.76993   0.80261   0.00000  Uiso   1.00
H264   H     0.60517   0.64499   0.82622   0.00000  Uiso   1.00
H265   H     0.07118   0.50136   0.69136   0.00000  Uiso   1.00
H266   H     0.08309   0.87342   0.83084   0.00000  Uiso   1.00
H267   H     0.85323   0.60997   0.88063   0.00000  Uiso   1.00
O268   O     0.88532   0.41734   0.71108   0.00000  Uiso   1.00
O269   O     0.90096   0.90546   0.89408   0.00000  Uiso   1.00
O270   O     0.91137   0.55982   0.95940   0.00000  Uiso   1.00
N271   N     0.92959   0.45940   0.78141   0.00000  Uiso   1.00
N272   N     0.94071   0.80725   0.91182   0.00000  Uiso   1.00
N273   N     0.66073   0.56096   0.95837   0.00000  Uiso   1.00
N274   N     0.04073   0.49605   0.72339   0.00000  Uiso   1.00
N275   N     0.05184   0.84390   0.85380   0.00000  Uiso   1.00
N276   N     0.77186   0.59761   0.90035   0.00000  Uiso   1.00
C277   C     0.64679   0.87111   0.61125   0.00000  Uiso   1.00
C278   C     0.61114   0.90362   0.65444   0.00000  Uiso   1.00
C279   C     0.51592   0.95010   0.65797   0.00000  Uiso   1.00
C280   C     0.49813   0.97386   0.70048   0.00000  Uiso   1.00
C281   C     0.43135   0.02766   0.76183   0.00000  Uiso   1.00
C282   C     0.61417   0.80675   0.62015   0.00000  Uiso   1.00
C283   C     0.52151   0.77179   0.59484   0.00000  Uiso   1.00
C284   C     0.50628   0.71401   0.60849   0.00000  Uiso   1.00
C285   C     0.44428   0.61740   0.61659   0.00000  Uiso   1.00
C286   C     0.80942   0.87525   0.60660   0.00000  Uiso   1.00
C287   C     0.88094   0.89787   0.56988   0.00000  Uiso   1.00
C288   C     0.03010   0.89775   0.57211   0.00000  Uiso   1.00
C289   C     0.27125   0.90750   0.55916   0.00000  Uiso   1.00
C290   C     0.78452   0.83067   0.68048   0.00000  Uiso   1.00
C291   C     0.68595   0.88165   0.69205   0.00000  Uiso   1.00
C292   C     0.66830   0.90535   0.73457   0.00000  Uiso   1.00
C293   C     0.57307   0.95186   0.73815   0.00000  Uiso   1.00
C294   C     0.68897   0.78478   0.65776   0.00000  Uiso   1.00
C295   C     0.67389   0.72704   0.67144   0.00000  Uiso   1.00
C296   C     0.58122   0.69200   0.64616   0.00000  Uiso   1.00
C297   C     0.88423   0.85329   0.64420   0.00000  Uiso   1.00
C298   C     0.03331   0.85313   0.64648   0.00000  Uiso   1.00
C299   C     0.10504   0.87574   0.60978   0.00000  Uiso   1.00
H300   H     0.58855   0.88821   0.58197   0.00000  Uiso   1.00
H301   H     0.45804   0.96708   0.62885   0.00000  Uiso   1.00
H302   H     0.46364   0.78880   0.56574   0.00000  Uiso   1.00
H303   H     0.82301   0.91486   0.54079   0.00000  Uiso   1.00
H304   H     0.34630   0.04482   0.69742   0.00000  Uiso   1.00
H305   H     0.35815   0.66889   0.56433   0.00000  Uiso   1.00
H306   H     0.11595   0.93473   0.51171   0.00000  Uiso   1.00
H307   H     0.84276   0.81357   0.70976   0.00000  Uiso   1.00
H308   H     0.72621   0.88834   0.76366   0.00000  Uiso   1.00
H309   H     0.73180   0.71006   0.70054   0.00000  Uiso   1.00
H310   H     0.09117   0.83612   0.67559   0.00000  Uiso   1.00
H311   H     0.56395   0.98091   0.80684   0.00000  Uiso   1.00
H312   H     0.57580   0.60499   0.67374   0.00000  Uiso   1.00
H313   H     0.33360   0.87082   0.62112   0.00000  Uiso   1.00
O314   O     0.37383   0.06339   0.78528   0.00000  Uiso   1.00
O315   O     0.38940   0.57019   0.61066   0.00000  Uiso   1.00
O316   O     0.38360   0.91896   0.54163   0.00000  Uiso   1.00
N317   N     0.41354   0.01952   0.71578   0.00000  Uiso   1.00
N318   N     0.42460   0.66806   0.59135   0.00000  Uiso   1.00
N319   N     0.13308   0.91658   0.54214   0.00000  Uiso   1.00
N320   N     0.53066   0.98514   0.77465   0.00000  Uiso   1.00
N321   N     0.54172   0.63367   0.65022   0.00000  Uiso   1.00
N322   N     0.25020   0.88219   0.60102   0.00000  Uiso   1.00
C323   C     0.83275   0.10594   0.61103   0.00000  Uiso   1.00
C324   C     0.87107   0.07451   0.65485   0.00000  Uiso   1.00
C325   C     0.96521   0.02767   0.65938   0.00000  Uiso   1.00
C326   C     0.98589   0.00504   0.70233   0.00000  Uiso   1.00
C327   C     0.05625   0.95268   0.76473   0.00000  Uiso   1.00
C328   C     0.86803   0.17038   0.61892   0.00000  Uiso   1.00
C329   C     0.95960   0.20414   0.59322   0.00000  Uiso   1.00
C330   C     0.97770   0.26221   0.60592   0.00000  Uiso   1.00
C331   C     0.04325   0.35871   0.61251   0.00000  Uiso   1.00
C332   C     0.66960   0.10249   0.60609   0.00000  Uiso   1.00
C333   C     0.59432   0.07919   0.56960   0.00000  Uiso   1.00
C334   C     0.44534   0.08012   0.57150   0.00000  Uiso   1.00
C335   C     0.20280   0.07121   0.55818   0.00000  Uiso   1.00
C336   C     0.70206   0.14905   0.67926   0.00000  Uiso   1.00
C337   C     0.80009   0.09792   0.69191   0.00000  Uiso   1.00
C338   C     0.82062   0.07535   0.73487   0.00000  Uiso   1.00
C339   C     0.91477   0.02849   0.73945   0.00000  Uiso   1.00
C340   C     0.79705   0.19379   0.65598   0.00000  Uiso   1.00
C341   C     0.81501   0.25183   0.66871   0.00000  Uiso   1.00
C342   C     0.90658   0.28567   0.64305   0.00000  Uiso   1.00
C343   C     0.59861   0.12590   0.64315   0.00000  Uiso   1.00
C344   C     0.44973   0.12687   0.64510   0.00000  Uiso   1.00
C345   C     0.37423   0.10357   0.60863   0.00000  Uiso   1.00
H346   H     0.88802   0.08772   0.58218   0.00000  Uiso   1.00
H347   H     0.02014   0.00957   0.63069   0.00000  Uiso   1.00
H348   H     0.01451   0.18601   0.56454   0.00000  Uiso   1.00
H349   H     0.64929   0.06108   0.54093   0.00000  Uiso   1.00
H350   H     0.13535   0.93325   0.70082   0.00000  Uiso   1.00
H351   H     0.12344   0.30531   0.56133   0.00000  Uiso   1.00
H352   H     0.35330   0.04186   0.51154   0.00000  Uiso   1.00
H353   H     0.64679   0.16728   0.70812   0.00000  Uiso   1.00
H354   H     0.76567   0.09348   0.76354   0.00000  Uiso   1.00
H355   H     0.76005   0.26993   0.69739   0.00000  Uiso   1.00
H356   H     0.39483   0.14499   0.67378   0.00000  Uiso   1.00
H357   H     0.92882   0.00136   0.80864   0.00000  Uiso   1.00
H358   H     0.91691   0.37342   0.66916   0.00000  Uiso   1.00
H359   H     0.14677   0.10997   0.61937   0.00000  Uiso   1.00
O360   O     0.11468   0.91734   0.78892   0.00000  Uiso   1.00
O361   O     0.09904   0.40546   0.60592   0.00000  Uiso   1.00
O362   O     0.08863   0.05982   0.54060   0.00000  Uiso   1.00
N363   N     0.07041   0.95940   0.71859   0.00000  Uiso   1.00
N364   N     0.05929   0.30725   0.58818   0.00000  Uiso   1.00
N365   N     0.33927   0.06096   0.54163   0.00000  Uiso   1.00
N366   N     0.95927   0.99605   0.77661   0.00000  Uiso   1.00
N367   N     0.94816   0.34390   0.64620   0.00000  Uiso   1.00
N368   N     0.22814   0.09761   0.59965   0.00000  Uiso   1.00
