data_job_02066
_audit_creation_date              2018-12-19
_audit_creation_method            'Materials Studio'
_symmetry_space_group_name_H-M    'P1'
_symmetry_Int_Tables_number       1
_symmetry_cell_setting            triclinic
loop_
_symmetry_equiv_pos_as_xyz
  x,y,z
_cell_length_a                    21.4567
_cell_length_b                    18.1349
_cell_length_c                    18.1202
_cell_angle_alpha                 90.0000
_cell_angle_beta                  157.8598
_cell_angle_gamma                 90.0000
loop_
_atom_site_label
_atom_site_type_symbol
_atom_site_fract_x
_atom_site_fract_y
_atom_site_fract_z
_atom_site_U_iso_or_equiv
_atom_site_adp_type
_atom_site_occupancy
C1     C     0.39964   0.77121   0.09366   0.00000  Uiso   1.00
C2     C     0.55295   0.82005   0.26522   0.00000  Uiso   1.00
C3     C     0.55333   0.89635   0.27155   0.00000  Uiso   1.00
C4     C     0.70650   0.93087   0.44181   0.00000  Uiso   1.00
C5     C     0.92214   0.01285   0.68410   0.00000  Uiso   1.00
C6     C     0.41508   0.72651   0.03965   0.00000  Uiso   1.00
C7     C     0.29952   0.72415   0.85632   0.00000  Uiso   1.00
C8     C     0.33662   0.67991   0.83671   0.00000  Uiso   1.00
C9     C     0.33815   0.61662   0.72877   0.00000  Uiso   1.00
C10    C     0.41683   0.71610   0.17562   0.00000  Uiso   1.00
C11    C     0.30272   0.70497   0.10658   0.00000  Uiso   1.00
C12    C     0.34128   0.65196   0.20141   0.00000  Uiso   1.00
C13    C     0.34553   0.57252   0.30457   0.00000  Uiso   1.00
C14    C     0.67098   0.69684   0.38479   0.00000  Uiso   1.00
C15    C     0.70034   0.77965   0.42334   0.00000  Uiso   1.00
C16    C     0.85355   0.81406   0.59365   0.00000  Uiso   1.00
C17    C     0.85415   0.89040   0.60023   0.00000  Uiso   1.00
C18    C     0.56246   0.68611   0.19777   0.00000  Uiso   1.00
C19    C     0.59973   0.64186   0.17842   0.00000  Uiso   1.00
C20    C     0.48427   0.63944   0.99512   0.00000  Uiso   1.00
C21    C     0.56422   0.67570   0.33375   0.00000  Uiso   1.00
C22    C     0.60295   0.62269   0.42869   0.00000  Uiso   1.00
C23    C     0.48893   0.61149   0.35982   0.00000  Uiso   1.00
H24    H     0.28489   0.80266   0.97055   0.00000  Uiso   1.00
H25    H     0.43925   0.92759   0.14914   0.00000  Uiso   1.00
H26    H     0.18547   0.75541   0.73398   0.00000  Uiso   1.00
H27    H     0.18869   0.73624   0.98421   0.00000  Uiso   1.00
H28    H     0.67538   0.04829   0.41685   0.00000  Uiso   1.00
H29    H     0.14024   0.68522   0.54145   0.00000  Uiso   1.00
H30    H     0.14702   0.64480   0.06909   0.00000  Uiso   1.00
H31    H     0.78573   0.66538   0.50790   0.00000  Uiso   1.00
H32    H     0.96758   0.78279   0.71599   0.00000  Uiso   1.00
H33    H     0.71380   0.61060   0.30082   0.00000  Uiso   1.00
H34    H     0.71701   0.59144   0.55105   0.00000  Uiso   1.00
H35    H     0.10419   0.93076   0.87692   0.00000  Uiso   1.00
H36    H     0.56905   0.56768   0.00151   0.00000  Uiso   1.00
H37    H     0.57583   0.52727   0.52916   0.00000  Uiso   1.00
O38    O     0.00037   0.06924   0.77405   0.00000  Uiso   1.00
O39    O     0.29828   0.59289   0.62554   0.00000  Uiso   1.00
O40    O     0.30717   0.53986   0.31781   0.00000  Uiso   1.00
N41    N     0.75134   0.00452   0.49659   0.00000  Uiso   1.00
N42    N     0.25104   0.66507   0.67814   0.00000  Uiso   1.00
N43    N     0.25735   0.62727   0.17141   0.00000  Uiso   1.00
N44    N     0.98208   0.94128   0.74415   0.00000  Uiso   1.00
N45    N     0.48178   0.60183   0.92570   0.00000  Uiso   1.00
N46    N     0.48809   0.56403   0.41897   0.00000  Uiso   1.00
C47    C     0.60036   0.27121   0.40634   0.00000  Uiso   1.00
C48    C     0.44705   0.32005   0.23478   0.00000  Uiso   1.00
C49    C     0.44667   0.39635   0.22845   0.00000  Uiso   1.00
C50    C     0.29350   0.43086   0.05819   0.00000  Uiso   1.00
C51    C     0.07786   0.51285   0.81590   0.00000  Uiso   1.00
C52    C     0.58492   0.22651   0.46035   0.00000  Uiso   1.00
C53    C     0.70048   0.22415   0.64368   0.00000  Uiso   1.00
C54    C     0.66338   0.17991   0.66329   0.00000  Uiso   1.00
C55    C     0.66185   0.11662   0.77123   0.00000  Uiso   1.00
C56    C     0.58317   0.21610   0.32438   0.00000  Uiso   1.00
C57    C     0.69728   0.20497   0.39342   0.00000  Uiso   1.00
C58    C     0.65872   0.15196   0.29859   0.00000  Uiso   1.00
C59    C     0.65447   0.07252   0.19543   0.00000  Uiso   1.00
C60    C     0.32902   0.19684   0.11521   0.00000  Uiso   1.00
C61    C     0.29966   0.27965   0.07666   0.00000  Uiso   1.00
C62    C     0.14645   0.31406   0.90635   0.00000  Uiso   1.00
C63    C     0.14585   0.39040   0.89977   0.00000  Uiso   1.00
C64    C     0.43754   0.18611   0.30223   0.00000  Uiso   1.00
C65    C     0.40027   0.14186   0.32158   0.00000  Uiso   1.00
C66    C     0.51573   0.13944   0.50488   0.00000  Uiso   1.00
C67    C     0.43578   0.17570   0.16625   0.00000  Uiso   1.00
C68    C     0.39705   0.12269   0.07131   0.00000  Uiso   1.00
C69    C     0.51107   0.11149   0.14018   0.00000  Uiso   1.00
H70    H     0.71511   0.30266   0.52945   0.00000  Uiso   1.00
H71    H     0.56075   0.42759   0.35086   0.00000  Uiso   1.00
H72    H     0.81453   0.25541   0.76602   0.00000  Uiso   1.00
H73    H     0.81131   0.23624   0.51579   0.00000  Uiso   1.00
H74    H     0.32462   0.54829   0.08315   0.00000  Uiso   1.00
H75    H     0.85976   0.18522   0.95855   0.00000  Uiso   1.00
H76    H     0.85298   0.14480   0.43091   0.00000  Uiso   1.00
H77    H     0.21427   0.16538   0.99210   0.00000  Uiso   1.00
H78    H     0.03242   0.28279   0.78401   0.00000  Uiso   1.00
H79    H     0.28620   0.11060   0.19918   0.00000  Uiso   1.00
H80    H     0.28299   0.09144   0.94895   0.00000  Uiso   1.00
H81    H     0.89581   0.43076   0.62308   0.00000  Uiso   1.00
H82    H     0.43095   0.06768   0.49849   0.00000  Uiso   1.00
H83    H     0.42417   0.02727   0.97084   0.00000  Uiso   1.00
O84    O     0.99963   0.56924   0.72595   0.00000  Uiso   1.00
O85    O     0.70172   0.09289   0.87446   0.00000  Uiso   1.00
O86    O     0.69283   0.03986   0.18219   0.00000  Uiso   1.00
N87    N     0.24866   0.50452   0.00341   0.00000  Uiso   1.00
N88    N     0.74896   0.16507   0.82186   0.00000  Uiso   1.00
N89    N     0.74265   0.12727   0.32859   0.00000  Uiso   1.00
N90    N     0.01792   0.44128   0.75585   0.00000  Uiso   1.00
N91    N     0.51822   0.10183   0.57430   0.00000  Uiso   1.00
N92    N     0.51191   0.06403   0.08103   0.00000  Uiso   1.00
C93    C     0.60036   0.22879   0.90634   0.00000  Uiso   1.00
C94    C     0.44705   0.17995   0.73478   0.00000  Uiso   1.00
C95    C     0.44667   0.10365   0.72845   0.00000  Uiso   1.00
C96    C     0.29350   0.06914   0.55819   0.00000  Uiso   1.00
C97    C     0.07786   0.98715   0.31590   0.00000  Uiso   1.00
C98    C     0.58492   0.27349   0.96035   0.00000  Uiso   1.00
C99    C     0.70048   0.27585   0.14368   0.00000  Uiso   1.00
C100   C     0.66338   0.32009   0.16329   0.00000  Uiso   1.00
C101   C     0.66185   0.38338   0.27123   0.00000  Uiso   1.00
C102   C     0.58317   0.28390   0.82438   0.00000  Uiso   1.00
C103   C     0.69728   0.29503   0.89342   0.00000  Uiso   1.00
C104   C     0.65872   0.34804   0.79859   0.00000  Uiso   1.00
C105   C     0.65447   0.42748   0.69543   0.00000  Uiso   1.00
C106   C     0.32902   0.30316   0.61521   0.00000  Uiso   1.00
C107   C     0.29966   0.22035   0.57666   0.00000  Uiso   1.00
C108   C     0.14645   0.18594   0.40635   0.00000  Uiso   1.00
C109   C     0.14585   0.10960   0.39977   0.00000  Uiso   1.00
C110   C     0.43754   0.31389   0.80223   0.00000  Uiso   1.00
C111   C     0.40027   0.35814   0.82158   0.00000  Uiso   1.00
C112   C     0.51573   0.36056   0.00488   0.00000  Uiso   1.00
C113   C     0.43578   0.32430   0.66625   0.00000  Uiso   1.00
C114   C     0.39705   0.37731   0.57131   0.00000  Uiso   1.00
C115   C     0.51107   0.38851   0.64018   0.00000  Uiso   1.00
H116   H     0.71511   0.19734   0.02945   0.00000  Uiso   1.00
H117   H     0.56075   0.07241   0.85086   0.00000  Uiso   1.00
H118   H     0.81453   0.24459   0.26602   0.00000  Uiso   1.00
H119   H     0.81131   0.26376   0.01579   0.00000  Uiso   1.00
H120   H     0.32462   0.95171   0.58315   0.00000  Uiso   1.00
H121   H     0.85976   0.31478   0.45855   0.00000  Uiso   1.00
H122   H     0.85298   0.35520   0.93091   0.00000  Uiso   1.00
H123   H     0.21427   0.33462   0.49210   0.00000  Uiso   1.00
H124   H     0.03242   0.21721   0.28401   0.00000  Uiso   1.00
H125   H     0.28620   0.38940   0.69918   0.00000  Uiso   1.00
H126   H     0.28299   0.40856   0.44895   0.00000  Uiso   1.00
H127   H     0.89581   0.06924   0.12308   0.00000  Uiso   1.00
H128   H     0.43095   0.43232   0.99849   0.00000  Uiso   1.00
H129   H     0.42417   0.47273   0.47084   0.00000  Uiso   1.00
O130   O     0.99963   0.93076   0.22595   0.00000  Uiso   1.00
O131   O     0.70172   0.40711   0.37446   0.00000  Uiso   1.00
O132   O     0.69283   0.46014   0.68219   0.00000  Uiso   1.00
N133   N     0.24866   0.99548   0.50341   0.00000  Uiso   1.00
N134   N     0.74896   0.33493   0.32186   0.00000  Uiso   1.00
N135   N     0.74265   0.37273   0.82859   0.00000  Uiso   1.00
N136   N     0.01792   0.05872   0.25585   0.00000  Uiso   1.00
N137   N     0.51822   0.39817   0.07430   0.00000  Uiso   1.00
N138   N     0.51191   0.43597   0.58103   0.00000  Uiso   1.00
C139   C     0.39964   0.72879   0.59366   0.00000  Uiso   1.00
C140   C     0.55295   0.67995   0.76522   0.00000  Uiso   1.00
C141   C     0.55333   0.60365   0.77155   0.00000  Uiso   1.00
C142   C     0.70650   0.56914   0.94181   0.00000  Uiso   1.00
C143   C     0.92214   0.48715   0.18410   0.00000  Uiso   1.00
C144   C     0.41508   0.77349   0.53965   0.00000  Uiso   1.00
C145   C     0.29952   0.77585   0.35632   0.00000  Uiso   1.00
C146   C     0.33662   0.82009   0.33671   0.00000  Uiso   1.00
C147   C     0.33815   0.88338   0.22877   0.00000  Uiso   1.00
C148   C     0.41683   0.78390   0.67562   0.00000  Uiso   1.00
C149   C     0.30272   0.79503   0.60658   0.00000  Uiso   1.00
C150   C     0.34128   0.84804   0.70141   0.00000  Uiso   1.00
C151   C     0.34553   0.92748   0.80457   0.00000  Uiso   1.00
C152   C     0.67098   0.80316   0.88479   0.00000  Uiso   1.00
C153   C     0.70034   0.72035   0.92334   0.00000  Uiso   1.00
C154   C     0.85355   0.68594   0.09365   0.00000  Uiso   1.00
C155   C     0.85415   0.60960   0.10023   0.00000  Uiso   1.00
C156   C     0.56246   0.81389   0.69777   0.00000  Uiso   1.00
C157   C     0.59973   0.85814   0.67842   0.00000  Uiso   1.00
C158   C     0.48427   0.86056   0.49512   0.00000  Uiso   1.00
C159   C     0.56422   0.82430   0.83375   0.00000  Uiso   1.00
C160   C     0.60295   0.87731   0.92869   0.00000  Uiso   1.00
C161   C     0.48893   0.88851   0.85982   0.00000  Uiso   1.00
H162   H     0.28489   0.69734   0.47055   0.00000  Uiso   1.00
H163   H     0.43925   0.57241   0.64914   0.00000  Uiso   1.00
H164   H     0.18547   0.74459   0.23398   0.00000  Uiso   1.00
H165   H     0.18869   0.76376   0.48421   0.00000  Uiso   1.00
H166   H     0.67538   0.45171   0.91685   0.00000  Uiso   1.00
H167   H     0.14024   0.81478   0.04145   0.00000  Uiso   1.00
H168   H     0.14702   0.85520   0.56909   0.00000  Uiso   1.00
H169   H     0.78573   0.83462   0.00790   0.00000  Uiso   1.00
H170   H     0.96758   0.71721   0.21599   0.00000  Uiso   1.00
H171   H     0.71380   0.88940   0.80082   0.00000  Uiso   1.00
H172   H     0.71701   0.90856   0.05105   0.00000  Uiso   1.00
H173   H     0.10419   0.56924   0.37692   0.00000  Uiso   1.00
H174   H     0.56905   0.93232   0.50151   0.00000  Uiso   1.00
H175   H     0.57583   0.97273   0.02916   0.00000  Uiso   1.00
O176   O     0.00037   0.43076   0.27405   0.00000  Uiso   1.00
O177   O     0.29828   0.90711   0.12554   0.00000  Uiso   1.00
O178   O     0.30717   0.96014   0.81781   0.00000  Uiso   1.00
N179   N     0.75134   0.49548   0.99659   0.00000  Uiso   1.00
N180   N     0.25104   0.83493   0.17814   0.00000  Uiso   1.00
N181   N     0.25735   0.87273   0.67141   0.00000  Uiso   1.00
N182   N     0.98208   0.55872   0.24415   0.00000  Uiso   1.00
N183   N     0.48178   0.89817   0.42570   0.00000  Uiso   1.00
N184   N     0.48809   0.93597   0.91897   0.00000  Uiso   1.00
