data_job_00799
_audit_creation_date              2018-12-19
_audit_creation_method            'Materials Studio'
_symmetry_space_group_name_H-M    'P1'
_symmetry_Int_Tables_number       1
_symmetry_cell_setting            triclinic
loop_
_symmetry_equiv_pos_as_xyz
  x,y,z
_cell_length_a                    12.5473
_cell_length_b                    12.6674
_cell_length_c                    21.3015
_cell_angle_alpha                 90.0000
_cell_angle_beta                  138.9985
_cell_angle_gamma                 90.0000
loop_
_atom_site_label
_atom_site_type_symbol
_atom_site_fract_x
_atom_site_fract_y
_atom_site_fract_z
_atom_site_U_iso_or_equiv
_atom_site_adp_type
_atom_site_occupancy
C1     C     0.09552   0.25984   0.22547   0.00000  Uiso   1.00
C2     C     0.24239   0.24201   0.33308   0.00000  Uiso   1.00
C3     C     0.24478   0.25329   0.39895   0.00000  Uiso   1.00
C4     C     0.39113   0.23338   0.49416   0.00000  Uiso   1.00
C5     C     0.59808   0.21033   0.65696   0.00000  Uiso   1.00
C6     C     0.14761   0.34219   0.20045   0.00000  Uiso   1.00
C7     C     0.07031   0.43769   0.15479   0.00000  Uiso   1.00
C8     C     0.13687   0.50210   0.13834   0.00000  Uiso   1.00
C9     C     0.19660   0.63455   0.09517   0.00000  Uiso   1.00
C10    C     0.07176   0.15735   0.17850   0.00000  Uiso   1.00
C11    C     0.93066   0.09744   0.11435   0.00000  Uiso   1.00
C12    C     0.93335   0.00624   0.07941   0.00000  Uiso   1.00
C13    C     0.87531   0.85170   0.00215   0.00000  Uiso   1.00
C14    C     0.35117   0.20444   0.27744   0.00000  Uiso   1.00
C15    C     0.38125   0.21192   0.36131   0.00000  Uiso   1.00
C16    C     0.52763   0.19199   0.45645   0.00000  Uiso   1.00
C17    C     0.53024   0.20322   0.52244   0.00000  Uiso   1.00
C18    C     0.28647   0.31211   0.22868   0.00000  Uiso   1.00
C19    C     0.35316   0.37639   0.21229   0.00000  Uiso   1.00
C20    C     0.27598   0.47195   0.16662   0.00000  Uiso   1.00
C21    C     0.21062   0.12726   0.20673   0.00000  Uiso   1.00
C22    C     0.21352   0.03614   0.17186   0.00000  Uiso   1.00
C23    C     0.07246   0.97610   0.10768   0.00000  Uiso   1.00
H24    H     0.98741   0.28327   0.20349   0.00000  Uiso   1.00
H25    H     0.13730   0.27659   0.37707   0.00000  Uiso   1.00
H26    H     0.96284   0.46095   0.13294   0.00000  Uiso   1.00
H27    H     0.82323   0.12075   0.09253   0.00000  Uiso   1.00
H28    H     0.36473   0.25594   0.58197   0.00000  Uiso   1.00
H29    H     0.99685   0.64466   0.06719   0.00000  Uiso   1.00
H30    H     0.70244   0.92730   0.98195   0.00000  Uiso   1.00
H31    H     0.45928   0.18101   0.29942   0.00000  Uiso   1.00
H32    H     0.63507   0.16870   0.47827   0.00000  Uiso   1.00
H33    H     0.46061   0.35307   0.23414   0.00000  Uiso   1.00
H34    H     0.32100   0.01288   0.19372   0.00000  Uiso   1.00
H35    H     0.76874   0.16838   0.66411   0.00000  Uiso   1.00
H36    H     0.40085   0.55711   0.14931   0.00000  Uiso   1.00
H37    H     0.10645   0.83974   0.06409   0.00000  Uiso   1.00
O38    O     0.67387   0.20594   0.73896   0.00000  Uiso   1.00
O39    O     0.19120   0.71592   0.06357   0.00000  Uiso   1.00
O40    O     0.80495   0.77476   0.95175   0.00000  Uiso   1.00
N41    N     0.43568   0.23700   0.57675   0.00000  Uiso   1.00
N42    N     0.09174   0.60044   0.09547   0.00000  Uiso   1.00
N43    N     0.81648   0.92978   0.01577   0.00000  Uiso   1.00
N44    N     0.65308   0.18988   0.62095   0.00000  Uiso   1.00
N45    N     0.30914   0.55333   0.13967   0.00000  Uiso   1.00
N46    N     0.03388   0.88266   0.05996   0.00000  Uiso   1.00
C47    C     0.90448   0.75984   0.27453   0.00000  Uiso   1.00
C48    C     0.75761   0.74201   0.16692   0.00000  Uiso   1.00
C49    C     0.75522   0.75329   0.10105   0.00000  Uiso   1.00
C50    C     0.60887   0.73338   0.00584   0.00000  Uiso   1.00
C51    C     0.40192   0.71033   0.84304   0.00000  Uiso   1.00
C52    C     0.85239   0.84219   0.29955   0.00000  Uiso   1.00
C53    C     0.92969   0.93769   0.34521   0.00000  Uiso   1.00
C54    C     0.86313   0.00210   0.36166   0.00000  Uiso   1.00
C55    C     0.80340   0.13455   0.40483   0.00000  Uiso   1.00
C56    C     0.92824   0.65735   0.32150   0.00000  Uiso   1.00
C57    C     0.06934   0.59744   0.38565   0.00000  Uiso   1.00
C58    C     0.06665   0.50624   0.42059   0.00000  Uiso   1.00
C59    C     0.12469   0.35170   0.49785   0.00000  Uiso   1.00
C60    C     0.64883   0.70444   0.22256   0.00000  Uiso   1.00
C61    C     0.61875   0.71192   0.13869   0.00000  Uiso   1.00
C62    C     0.47237   0.69199   0.04355   0.00000  Uiso   1.00
C63    C     0.46976   0.70322   0.97756   0.00000  Uiso   1.00
C64    C     0.71353   0.81211   0.27132   0.00000  Uiso   1.00
C65    C     0.64684   0.87639   0.28771   0.00000  Uiso   1.00
C66    C     0.72402   0.97195   0.33338   0.00000  Uiso   1.00
C67    C     0.78938   0.62726   0.29327   0.00000  Uiso   1.00
C68    C     0.78648   0.53614   0.32814   0.00000  Uiso   1.00
C69    C     0.92754   0.47610   0.39232   0.00000  Uiso   1.00
H70    H     0.01259   0.78327   0.29651   0.00000  Uiso   1.00
H71    H     0.86270   0.77659   0.12293   0.00000  Uiso   1.00
H72    H     0.03716   0.96095   0.36706   0.00000  Uiso   1.00
H73    H     0.17677   0.62075   0.40747   0.00000  Uiso   1.00
H74    H     0.63527   0.75594   0.91803   0.00000  Uiso   1.00
H75    H     0.00315   0.14466   0.43281   0.00000  Uiso   1.00
H76    H     0.29756   0.42730   0.51805   0.00000  Uiso   1.00
H77    H     0.54072   0.68101   0.20058   0.00000  Uiso   1.00
H78    H     0.36493   0.66870   0.02173   0.00000  Uiso   1.00
H79    H     0.53939   0.85307   0.26586   0.00000  Uiso   1.00
H80    H     0.67900   0.51288   0.30628   0.00000  Uiso   1.00
H81    H     0.23126   0.66838   0.83589   0.00000  Uiso   1.00
H82    H     0.59915   0.05711   0.35069   0.00000  Uiso   1.00
H83    H     0.89355   0.33974   0.43591   0.00000  Uiso   1.00
O84    O     0.32613   0.70594   0.76104   0.00000  Uiso   1.00
O85    O     0.80880   0.21592   0.43643   0.00000  Uiso   1.00
O86    O     0.19505   0.27476   0.54825   0.00000  Uiso   1.00
N87    N     0.56432   0.73700   0.92325   0.00000  Uiso   1.00
N88    N     0.90826   0.10044   0.40453   0.00000  Uiso   1.00
N89    N     0.18352   0.42978   0.48423   0.00000  Uiso   1.00
N90    N     0.34692   0.68988   0.87905   0.00000  Uiso   1.00
N91    N     0.69086   0.05333   0.36033   0.00000  Uiso   1.00
N92    N     0.96612   0.38266   0.44004   0.00000  Uiso   1.00
C93    C     0.90448   0.74016   0.77453   0.00000  Uiso   1.00
C94    C     0.75761   0.75799   0.66692   0.00000  Uiso   1.00
C95    C     0.75522   0.74671   0.60105   0.00000  Uiso   1.00
C96    C     0.60887   0.76662   0.50584   0.00000  Uiso   1.00
C97    C     0.40192   0.78967   0.34304   0.00000  Uiso   1.00
C98    C     0.85239   0.65781   0.79955   0.00000  Uiso   1.00
C99    C     0.92969   0.56231   0.84521   0.00000  Uiso   1.00
C100   C     0.86313   0.49790   0.86166   0.00000  Uiso   1.00
C101   C     0.80340   0.36545   0.90483   0.00000  Uiso   1.00
C102   C     0.92824   0.84265   0.82150   0.00000  Uiso   1.00
C103   C     0.06934   0.90256   0.88565   0.00000  Uiso   1.00
C104   C     0.06665   0.99376   0.92059   0.00000  Uiso   1.00
C105   C     0.12469   0.14830   0.99785   0.00000  Uiso   1.00
C106   C     0.64883   0.79556   0.72256   0.00000  Uiso   1.00
C107   C     0.61875   0.78808   0.63869   0.00000  Uiso   1.00
C108   C     0.47237   0.80801   0.54355   0.00000  Uiso   1.00
C109   C     0.46976   0.79678   0.47756   0.00000  Uiso   1.00
C110   C     0.71353   0.68789   0.77132   0.00000  Uiso   1.00
C111   C     0.64684   0.62361   0.78771   0.00000  Uiso   1.00
C112   C     0.72402   0.52805   0.83338   0.00000  Uiso   1.00
C113   C     0.78938   0.87274   0.79327   0.00000  Uiso   1.00
C114   C     0.78648   0.96386   0.82814   0.00000  Uiso   1.00
C115   C     0.92754   0.02390   0.89232   0.00000  Uiso   1.00
H116   H     0.01259   0.71673   0.79651   0.00000  Uiso   1.00
H117   H     0.86270   0.72341   0.62293   0.00000  Uiso   1.00
H118   H     0.03716   0.53905   0.86706   0.00000  Uiso   1.00
H119   H     0.17677   0.87925   0.90747   0.00000  Uiso   1.00
H120   H     0.63527   0.74406   0.41803   0.00000  Uiso   1.00
H121   H     0.00315   0.35534   0.93281   0.00000  Uiso   1.00
H122   H     0.29756   0.07270   0.01805   0.00000  Uiso   1.00
H123   H     0.54072   0.81899   0.70058   0.00000  Uiso   1.00
H124   H     0.36493   0.83130   0.52173   0.00000  Uiso   1.00
H125   H     0.53939   0.64693   0.76586   0.00000  Uiso   1.00
H126   H     0.67900   0.98712   0.80628   0.00000  Uiso   1.00
H127   H     0.23126   0.83162   0.33589   0.00000  Uiso   1.00
H128   H     0.59915   0.44289   0.85069   0.00000  Uiso   1.00
H129   H     0.89355   0.16026   0.93591   0.00000  Uiso   1.00
O130   O     0.32613   0.79406   0.26104   0.00000  Uiso   1.00
O131   O     0.80880   0.28408   0.93643   0.00000  Uiso   1.00
O132   O     0.19505   0.22524   0.04825   0.00000  Uiso   1.00
N133   N     0.56432   0.76300   0.42325   0.00000  Uiso   1.00
N134   N     0.90826   0.39956   0.90453   0.00000  Uiso   1.00
N135   N     0.18352   0.07022   0.98423   0.00000  Uiso   1.00
N136   N     0.34692   0.81012   0.37905   0.00000  Uiso   1.00
N137   N     0.69086   0.44667   0.86033   0.00000  Uiso   1.00
N138   N     0.96612   0.11734   0.94004   0.00000  Uiso   1.00
C139   C     0.09552   0.24016   0.72547   0.00000  Uiso   1.00
C140   C     0.24239   0.25799   0.83308   0.00000  Uiso   1.00
C141   C     0.24478   0.24671   0.89895   0.00000  Uiso   1.00
C142   C     0.39113   0.26662   0.99416   0.00000  Uiso   1.00
C143   C     0.59808   0.28967   0.15696   0.00000  Uiso   1.00
C144   C     0.14761   0.15781   0.70045   0.00000  Uiso   1.00
C145   C     0.07031   0.06231   0.65479   0.00000  Uiso   1.00
C146   C     0.13687   0.99790   0.63834   0.00000  Uiso   1.00
C147   C     0.19660   0.86545   0.59517   0.00000  Uiso   1.00
C148   C     0.07176   0.34265   0.67850   0.00000  Uiso   1.00
C149   C     0.93066   0.40256   0.61435   0.00000  Uiso   1.00
C150   C     0.93335   0.49376   0.57941   0.00000  Uiso   1.00
C151   C     0.87531   0.64830   0.50215   0.00000  Uiso   1.00
C152   C     0.35117   0.29556   0.77744   0.00000  Uiso   1.00
C153   C     0.38125   0.28808   0.86131   0.00000  Uiso   1.00
C154   C     0.52763   0.30801   0.95645   0.00000  Uiso   1.00
C155   C     0.53024   0.29678   0.02244   0.00000  Uiso   1.00
C156   C     0.28647   0.18789   0.72868   0.00000  Uiso   1.00
C157   C     0.35316   0.12361   0.71229   0.00000  Uiso   1.00
C158   C     0.27598   0.02805   0.66662   0.00000  Uiso   1.00
C159   C     0.21062   0.37274   0.70673   0.00000  Uiso   1.00
C160   C     0.21352   0.46386   0.67186   0.00000  Uiso   1.00
C161   C     0.07246   0.52390   0.60768   0.00000  Uiso   1.00
H162   H     0.98741   0.21673   0.70349   0.00000  Uiso   1.00
H163   H     0.13730   0.22341   0.87707   0.00000  Uiso   1.00
H164   H     0.96284   0.03905   0.63294   0.00000  Uiso   1.00
H165   H     0.82323   0.37925   0.59253   0.00000  Uiso   1.00
H166   H     0.36473   0.24406   0.08197   0.00000  Uiso   1.00
H167   H     0.99685   0.85534   0.56719   0.00000  Uiso   1.00
H168   H     0.70244   0.57270   0.48195   0.00000  Uiso   1.00
H169   H     0.45928   0.31899   0.79942   0.00000  Uiso   1.00
H170   H     0.63507   0.33130   0.97827   0.00000  Uiso   1.00
H171   H     0.46061   0.14693   0.73414   0.00000  Uiso   1.00
H172   H     0.32100   0.48712   0.69372   0.00000  Uiso   1.00
H173   H     0.76874   0.33162   0.16411   0.00000  Uiso   1.00
H174   H     0.40085   0.94289   0.64931   0.00000  Uiso   1.00
H175   H     0.10645   0.66026   0.56409   0.00000  Uiso   1.00
O176   O     0.67387   0.29406   0.23896   0.00000  Uiso   1.00
O177   O     0.19120   0.78408   0.56357   0.00000  Uiso   1.00
O178   O     0.80495   0.72524   0.45175   0.00000  Uiso   1.00
N179   N     0.43568   0.26300   0.07675   0.00000  Uiso   1.00
N180   N     0.09174   0.89956   0.59547   0.00000  Uiso   1.00
N181   N     0.81648   0.57022   0.51577   0.00000  Uiso   1.00
N182   N     0.65308   0.31012   0.12095   0.00000  Uiso   1.00
N183   N     0.30914   0.94667   0.63967   0.00000  Uiso   1.00
N184   N     0.03388   0.61734   0.55996   0.00000  Uiso   1.00
