data_job_03322
_audit_creation_date              2018-12-19
_audit_creation_method            'Materials Studio'
_symmetry_space_group_name_H-M    'P1'
_symmetry_Int_Tables_number       1
_symmetry_cell_setting            triclinic
loop_
_symmetry_equiv_pos_as_xyz
  x,y,z
_cell_length_a                    11.6664
_cell_length_b                    21.5784
_cell_length_c                    23.9893
_cell_angle_alpha                 90.0000
_cell_angle_beta                  90.0000
_cell_angle_gamma                 90.0000
loop_
_atom_site_label
_atom_site_type_symbol
_atom_site_fract_x
_atom_site_fract_y
_atom_site_fract_z
_atom_site_U_iso_or_equiv
_atom_site_adp_type
_atom_site_occupancy
C1     C     0.16731   0.61311   0.58339   0.00000  Uiso   1.00
C2     C     0.26454   0.61478   0.54093   0.00000  Uiso   1.00
C3     C     0.25569   0.63504   0.48620   0.00000  Uiso   1.00
C4     C     0.35452   0.63290   0.45402   0.00000  Uiso   1.00
C5     C     0.48968   0.63875   0.38476   0.00000  Uiso   1.00
C6     C     0.16002   0.54622   0.60360   0.00000  Uiso   1.00
C7     C     0.06328   0.50886   0.60157   0.00000  Uiso   1.00
C8     C     0.07413   0.44901   0.62215   0.00000  Uiso   1.00
C9     C     0.04699   0.34844   0.65023   0.00000  Uiso   1.00
C10    C     0.20845   0.65101   0.63317   0.00000  Uiso   1.00
C11    C     0.15241   0.70174   0.65601   0.00000  Uiso   1.00
C12    C     0.20402   0.73011   0.70150   0.00000  Uiso   1.00
C13    C     0.25207   0.79224   0.77548   0.00000  Uiso   1.00
C14    C     0.35858   0.57326   0.62357   0.00000  Uiso   1.00
C15    C     0.36843   0.59313   0.56276   0.00000  Uiso   1.00
C16    C     0.46731   0.59095   0.53065   0.00000  Uiso   1.00
C17    C     0.45860   0.61122   0.47588   0.00000  Uiso   1.00
C18    C     0.26391   0.52457   0.62542   0.00000  Uiso   1.00
C19    C     0.27490   0.46477   0.64602   0.00000  Uiso   1.00
C20    C     0.17821   0.42732   0.64401   0.00000  Uiso   1.00
C21    C     0.31234   0.62936   0.65499   0.00000  Uiso   1.00
C22    C     0.36404   0.65765   0.70046   0.00000  Uiso   1.00
C23    C     0.30810   0.70842   0.72336   0.00000  Uiso   1.00
H24    H     0.08643   0.62996   0.56640   0.00000  Uiso   1.00
H25    H     0.17527   0.65179   0.46933   0.00000  Uiso   1.00
H26    H     0.98290   0.52562   0.58468   0.00000  Uiso   1.00
H27    H     0.07202   0.71848   0.63911   0.00000  Uiso   1.00
H28    H     0.31958   0.66643   0.37132   0.00000  Uiso   1.00
H29    H     0.91393   0.40041   0.61457   0.00000  Uiso   1.00
H30    H     0.10186   0.80708   0.72935   0.00000  Uiso   1.00
H31    H     0.43947   0.55640   0.64056   0.00000  Uiso   1.00
H32    H     0.54769   0.57420   0.54755   0.00000  Uiso   1.00
H33    H     0.35531   0.44803   0.66291   0.00000  Uiso   1.00
H34    H     0.44443   0.64089   0.71733   0.00000  Uiso   1.00
H35    H     0.62184   0.60345   0.43480   0.00000  Uiso   1.00
H36    H     0.21619   0.33743   0.67806   0.00000  Uiso   1.00
H37    H     0.40413   0.74411   0.79283   0.00000  Uiso   1.00
O38    O     0.53552   0.64795   0.34053   0.00000  Uiso   1.00
O39    O     0.00332   0.29895   0.65968   0.00000  Uiso   1.00
O40    O     0.24989   0.83250   0.81026   0.00000  Uiso   1.00
N41    N     0.37587   0.64917   0.39902   0.00000  Uiso   1.00
N42    N     0.99662   0.40046   0.62645   0.00000  Uiso   1.00
N43    N     0.17230   0.78066   0.73376   0.00000  Uiso   1.00
N44    N     0.53851   0.61529   0.43319   0.00000  Uiso   1.00
N45    N     0.15927   0.36657   0.66061   0.00000  Uiso   1.00
N46    N     0.33495   0.74677   0.76792   0.00000  Uiso   1.00
C47    C     0.33269   0.88689   0.08339   0.00000  Uiso   1.00
C48    C     0.23546   0.88522   0.04093   0.00000  Uiso   1.00
C49    C     0.24431   0.86496   0.98620   0.00000  Uiso   1.00
C50    C     0.14548   0.86710   0.95402   0.00000  Uiso   1.00
C51    C     0.01032   0.86125   0.88476   0.00000  Uiso   1.00
C52    C     0.33998   0.95378   0.10360   0.00000  Uiso   1.00
C53    C     0.43672   0.99114   0.10157   0.00000  Uiso   1.00
C54    C     0.42587   0.05099   0.12215   0.00000  Uiso   1.00
C55    C     0.45301   0.15156   0.15023   0.00000  Uiso   1.00
C56    C     0.29155   0.84899   0.13317   0.00000  Uiso   1.00
C57    C     0.34759   0.79826   0.15601   0.00000  Uiso   1.00
C58    C     0.29598   0.76989   0.20150   0.00000  Uiso   1.00
C59    C     0.24793   0.70776   0.27548   0.00000  Uiso   1.00
C60    C     0.14142   0.92674   0.12357   0.00000  Uiso   1.00
C61    C     0.13157   0.90687   0.06276   0.00000  Uiso   1.00
C62    C     0.03269   0.90905   0.03065   0.00000  Uiso   1.00
C63    C     0.04140   0.88878   0.97588   0.00000  Uiso   1.00
C64    C     0.23609   0.97543   0.12542   0.00000  Uiso   1.00
C65    C     0.22510   0.03523   0.14602   0.00000  Uiso   1.00
C66    C     0.32179   0.07268   0.14401   0.00000  Uiso   1.00
C67    C     0.18766   0.87064   0.15499   0.00000  Uiso   1.00
C68    C     0.13596   0.84235   0.20046   0.00000  Uiso   1.00
C69    C     0.19190   0.79158   0.22336   0.00000  Uiso   1.00
H70    H     0.41357   0.87004   0.06640   0.00000  Uiso   1.00
H71    H     0.32473   0.84821   0.96933   0.00000  Uiso   1.00
H72    H     0.51710   0.97438   0.08468   0.00000  Uiso   1.00
H73    H     0.42798   0.78152   0.13911   0.00000  Uiso   1.00
H74    H     0.18042   0.83357   0.87132   0.00000  Uiso   1.00
H75    H     0.58607   0.09959   0.11457   0.00000  Uiso   1.00
H76    H     0.39814   0.69292   0.22935   0.00000  Uiso   1.00
H77    H     0.06053   0.94360   0.14056   0.00000  Uiso   1.00
H78    H     0.95231   0.92580   0.04755   0.00000  Uiso   1.00
H79    H     0.14469   0.05197   0.16291   0.00000  Uiso   1.00
H80    H     0.05557   0.85911   0.21733   0.00000  Uiso   1.00
H81    H     0.87816   0.89655   0.93480   0.00000  Uiso   1.00
H82    H     0.28381   0.16257   0.17806   0.00000  Uiso   1.00
H83    H     0.09587   0.75589   0.29283   0.00000  Uiso   1.00
O84    O     0.96448   0.85205   0.84053   0.00000  Uiso   1.00
O85    O     0.49668   0.20105   0.15968   0.00000  Uiso   1.00
O86    O     0.25011   0.66750   0.31026   0.00000  Uiso   1.00
N87    N     0.12413   0.85083   0.89902   0.00000  Uiso   1.00
N88    N     0.50338   0.09954   0.12645   0.00000  Uiso   1.00
N89    N     0.32770   0.71934   0.23376   0.00000  Uiso   1.00
N90    N     0.96149   0.88471   0.93319   0.00000  Uiso   1.00
N91    N     0.34073   0.13343   0.16061   0.00000  Uiso   1.00
N92    N     0.16505   0.75323   0.26792   0.00000  Uiso   1.00
C93    C     0.83269   0.61311   0.91661   0.00000  Uiso   1.00
C94    C     0.73546   0.61478   0.95907   0.00000  Uiso   1.00
C95    C     0.74431   0.63504   0.01380   0.00000  Uiso   1.00
C96    C     0.64548   0.63290   0.04598   0.00000  Uiso   1.00
C97    C     0.51032   0.63875   0.11524   0.00000  Uiso   1.00
C98    C     0.83998   0.54622   0.89640   0.00000  Uiso   1.00
C99    C     0.93672   0.50886   0.89843   0.00000  Uiso   1.00
C100   C     0.92587   0.44901   0.87785   0.00000  Uiso   1.00
C101   C     0.95301   0.34844   0.84977   0.00000  Uiso   1.00
C102   C     0.79155   0.65101   0.86683   0.00000  Uiso   1.00
C103   C     0.84759   0.70174   0.84399   0.00000  Uiso   1.00
C104   C     0.79598   0.73011   0.79850   0.00000  Uiso   1.00
C105   C     0.74793   0.79224   0.72452   0.00000  Uiso   1.00
C106   C     0.64142   0.57326   0.87643   0.00000  Uiso   1.00
C107   C     0.63157   0.59313   0.93724   0.00000  Uiso   1.00
C108   C     0.53269   0.59095   0.96935   0.00000  Uiso   1.00
C109   C     0.54140   0.61122   0.02412   0.00000  Uiso   1.00
C110   C     0.73609   0.52457   0.87458   0.00000  Uiso   1.00
C111   C     0.72510   0.46477   0.85398   0.00000  Uiso   1.00
C112   C     0.82179   0.42732   0.85599   0.00000  Uiso   1.00
C113   C     0.68766   0.62936   0.84501   0.00000  Uiso   1.00
C114   C     0.63596   0.65765   0.79954   0.00000  Uiso   1.00
C115   C     0.69190   0.70842   0.77664   0.00000  Uiso   1.00
H116   H     0.91357   0.62996   0.93360   0.00000  Uiso   1.00
H117   H     0.82473   0.65179   0.03067   0.00000  Uiso   1.00
H118   H     0.01710   0.52562   0.91532   0.00000  Uiso   1.00
H119   H     0.92798   0.71848   0.86089   0.00000  Uiso   1.00
H120   H     0.68042   0.66643   0.12868   0.00000  Uiso   1.00
H121   H     0.08607   0.40041   0.88543   0.00000  Uiso   1.00
H122   H     0.89814   0.80708   0.77065   0.00000  Uiso   1.00
H123   H     0.56053   0.55640   0.85944   0.00000  Uiso   1.00
H124   H     0.45231   0.57420   0.95245   0.00000  Uiso   1.00
H125   H     0.64469   0.44803   0.83709   0.00000  Uiso   1.00
H126   H     0.55557   0.64089   0.78267   0.00000  Uiso   1.00
H127   H     0.37816   0.60345   0.06520   0.00000  Uiso   1.00
H128   H     0.78381   0.33743   0.82194   0.00000  Uiso   1.00
H129   H     0.59587   0.74411   0.70717   0.00000  Uiso   1.00
O130   O     0.46448   0.64795   0.15947   0.00000  Uiso   1.00
O131   O     0.99668   0.29895   0.84032   0.00000  Uiso   1.00
O132   O     0.75011   0.83250   0.68974   0.00000  Uiso   1.00
N133   N     0.62413   0.64917   0.10098   0.00000  Uiso   1.00
N134   N     0.00338   0.40046   0.87355   0.00000  Uiso   1.00
N135   N     0.82770   0.78066   0.76624   0.00000  Uiso   1.00
N136   N     0.46149   0.61529   0.06681   0.00000  Uiso   1.00
N137   N     0.84073   0.36657   0.83939   0.00000  Uiso   1.00
N138   N     0.66505   0.74677   0.73208   0.00000  Uiso   1.00
C139   C     0.66731   0.88689   0.41661   0.00000  Uiso   1.00
C140   C     0.76454   0.88522   0.45907   0.00000  Uiso   1.00
C141   C     0.75569   0.86496   0.51380   0.00000  Uiso   1.00
C142   C     0.85452   0.86710   0.54598   0.00000  Uiso   1.00
C143   C     0.98968   0.86125   0.61524   0.00000  Uiso   1.00
C144   C     0.66002   0.95378   0.39640   0.00000  Uiso   1.00
C145   C     0.56328   0.99114   0.39843   0.00000  Uiso   1.00
C146   C     0.57413   0.05099   0.37785   0.00000  Uiso   1.00
C147   C     0.54699   0.15156   0.34977   0.00000  Uiso   1.00
C148   C     0.70845   0.84899   0.36683   0.00000  Uiso   1.00
C149   C     0.65241   0.79826   0.34399   0.00000  Uiso   1.00
C150   C     0.70402   0.76989   0.29850   0.00000  Uiso   1.00
C151   C     0.75207   0.70776   0.22452   0.00000  Uiso   1.00
C152   C     0.85858   0.92674   0.37643   0.00000  Uiso   1.00
C153   C     0.86843   0.90687   0.43724   0.00000  Uiso   1.00
C154   C     0.96731   0.90905   0.46935   0.00000  Uiso   1.00
C155   C     0.95860   0.88878   0.52412   0.00000  Uiso   1.00
C156   C     0.76391   0.97543   0.37458   0.00000  Uiso   1.00
C157   C     0.77490   0.03523   0.35398   0.00000  Uiso   1.00
C158   C     0.67821   0.07268   0.35599   0.00000  Uiso   1.00
C159   C     0.81234   0.87064   0.34501   0.00000  Uiso   1.00
C160   C     0.86404   0.84235   0.29954   0.00000  Uiso   1.00
C161   C     0.80810   0.79158   0.27664   0.00000  Uiso   1.00
H162   H     0.58643   0.87004   0.43360   0.00000  Uiso   1.00
H163   H     0.67527   0.84821   0.53067   0.00000  Uiso   1.00
H164   H     0.48290   0.97438   0.41532   0.00000  Uiso   1.00
H165   H     0.57202   0.78152   0.36089   0.00000  Uiso   1.00
H166   H     0.81958   0.83357   0.62868   0.00000  Uiso   1.00
H167   H     0.41393   0.09959   0.38543   0.00000  Uiso   1.00
H168   H     0.60186   0.69292   0.27065   0.00000  Uiso   1.00
H169   H     0.93947   0.94360   0.35944   0.00000  Uiso   1.00
H170   H     0.04769   0.92580   0.45245   0.00000  Uiso   1.00
H171   H     0.85531   0.05197   0.33709   0.00000  Uiso   1.00
H172   H     0.94443   0.85911   0.28267   0.00000  Uiso   1.00
H173   H     0.12184   0.89655   0.56520   0.00000  Uiso   1.00
H174   H     0.71619   0.16257   0.32194   0.00000  Uiso   1.00
H175   H     0.90413   0.75589   0.20717   0.00000  Uiso   1.00
O176   O     0.03552   0.85205   0.65947   0.00000  Uiso   1.00
O177   O     0.50332   0.20105   0.34032   0.00000  Uiso   1.00
O178   O     0.74989   0.66750   0.18974   0.00000  Uiso   1.00
N179   N     0.87587   0.85083   0.60098   0.00000  Uiso   1.00
N180   N     0.49662   0.09954   0.37355   0.00000  Uiso   1.00
N181   N     0.67230   0.71934   0.26624   0.00000  Uiso   1.00
N182   N     0.03851   0.88471   0.56681   0.00000  Uiso   1.00
N183   N     0.65927   0.13343   0.33939   0.00000  Uiso   1.00
N184   N     0.83495   0.75323   0.23208   0.00000  Uiso   1.00
C185   C     0.83269   0.38689   0.41661   0.00000  Uiso   1.00
C186   C     0.73546   0.38522   0.45907   0.00000  Uiso   1.00
C187   C     0.74431   0.36496   0.51380   0.00000  Uiso   1.00
C188   C     0.64548   0.36710   0.54598   0.00000  Uiso   1.00
C189   C     0.51032   0.36125   0.61524   0.00000  Uiso   1.00
C190   C     0.83998   0.45378   0.39640   0.00000  Uiso   1.00
C191   C     0.93672   0.49114   0.39843   0.00000  Uiso   1.00
C192   C     0.92587   0.55099   0.37785   0.00000  Uiso   1.00
C193   C     0.95301   0.65156   0.34977   0.00000  Uiso   1.00
C194   C     0.79155   0.34899   0.36683   0.00000  Uiso   1.00
C195   C     0.84759   0.29826   0.34399   0.00000  Uiso   1.00
C196   C     0.79598   0.26989   0.29850   0.00000  Uiso   1.00
C197   C     0.74793   0.20776   0.22452   0.00000  Uiso   1.00
C198   C     0.64142   0.42674   0.37643   0.00000  Uiso   1.00
C199   C     0.63157   0.40687   0.43724   0.00000  Uiso   1.00
C200   C     0.53269   0.40905   0.46935   0.00000  Uiso   1.00
C201   C     0.54140   0.38878   0.52412   0.00000  Uiso   1.00
C202   C     0.73609   0.47543   0.37458   0.00000  Uiso   1.00
C203   C     0.72510   0.53523   0.35398   0.00000  Uiso   1.00
C204   C     0.82179   0.57268   0.35599   0.00000  Uiso   1.00
C205   C     0.68766   0.37064   0.34501   0.00000  Uiso   1.00
C206   C     0.63596   0.34235   0.29954   0.00000  Uiso   1.00
C207   C     0.69190   0.29158   0.27664   0.00000  Uiso   1.00
H208   H     0.91357   0.37004   0.43360   0.00000  Uiso   1.00
H209   H     0.82473   0.34821   0.53067   0.00000  Uiso   1.00
H210   H     0.01710   0.47438   0.41532   0.00000  Uiso   1.00
H211   H     0.92798   0.28152   0.36089   0.00000  Uiso   1.00
H212   H     0.68042   0.33357   0.62868   0.00000  Uiso   1.00
H213   H     0.08607   0.59959   0.38543   0.00000  Uiso   1.00
H214   H     0.89814   0.19292   0.27065   0.00000  Uiso   1.00
H215   H     0.56053   0.44360   0.35944   0.00000  Uiso   1.00
H216   H     0.45231   0.42580   0.45245   0.00000  Uiso   1.00
H217   H     0.64469   0.55197   0.33709   0.00000  Uiso   1.00
H218   H     0.55557   0.35911   0.28267   0.00000  Uiso   1.00
H219   H     0.37816   0.39655   0.56520   0.00000  Uiso   1.00
H220   H     0.78381   0.66257   0.32194   0.00000  Uiso   1.00
H221   H     0.59587   0.25589   0.20717   0.00000  Uiso   1.00
O222   O     0.46448   0.35205   0.65947   0.00000  Uiso   1.00
O223   O     0.99668   0.70105   0.34032   0.00000  Uiso   1.00
O224   O     0.75011   0.16750   0.18974   0.00000  Uiso   1.00
N225   N     0.62413   0.35083   0.60098   0.00000  Uiso   1.00
N226   N     0.00338   0.59954   0.37355   0.00000  Uiso   1.00
N227   N     0.82770   0.21934   0.26624   0.00000  Uiso   1.00
N228   N     0.46149   0.38471   0.56681   0.00000  Uiso   1.00
N229   N     0.84073   0.63343   0.33939   0.00000  Uiso   1.00
N230   N     0.66505   0.25323   0.23208   0.00000  Uiso   1.00
C231   C     0.66731   0.11311   0.91661   0.00000  Uiso   1.00
C232   C     0.76454   0.11478   0.95907   0.00000  Uiso   1.00
C233   C     0.75569   0.13504   0.01380   0.00000  Uiso   1.00
C234   C     0.85452   0.13290   0.04598   0.00000  Uiso   1.00
C235   C     0.98968   0.13875   0.11524   0.00000  Uiso   1.00
C236   C     0.66002   0.04622   0.89640   0.00000  Uiso   1.00
C237   C     0.56328   0.00886   0.89843   0.00000  Uiso   1.00
C238   C     0.57413   0.94901   0.87785   0.00000  Uiso   1.00
C239   C     0.54699   0.84844   0.84977   0.00000  Uiso   1.00
C240   C     0.70845   0.15101   0.86683   0.00000  Uiso   1.00
C241   C     0.65241   0.20174   0.84399   0.00000  Uiso   1.00
C242   C     0.70402   0.23011   0.79850   0.00000  Uiso   1.00
C243   C     0.75207   0.29224   0.72452   0.00000  Uiso   1.00
C244   C     0.85858   0.07326   0.87643   0.00000  Uiso   1.00
C245   C     0.86843   0.09313   0.93724   0.00000  Uiso   1.00
C246   C     0.96731   0.09095   0.96935   0.00000  Uiso   1.00
C247   C     0.95860   0.11122   0.02412   0.00000  Uiso   1.00
C248   C     0.76391   0.02457   0.87458   0.00000  Uiso   1.00
C249   C     0.77490   0.96477   0.85398   0.00000  Uiso   1.00
C250   C     0.67821   0.92732   0.85599   0.00000  Uiso   1.00
C251   C     0.81234   0.12936   0.84501   0.00000  Uiso   1.00
C252   C     0.86404   0.15765   0.79954   0.00000  Uiso   1.00
C253   C     0.80810   0.20842   0.77664   0.00000  Uiso   1.00
H254   H     0.58643   0.12996   0.93360   0.00000  Uiso   1.00
H255   H     0.67527   0.15179   0.03067   0.00000  Uiso   1.00
H256   H     0.48290   0.02562   0.91532   0.00000  Uiso   1.00
H257   H     0.57202   0.21848   0.86089   0.00000  Uiso   1.00
H258   H     0.81958   0.16643   0.12868   0.00000  Uiso   1.00
H259   H     0.41393   0.90041   0.88543   0.00000  Uiso   1.00
H260   H     0.60186   0.30708   0.77065   0.00000  Uiso   1.00
H261   H     0.93947   0.05640   0.85944   0.00000  Uiso   1.00
H262   H     0.04769   0.07420   0.95245   0.00000  Uiso   1.00
H263   H     0.85531   0.94803   0.83709   0.00000  Uiso   1.00
H264   H     0.94443   0.14089   0.78267   0.00000  Uiso   1.00
H265   H     0.12184   0.10345   0.06520   0.00000  Uiso   1.00
H266   H     0.71619   0.83743   0.82194   0.00000  Uiso   1.00
H267   H     0.90413   0.24411   0.70717   0.00000  Uiso   1.00
O268   O     0.03552   0.14795   0.15947   0.00000  Uiso   1.00
O269   O     0.50332   0.79895   0.84032   0.00000  Uiso   1.00
O270   O     0.74989   0.33250   0.68974   0.00000  Uiso   1.00
N271   N     0.87587   0.14917   0.10098   0.00000  Uiso   1.00
N272   N     0.49662   0.90046   0.87355   0.00000  Uiso   1.00
N273   N     0.67230   0.28066   0.76624   0.00000  Uiso   1.00
N274   N     0.03851   0.11529   0.06681   0.00000  Uiso   1.00
N275   N     0.65927   0.86657   0.83939   0.00000  Uiso   1.00
N276   N     0.83495   0.24677   0.73208   0.00000  Uiso   1.00
C277   C     0.16731   0.38689   0.08339   0.00000  Uiso   1.00
C278   C     0.26454   0.38522   0.04093   0.00000  Uiso   1.00
C279   C     0.25569   0.36496   0.98620   0.00000  Uiso   1.00
C280   C     0.35452   0.36710   0.95402   0.00000  Uiso   1.00
C281   C     0.48968   0.36125   0.88476   0.00000  Uiso   1.00
C282   C     0.16002   0.45378   0.10360   0.00000  Uiso   1.00
C283   C     0.06328   0.49114   0.10157   0.00000  Uiso   1.00
C284   C     0.07413   0.55099   0.12215   0.00000  Uiso   1.00
C285   C     0.04699   0.65156   0.15023   0.00000  Uiso   1.00
C286   C     0.20845   0.34899   0.13317   0.00000  Uiso   1.00
C287   C     0.15241   0.29826   0.15601   0.00000  Uiso   1.00
C288   C     0.20402   0.26989   0.20150   0.00000  Uiso   1.00
C289   C     0.25207   0.20776   0.27548   0.00000  Uiso   1.00
C290   C     0.35858   0.42674   0.12357   0.00000  Uiso   1.00
C291   C     0.36843   0.40687   0.06276   0.00000  Uiso   1.00
C292   C     0.46731   0.40905   0.03065   0.00000  Uiso   1.00
C293   C     0.45860   0.38878   0.97588   0.00000  Uiso   1.00
C294   C     0.26391   0.47543   0.12542   0.00000  Uiso   1.00
C295   C     0.27490   0.53523   0.14602   0.00000  Uiso   1.00
C296   C     0.17821   0.57268   0.14401   0.00000  Uiso   1.00
C297   C     0.31234   0.37064   0.15499   0.00000  Uiso   1.00
C298   C     0.36404   0.34235   0.20046   0.00000  Uiso   1.00
C299   C     0.30810   0.29158   0.22336   0.00000  Uiso   1.00
H300   H     0.08643   0.37004   0.06640   0.00000  Uiso   1.00
H301   H     0.17527   0.34821   0.96933   0.00000  Uiso   1.00
H302   H     0.98290   0.47438   0.08468   0.00000  Uiso   1.00
H303   H     0.07202   0.28152   0.13911   0.00000  Uiso   1.00
H304   H     0.31958   0.33357   0.87132   0.00000  Uiso   1.00
H305   H     0.91393   0.59959   0.11457   0.00000  Uiso   1.00
H306   H     0.10186   0.19292   0.22935   0.00000  Uiso   1.00
H307   H     0.43947   0.44360   0.14056   0.00000  Uiso   1.00
H308   H     0.54769   0.42580   0.04755   0.00000  Uiso   1.00
H309   H     0.35531   0.55197   0.16291   0.00000  Uiso   1.00
H310   H     0.44443   0.35911   0.21733   0.00000  Uiso   1.00
H311   H     0.62184   0.39655   0.93480   0.00000  Uiso   1.00
H312   H     0.21619   0.66257   0.17806   0.00000  Uiso   1.00
H313   H     0.40413   0.25589   0.29283   0.00000  Uiso   1.00
O314   O     0.53552   0.35205   0.84053   0.00000  Uiso   1.00
O315   O     0.00332   0.70105   0.15968   0.00000  Uiso   1.00
O316   O     0.24989   0.16750   0.31026   0.00000  Uiso   1.00
N317   N     0.37587   0.35083   0.89902   0.00000  Uiso   1.00
N318   N     0.99662   0.59954   0.12645   0.00000  Uiso   1.00
N319   N     0.17230   0.21934   0.23376   0.00000  Uiso   1.00
N320   N     0.53851   0.38471   0.93319   0.00000  Uiso   1.00
N321   N     0.15927   0.63343   0.16061   0.00000  Uiso   1.00
N322   N     0.33495   0.25323   0.26792   0.00000  Uiso   1.00
C323   C     0.33269   0.11311   0.58339   0.00000  Uiso   1.00
C324   C     0.23546   0.11478   0.54093   0.00000  Uiso   1.00
C325   C     0.24431   0.13504   0.48620   0.00000  Uiso   1.00
C326   C     0.14548   0.13290   0.45402   0.00000  Uiso   1.00
C327   C     0.01032   0.13875   0.38476   0.00000  Uiso   1.00
C328   C     0.33998   0.04622   0.60360   0.00000  Uiso   1.00
C329   C     0.43672   0.00886   0.60157   0.00000  Uiso   1.00
C330   C     0.42587   0.94901   0.62215   0.00000  Uiso   1.00
C331   C     0.45301   0.84844   0.65023   0.00000  Uiso   1.00
C332   C     0.29155   0.15101   0.63317   0.00000  Uiso   1.00
C333   C     0.34759   0.20174   0.65601   0.00000  Uiso   1.00
C334   C     0.29598   0.23011   0.70150   0.00000  Uiso   1.00
C335   C     0.24793   0.29224   0.77548   0.00000  Uiso   1.00
C336   C     0.14142   0.07326   0.62357   0.00000  Uiso   1.00
C337   C     0.13157   0.09313   0.56276   0.00000  Uiso   1.00
C338   C     0.03269   0.09095   0.53065   0.00000  Uiso   1.00
C339   C     0.04140   0.11122   0.47588   0.00000  Uiso   1.00
C340   C     0.23609   0.02457   0.62542   0.00000  Uiso   1.00
C341   C     0.22510   0.96477   0.64602   0.00000  Uiso   1.00
C342   C     0.32179   0.92732   0.64401   0.00000  Uiso   1.00
C343   C     0.18766   0.12936   0.65499   0.00000  Uiso   1.00
C344   C     0.13596   0.15765   0.70046   0.00000  Uiso   1.00
C345   C     0.19190   0.20842   0.72336   0.00000  Uiso   1.00
H346   H     0.41357   0.12996   0.56640   0.00000  Uiso   1.00
H347   H     0.32473   0.15179   0.46933   0.00000  Uiso   1.00
H348   H     0.51710   0.02562   0.58468   0.00000  Uiso   1.00
H349   H     0.42798   0.21848   0.63911   0.00000  Uiso   1.00
H350   H     0.18042   0.16643   0.37132   0.00000  Uiso   1.00
H351   H     0.58607   0.90041   0.61457   0.00000  Uiso   1.00
H352   H     0.39814   0.30708   0.72935   0.00000  Uiso   1.00
H353   H     0.06053   0.05640   0.64056   0.00000  Uiso   1.00
H354   H     0.95231   0.07420   0.54755   0.00000  Uiso   1.00
H355   H     0.14469   0.94803   0.66291   0.00000  Uiso   1.00
H356   H     0.05557   0.14089   0.71733   0.00000  Uiso   1.00
H357   H     0.87816   0.10345   0.43480   0.00000  Uiso   1.00
H358   H     0.28381   0.83743   0.67806   0.00000  Uiso   1.00
H359   H     0.09587   0.24411   0.79283   0.00000  Uiso   1.00
O360   O     0.96448   0.14795   0.34053   0.00000  Uiso   1.00
O361   O     0.49668   0.79895   0.65968   0.00000  Uiso   1.00
O362   O     0.25011   0.33250   0.81026   0.00000  Uiso   1.00
N363   N     0.12413   0.14917   0.39902   0.00000  Uiso   1.00
N364   N     0.50338   0.90046   0.62645   0.00000  Uiso   1.00
N365   N     0.32770   0.28066   0.73376   0.00000  Uiso   1.00
N366   N     0.96149   0.11529   0.43319   0.00000  Uiso   1.00
N367   N     0.34073   0.86657   0.66061   0.00000  Uiso   1.00
N368   N     0.16505   0.24677   0.76792   0.00000  Uiso   1.00
