data_job_04227
_audit_creation_date              2018-12-19
_audit_creation_method            'Materials Studio'
_symmetry_space_group_name_H-M    'P1'
_symmetry_Int_Tables_number       1
_symmetry_cell_setting            triclinic
loop_
_symmetry_equiv_pos_as_xyz
  x,y,z
_cell_length_a                    31.0327
_cell_length_b                    9.8590
_cell_length_c                    19.0925
_cell_angle_alpha                 90.0000
_cell_angle_beta                  90.0000
_cell_angle_gamma                 90.0000
loop_
_atom_site_label
_atom_site_type_symbol
_atom_site_fract_x
_atom_site_fract_y
_atom_site_fract_z
_atom_site_U_iso_or_equiv
_atom_site_adp_type
_atom_site_occupancy
C1     C     0.16808   0.16948   0.20448   0.00000  Uiso   1.00
C2     C     0.17978   0.12438   0.27847   0.00000  Uiso   1.00
C3     C     0.21319   0.03735   0.29619   0.00000  Uiso   1.00
C4     C     0.21862   0.00857   0.36682   0.00000  Uiso   1.00
C5     C     0.24089   0.92993   0.47395   0.00000  Uiso   1.00
C6     C     0.12091   0.13100   0.19412   0.00000  Uiso   1.00
C7     C     0.10483   0.04955   0.14091   0.00000  Uiso   1.00
C8     C     0.06070   0.02636   0.14054   0.00000  Uiso   1.00
C9     C     0.99157   0.95808   0.11668   0.00000  Uiso   1.00
C10    C     0.16942   0.32408   0.20521   0.00000  Uiso   1.00
C11    C     0.19412   0.40498   0.16132   0.00000  Uiso   1.00
C12    C     0.19083   0.54435   0.17027   0.00000  Uiso   1.00
C13    C     0.19703   0.77585   0.16364   0.00000  Uiso   1.00
C14    C     0.11830   0.27315   0.29842   0.00000  Uiso   1.00
C15    C     0.15274   0.18069   0.32950   0.00000  Uiso   1.00
C16    C     0.15812   0.15205   0.40012   0.00000  Uiso   1.00
C17    C     0.19154   0.06499   0.41794   0.00000  Uiso   1.00
C18    C     0.09387   0.18731   0.24515   0.00000  Uiso   1.00
C19    C     0.04976   0.16425   0.24485   0.00000  Uiso   1.00
C20    C     0.03361   0.08277   0.19166   0.00000  Uiso   1.00
C21    C     0.14239   0.38039   0.25624   0.00000  Uiso   1.00
C22    C     0.13906   0.51967   0.26526   0.00000  Uiso   1.00
C23    C     0.16375   0.60076   0.22139   0.00000  Uiso   1.00
H24    H     0.18912   0.12563   0.16475   0.00000  Uiso   1.00
H25    H     0.23411   0.99378   0.25668   0.00000  Uiso   1.00
H26    H     0.12575   0.00600   0.10143   0.00000  Uiso   1.00
H27    H     0.21504   0.36136   0.12184   0.00000  Uiso   1.00
H28    H     0.27205   0.87239   0.38111   0.00000  Uiso   1.00
H29    H     0.04358   0.89818   0.05373   0.00000  Uiso   1.00
H30    H     0.23186   0.64755   0.09676   0.00000  Uiso   1.00
H31    H     0.09725   0.31699   0.33815   0.00000  Uiso   1.00
H32    H     0.13720   0.19564   0.43960   0.00000  Uiso   1.00
H33    H     0.02884   0.20785   0.28434   0.00000  Uiso   1.00
H34    H     0.11813   0.56322   0.30475   0.00000  Uiso   1.00
H35    H     0.19339   0.03622   0.52957   0.00000  Uiso   1.00
H36    H     0.96492   0.06201   0.20219   0.00000  Uiso   1.00
H37    H     0.15320   0.81138   0.24522   0.00000  Uiso   1.00
O38    O     0.26064   0.87098   0.51895   0.00000  Uiso   1.00
O39    O     0.96091   0.90484   0.08943   0.00000  Uiso   1.00
O40    O     0.20793   0.88799   0.14589   0.00000  Uiso   1.00
N41    N     0.24806   0.92762   0.40213   0.00000  Uiso   1.00
N42    N     0.03446   0.95172   0.09606   0.00000  Uiso   1.00
N43    N     0.21047   0.65231   0.13627   0.00000  Uiso   1.00
N44    N     0.20573   0.01578   0.48201   0.00000  Uiso   1.00
N45    N     0.99213   0.03987   0.17594   0.00000  Uiso   1.00
N46    N     0.16815   0.74047   0.21616   0.00000  Uiso   1.00
C47    C     0.33192   0.83052   0.70448   0.00000  Uiso   1.00
C48    C     0.32022   0.87562   0.77847   0.00000  Uiso   1.00
C49    C     0.28681   0.96265   0.79619   0.00000  Uiso   1.00
C50    C     0.28138   0.99143   0.86682   0.00000  Uiso   1.00
C51    C     0.25911   0.07007   0.97395   0.00000  Uiso   1.00
C52    C     0.37909   0.86900   0.69412   0.00000  Uiso   1.00
C53    C     0.39517   0.95045   0.64091   0.00000  Uiso   1.00
C54    C     0.43930   0.97364   0.64054   0.00000  Uiso   1.00
C55    C     0.50843   0.04192   0.61668   0.00000  Uiso   1.00
C56    C     0.33058   0.67592   0.70521   0.00000  Uiso   1.00
C57    C     0.30588   0.59502   0.66132   0.00000  Uiso   1.00
C58    C     0.30917   0.45565   0.67027   0.00000  Uiso   1.00
C59    C     0.30297   0.22415   0.66364   0.00000  Uiso   1.00
C60    C     0.38170   0.72685   0.79842   0.00000  Uiso   1.00
C61    C     0.34726   0.81931   0.82950   0.00000  Uiso   1.00
C62    C     0.34188   0.84795   0.90012   0.00000  Uiso   1.00
C63    C     0.30846   0.93501   0.91794   0.00000  Uiso   1.00
C64    C     0.40613   0.81269   0.74515   0.00000  Uiso   1.00
C65    C     0.45024   0.83575   0.74485   0.00000  Uiso   1.00
C66    C     0.46639   0.91723   0.69166   0.00000  Uiso   1.00
C67    C     0.35761   0.61961   0.75624   0.00000  Uiso   1.00
C68    C     0.36094   0.48033   0.76526   0.00000  Uiso   1.00
C69    C     0.33625   0.39924   0.72139   0.00000  Uiso   1.00
H70    H     0.31088   0.87437   0.66475   0.00000  Uiso   1.00
H71    H     0.26589   0.00622   0.75668   0.00000  Uiso   1.00
H72    H     0.37425   0.99400   0.60143   0.00000  Uiso   1.00
H73    H     0.28496   0.63864   0.62184   0.00000  Uiso   1.00
H74    H     0.22795   0.12761   0.88111   0.00000  Uiso   1.00
H75    H     0.45642   0.10182   0.55373   0.00000  Uiso   1.00
H76    H     0.26814   0.35245   0.59676   0.00000  Uiso   1.00
H77    H     0.40275   0.68301   0.83815   0.00000  Uiso   1.00
H78    H     0.36280   0.80436   0.93960   0.00000  Uiso   1.00
H79    H     0.47116   0.79215   0.78434   0.00000  Uiso   1.00
H80    H     0.38187   0.43678   0.80475   0.00000  Uiso   1.00
H81    H     0.30661   0.96378   0.02957   0.00000  Uiso   1.00
H82    H     0.53508   0.93799   0.70219   0.00000  Uiso   1.00
H83    H     0.34680   0.18862   0.74522   0.00000  Uiso   1.00
O84    O     0.23936   0.12902   0.01895   0.00000  Uiso   1.00
O85    O     0.53909   0.09516   0.58943   0.00000  Uiso   1.00
O86    O     0.29207   0.11201   0.64589   0.00000  Uiso   1.00
N87    N     0.25194   0.07238   0.90213   0.00000  Uiso   1.00
N88    N     0.46554   0.04828   0.59606   0.00000  Uiso   1.00
N89    N     0.28953   0.34769   0.63627   0.00000  Uiso   1.00
N90    N     0.29427   0.98422   0.98201   0.00000  Uiso   1.00
N91    N     0.50787   0.96013   0.67594   0.00000  Uiso   1.00
N92    N     0.33185   0.25953   0.71616   0.00000  Uiso   1.00
C93    C     0.83192   0.66948   0.29552   0.00000  Uiso   1.00
C94    C     0.82022   0.62438   0.22153   0.00000  Uiso   1.00
C95    C     0.78681   0.53735   0.20381   0.00000  Uiso   1.00
C96    C     0.78138   0.50857   0.13318   0.00000  Uiso   1.00
C97    C     0.75911   0.42993   0.02605   0.00000  Uiso   1.00
C98    C     0.87909   0.63100   0.30588   0.00000  Uiso   1.00
C99    C     0.89517   0.54955   0.35909   0.00000  Uiso   1.00
C100   C     0.93930   0.52636   0.35946   0.00000  Uiso   1.00
C101   C     0.00843   0.45808   0.38332   0.00000  Uiso   1.00
C102   C     0.83058   0.82408   0.29479   0.00000  Uiso   1.00
C103   C     0.80588   0.90498   0.33868   0.00000  Uiso   1.00
C104   C     0.80917   0.04435   0.32973   0.00000  Uiso   1.00
C105   C     0.80297   0.27585   0.33636   0.00000  Uiso   1.00
C106   C     0.88170   0.77315   0.20158   0.00000  Uiso   1.00
C107   C     0.84726   0.68069   0.17050   0.00000  Uiso   1.00
C108   C     0.84188   0.65205   0.09988   0.00000  Uiso   1.00
C109   C     0.80846   0.56499   0.08206   0.00000  Uiso   1.00
C110   C     0.90613   0.68731   0.25485   0.00000  Uiso   1.00
C111   C     0.95024   0.66425   0.25515   0.00000  Uiso   1.00
C112   C     0.96639   0.58277   0.30834   0.00000  Uiso   1.00
C113   C     0.85761   0.88039   0.24376   0.00000  Uiso   1.00
C114   C     0.86094   0.01967   0.23474   0.00000  Uiso   1.00
C115   C     0.83625   0.10076   0.27861   0.00000  Uiso   1.00
H116   H     0.81088   0.62563   0.33525   0.00000  Uiso   1.00
H117   H     0.76589   0.49378   0.24332   0.00000  Uiso   1.00
H118   H     0.87425   0.50600   0.39857   0.00000  Uiso   1.00
H119   H     0.78496   0.86136   0.37816   0.00000  Uiso   1.00
H120   H     0.72795   0.37239   0.11889   0.00000  Uiso   1.00
H121   H     0.95642   0.39818   0.44627   0.00000  Uiso   1.00
H122   H     0.76814   0.14755   0.40324   0.00000  Uiso   1.00
H123   H     0.90275   0.81699   0.16185   0.00000  Uiso   1.00
H124   H     0.86280   0.69564   0.06040   0.00000  Uiso   1.00
H125   H     0.97116   0.70785   0.21566   0.00000  Uiso   1.00
H126   H     0.88187   0.06322   0.19525   0.00000  Uiso   1.00
H127   H     0.80661   0.53622   0.97043   0.00000  Uiso   1.00
H128   H     0.03508   0.56201   0.29781   0.00000  Uiso   1.00
H129   H     0.84680   0.31138   0.25478   0.00000  Uiso   1.00
O130   O     0.73936   0.37098   0.98105   0.00000  Uiso   1.00
O131   O     0.03909   0.40484   0.41057   0.00000  Uiso   1.00
O132   O     0.79207   0.38799   0.35411   0.00000  Uiso   1.00
N133   N     0.75194   0.42762   0.09787   0.00000  Uiso   1.00
N134   N     0.96554   0.45172   0.40394   0.00000  Uiso   1.00
N135   N     0.78953   0.15231   0.36373   0.00000  Uiso   1.00
N136   N     0.79427   0.51578   0.01799   0.00000  Uiso   1.00
N137   N     0.00787   0.53987   0.32406   0.00000  Uiso   1.00
N138   N     0.83185   0.24047   0.28384   0.00000  Uiso   1.00
C139   C     0.66808   0.33052   0.79552   0.00000  Uiso   1.00
C140   C     0.67978   0.37562   0.72153   0.00000  Uiso   1.00
C141   C     0.71319   0.46265   0.70381   0.00000  Uiso   1.00
C142   C     0.71862   0.49143   0.63318   0.00000  Uiso   1.00
C143   C     0.74089   0.57007   0.52605   0.00000  Uiso   1.00
C144   C     0.62091   0.36900   0.80588   0.00000  Uiso   1.00
C145   C     0.60483   0.45045   0.85909   0.00000  Uiso   1.00
C146   C     0.56070   0.47364   0.85946   0.00000  Uiso   1.00
C147   C     0.49157   0.54192   0.88332   0.00000  Uiso   1.00
C148   C     0.66942   0.17592   0.79479   0.00000  Uiso   1.00
C149   C     0.69412   0.09502   0.83868   0.00000  Uiso   1.00
C150   C     0.69083   0.95565   0.82973   0.00000  Uiso   1.00
C151   C     0.69703   0.72415   0.83636   0.00000  Uiso   1.00
C152   C     0.61830   0.22685   0.70158   0.00000  Uiso   1.00
C153   C     0.65274   0.31931   0.67050   0.00000  Uiso   1.00
C154   C     0.65812   0.34795   0.59988   0.00000  Uiso   1.00
C155   C     0.69154   0.43501   0.58206   0.00000  Uiso   1.00
C156   C     0.59387   0.31269   0.75485   0.00000  Uiso   1.00
C157   C     0.54976   0.33575   0.75515   0.00000  Uiso   1.00
C158   C     0.53361   0.41723   0.80834   0.00000  Uiso   1.00
C159   C     0.64239   0.11961   0.74376   0.00000  Uiso   1.00
C160   C     0.63906   0.98033   0.73474   0.00000  Uiso   1.00
C161   C     0.66375   0.89924   0.77861   0.00000  Uiso   1.00
H162   H     0.68912   0.37437   0.83525   0.00000  Uiso   1.00
H163   H     0.73411   0.50622   0.74332   0.00000  Uiso   1.00
H164   H     0.62575   0.49400   0.89857   0.00000  Uiso   1.00
H165   H     0.71504   0.13864   0.87816   0.00000  Uiso   1.00
H166   H     0.77205   0.62761   0.61889   0.00000  Uiso   1.00
H167   H     0.54358   0.60182   0.94627   0.00000  Uiso   1.00
H168   H     0.73186   0.85245   0.90324   0.00000  Uiso   1.00
H169   H     0.59725   0.18301   0.66185   0.00000  Uiso   1.00
H170   H     0.63720   0.30436   0.56040   0.00000  Uiso   1.00
H171   H     0.52884   0.29215   0.71566   0.00000  Uiso   1.00
H172   H     0.61813   0.93678   0.69525   0.00000  Uiso   1.00
H173   H     0.69339   0.46378   0.47043   0.00000  Uiso   1.00
H174   H     0.46492   0.43799   0.79781   0.00000  Uiso   1.00
H175   H     0.65320   0.68862   0.75478   0.00000  Uiso   1.00
O176   O     0.76064   0.62902   0.48105   0.00000  Uiso   1.00
O177   O     0.46091   0.59516   0.91057   0.00000  Uiso   1.00
O178   O     0.70793   0.61201   0.85411   0.00000  Uiso   1.00
N179   N     0.74806   0.57238   0.59787   0.00000  Uiso   1.00
N180   N     0.53446   0.54828   0.90394   0.00000  Uiso   1.00
N181   N     0.71047   0.84769   0.86373   0.00000  Uiso   1.00
N182   N     0.70573   0.48422   0.51799   0.00000  Uiso   1.00
N183   N     0.49213   0.46013   0.82406   0.00000  Uiso   1.00
N184   N     0.66815   0.75953   0.78384   0.00000  Uiso   1.00
C185   C     0.83192   0.83052   0.79552   0.00000  Uiso   1.00
C186   C     0.82022   0.87562   0.72153   0.00000  Uiso   1.00
C187   C     0.78681   0.96265   0.70381   0.00000  Uiso   1.00
C188   C     0.78138   0.99143   0.63318   0.00000  Uiso   1.00
C189   C     0.75911   0.07007   0.52605   0.00000  Uiso   1.00
C190   C     0.87909   0.86900   0.80588   0.00000  Uiso   1.00
C191   C     0.89517   0.95045   0.85909   0.00000  Uiso   1.00
C192   C     0.93930   0.97364   0.85946   0.00000  Uiso   1.00
C193   C     0.00843   0.04192   0.88332   0.00000  Uiso   1.00
C194   C     0.83058   0.67592   0.79479   0.00000  Uiso   1.00
C195   C     0.80588   0.59502   0.83868   0.00000  Uiso   1.00
C196   C     0.80917   0.45565   0.82973   0.00000  Uiso   1.00
C197   C     0.80297   0.22415   0.83636   0.00000  Uiso   1.00
C198   C     0.88170   0.72685   0.70158   0.00000  Uiso   1.00
C199   C     0.84726   0.81931   0.67050   0.00000  Uiso   1.00
C200   C     0.84188   0.84795   0.59988   0.00000  Uiso   1.00
C201   C     0.80846   0.93501   0.58206   0.00000  Uiso   1.00
C202   C     0.90613   0.81269   0.75485   0.00000  Uiso   1.00
C203   C     0.95024   0.83575   0.75515   0.00000  Uiso   1.00
C204   C     0.96639   0.91723   0.80834   0.00000  Uiso   1.00
C205   C     0.85761   0.61961   0.74376   0.00000  Uiso   1.00
C206   C     0.86094   0.48033   0.73474   0.00000  Uiso   1.00
C207   C     0.83625   0.39924   0.77861   0.00000  Uiso   1.00
H208   H     0.81088   0.87437   0.83525   0.00000  Uiso   1.00
H209   H     0.76589   0.00622   0.74332   0.00000  Uiso   1.00
H210   H     0.87425   0.99400   0.89857   0.00000  Uiso   1.00
H211   H     0.78496   0.63864   0.87816   0.00000  Uiso   1.00
H212   H     0.72795   0.12761   0.61889   0.00000  Uiso   1.00
H213   H     0.95642   0.10182   0.94627   0.00000  Uiso   1.00
H214   H     0.76814   0.35245   0.90324   0.00000  Uiso   1.00
H215   H     0.90275   0.68301   0.66185   0.00000  Uiso   1.00
H216   H     0.86280   0.80436   0.56040   0.00000  Uiso   1.00
H217   H     0.97116   0.79215   0.71566   0.00000  Uiso   1.00
H218   H     0.88187   0.43678   0.69525   0.00000  Uiso   1.00
H219   H     0.80661   0.96378   0.47043   0.00000  Uiso   1.00
H220   H     0.03508   0.93799   0.79781   0.00000  Uiso   1.00
H221   H     0.84680   0.18862   0.75478   0.00000  Uiso   1.00
O222   O     0.73936   0.12902   0.48105   0.00000  Uiso   1.00
O223   O     0.03909   0.09516   0.91057   0.00000  Uiso   1.00
O224   O     0.79207   0.11201   0.85411   0.00000  Uiso   1.00
N225   N     0.75194   0.07238   0.59787   0.00000  Uiso   1.00
N226   N     0.96554   0.04828   0.90394   0.00000  Uiso   1.00
N227   N     0.78953   0.34769   0.86373   0.00000  Uiso   1.00
N228   N     0.79427   0.98422   0.51799   0.00000  Uiso   1.00
N229   N     0.00787   0.96013   0.82406   0.00000  Uiso   1.00
N230   N     0.83185   0.25953   0.78384   0.00000  Uiso   1.00
C231   C     0.66808   0.16948   0.29552   0.00000  Uiso   1.00
C232   C     0.67978   0.12438   0.22153   0.00000  Uiso   1.00
C233   C     0.71319   0.03735   0.20381   0.00000  Uiso   1.00
C234   C     0.71862   0.00857   0.13318   0.00000  Uiso   1.00
C235   C     0.74089   0.92993   0.02605   0.00000  Uiso   1.00
C236   C     0.62091   0.13100   0.30588   0.00000  Uiso   1.00
C237   C     0.60483   0.04955   0.35909   0.00000  Uiso   1.00
C238   C     0.56070   0.02636   0.35946   0.00000  Uiso   1.00
C239   C     0.49157   0.95808   0.38332   0.00000  Uiso   1.00
C240   C     0.66942   0.32408   0.29479   0.00000  Uiso   1.00
C241   C     0.69412   0.40498   0.33868   0.00000  Uiso   1.00
C242   C     0.69083   0.54435   0.32973   0.00000  Uiso   1.00
C243   C     0.69703   0.77585   0.33636   0.00000  Uiso   1.00
C244   C     0.61830   0.27315   0.20158   0.00000  Uiso   1.00
C245   C     0.65274   0.18069   0.17050   0.00000  Uiso   1.00
C246   C     0.65812   0.15205   0.09988   0.00000  Uiso   1.00
C247   C     0.69154   0.06499   0.08206   0.00000  Uiso   1.00
C248   C     0.59387   0.18731   0.25485   0.00000  Uiso   1.00
C249   C     0.54976   0.16425   0.25515   0.00000  Uiso   1.00
C250   C     0.53361   0.08277   0.30834   0.00000  Uiso   1.00
C251   C     0.64239   0.38039   0.24376   0.00000  Uiso   1.00
C252   C     0.63906   0.51967   0.23474   0.00000  Uiso   1.00
C253   C     0.66375   0.60076   0.27861   0.00000  Uiso   1.00
H254   H     0.68912   0.12563   0.33525   0.00000  Uiso   1.00
H255   H     0.73411   0.99378   0.24332   0.00000  Uiso   1.00
H256   H     0.62575   0.00600   0.39857   0.00000  Uiso   1.00
H257   H     0.71504   0.36136   0.37816   0.00000  Uiso   1.00
H258   H     0.77205   0.87239   0.11889   0.00000  Uiso   1.00
H259   H     0.54358   0.89818   0.44627   0.00000  Uiso   1.00
H260   H     0.73186   0.64755   0.40324   0.00000  Uiso   1.00
H261   H     0.59725   0.31699   0.16185   0.00000  Uiso   1.00
H262   H     0.63720   0.19564   0.06040   0.00000  Uiso   1.00
H263   H     0.52884   0.20785   0.21566   0.00000  Uiso   1.00
H264   H     0.61813   0.56322   0.19525   0.00000  Uiso   1.00
H265   H     0.69339   0.03622   0.97043   0.00000  Uiso   1.00
H266   H     0.46492   0.06201   0.29781   0.00000  Uiso   1.00
H267   H     0.65320   0.81138   0.25478   0.00000  Uiso   1.00
O268   O     0.76064   0.87098   0.98105   0.00000  Uiso   1.00
O269   O     0.46091   0.90484   0.41057   0.00000  Uiso   1.00
O270   O     0.70793   0.88799   0.35411   0.00000  Uiso   1.00
N271   N     0.74806   0.92762   0.09787   0.00000  Uiso   1.00
N272   N     0.53446   0.95172   0.40394   0.00000  Uiso   1.00
N273   N     0.71047   0.65231   0.36373   0.00000  Uiso   1.00
N274   N     0.70573   0.01578   0.01799   0.00000  Uiso   1.00
N275   N     0.49213   0.03987   0.32406   0.00000  Uiso   1.00
N276   N     0.66815   0.74047   0.28384   0.00000  Uiso   1.00
C277   C     0.16808   0.33052   0.70448   0.00000  Uiso   1.00
C278   C     0.17978   0.37562   0.77847   0.00000  Uiso   1.00
C279   C     0.21319   0.46265   0.79619   0.00000  Uiso   1.00
C280   C     0.21862   0.49143   0.86682   0.00000  Uiso   1.00
C281   C     0.24089   0.57007   0.97395   0.00000  Uiso   1.00
C282   C     0.12091   0.36900   0.69412   0.00000  Uiso   1.00
C283   C     0.10483   0.45045   0.64091   0.00000  Uiso   1.00
C284   C     0.06070   0.47364   0.64054   0.00000  Uiso   1.00
C285   C     0.99157   0.54192   0.61668   0.00000  Uiso   1.00
C286   C     0.16942   0.17592   0.70521   0.00000  Uiso   1.00
C287   C     0.19412   0.09502   0.66132   0.00000  Uiso   1.00
C288   C     0.19083   0.95565   0.67027   0.00000  Uiso   1.00
C289   C     0.19703   0.72415   0.66364   0.00000  Uiso   1.00
C290   C     0.11830   0.22685   0.79842   0.00000  Uiso   1.00
C291   C     0.15274   0.31931   0.82950   0.00000  Uiso   1.00
C292   C     0.15812   0.34795   0.90012   0.00000  Uiso   1.00
C293   C     0.19154   0.43501   0.91794   0.00000  Uiso   1.00
C294   C     0.09387   0.31269   0.74515   0.00000  Uiso   1.00
C295   C     0.04976   0.33575   0.74485   0.00000  Uiso   1.00
C296   C     0.03361   0.41723   0.69166   0.00000  Uiso   1.00
C297   C     0.14239   0.11961   0.75624   0.00000  Uiso   1.00
C298   C     0.13906   0.98033   0.76526   0.00000  Uiso   1.00
C299   C     0.16375   0.89924   0.72139   0.00000  Uiso   1.00
H300   H     0.18912   0.37437   0.66475   0.00000  Uiso   1.00
H301   H     0.23411   0.50622   0.75668   0.00000  Uiso   1.00
H302   H     0.12575   0.49400   0.60143   0.00000  Uiso   1.00
H303   H     0.21504   0.13864   0.62184   0.00000  Uiso   1.00
H304   H     0.27205   0.62761   0.88111   0.00000  Uiso   1.00
H305   H     0.04358   0.60182   0.55373   0.00000  Uiso   1.00
H306   H     0.23186   0.85245   0.59676   0.00000  Uiso   1.00
H307   H     0.09725   0.18301   0.83815   0.00000  Uiso   1.00
H308   H     0.13720   0.30436   0.93960   0.00000  Uiso   1.00
H309   H     0.02884   0.29215   0.78434   0.00000  Uiso   1.00
H310   H     0.11813   0.93678   0.80475   0.00000  Uiso   1.00
H311   H     0.19339   0.46378   0.02957   0.00000  Uiso   1.00
H312   H     0.96492   0.43799   0.70219   0.00000  Uiso   1.00
H313   H     0.15320   0.68862   0.74522   0.00000  Uiso   1.00
O314   O     0.26064   0.62902   0.01895   0.00000  Uiso   1.00
O315   O     0.96091   0.59516   0.58943   0.00000  Uiso   1.00
O316   O     0.20793   0.61201   0.64589   0.00000  Uiso   1.00
N317   N     0.24806   0.57238   0.90213   0.00000  Uiso   1.00
N318   N     0.03446   0.54828   0.59606   0.00000  Uiso   1.00
N319   N     0.21047   0.84769   0.63627   0.00000  Uiso   1.00
N320   N     0.20573   0.48422   0.98201   0.00000  Uiso   1.00
N321   N     0.99213   0.46013   0.67594   0.00000  Uiso   1.00
N322   N     0.16815   0.75953   0.71616   0.00000  Uiso   1.00
C323   C     0.33192   0.66948   0.20448   0.00000  Uiso   1.00
C324   C     0.32022   0.62438   0.27847   0.00000  Uiso   1.00
C325   C     0.28681   0.53735   0.29619   0.00000  Uiso   1.00
C326   C     0.28138   0.50857   0.36682   0.00000  Uiso   1.00
C327   C     0.25911   0.42993   0.47395   0.00000  Uiso   1.00
C328   C     0.37909   0.63100   0.19412   0.00000  Uiso   1.00
C329   C     0.39517   0.54955   0.14091   0.00000  Uiso   1.00
C330   C     0.43930   0.52636   0.14054   0.00000  Uiso   1.00
C331   C     0.50843   0.45808   0.11668   0.00000  Uiso   1.00
C332   C     0.33058   0.82408   0.20521   0.00000  Uiso   1.00
C333   C     0.30588   0.90498   0.16132   0.00000  Uiso   1.00
C334   C     0.30917   0.04435   0.17027   0.00000  Uiso   1.00
C335   C     0.30297   0.27585   0.16364   0.00000  Uiso   1.00
C336   C     0.38170   0.77315   0.29842   0.00000  Uiso   1.00
C337   C     0.34726   0.68069   0.32950   0.00000  Uiso   1.00
C338   C     0.34188   0.65205   0.40012   0.00000  Uiso   1.00
C339   C     0.30846   0.56499   0.41794   0.00000  Uiso   1.00
C340   C     0.40613   0.68731   0.24515   0.00000  Uiso   1.00
C341   C     0.45024   0.66425   0.24485   0.00000  Uiso   1.00
C342   C     0.46639   0.58277   0.19166   0.00000  Uiso   1.00
C343   C     0.35761   0.88039   0.25624   0.00000  Uiso   1.00
C344   C     0.36094   0.01967   0.26526   0.00000  Uiso   1.00
C345   C     0.33625   0.10076   0.22139   0.00000  Uiso   1.00
H346   H     0.31088   0.62563   0.16475   0.00000  Uiso   1.00
H347   H     0.26589   0.49378   0.25668   0.00000  Uiso   1.00
H348   H     0.37425   0.50600   0.10143   0.00000  Uiso   1.00
H349   H     0.28496   0.86136   0.12184   0.00000  Uiso   1.00
H350   H     0.22795   0.37239   0.38111   0.00000  Uiso   1.00
H351   H     0.45642   0.39818   0.05373   0.00000  Uiso   1.00
H352   H     0.26814   0.14755   0.09676   0.00000  Uiso   1.00
H353   H     0.40275   0.81699   0.33815   0.00000  Uiso   1.00
H354   H     0.36280   0.69564   0.43960   0.00000  Uiso   1.00
H355   H     0.47116   0.70785   0.28434   0.00000  Uiso   1.00
H356   H     0.38187   0.06322   0.30475   0.00000  Uiso   1.00
H357   H     0.30661   0.53622   0.52957   0.00000  Uiso   1.00
H358   H     0.53508   0.56201   0.20219   0.00000  Uiso   1.00
H359   H     0.34680   0.31138   0.24522   0.00000  Uiso   1.00
O360   O     0.23936   0.37098   0.51895   0.00000  Uiso   1.00
O361   O     0.53909   0.40484   0.08943   0.00000  Uiso   1.00
O362   O     0.29207   0.38799   0.14589   0.00000  Uiso   1.00
N363   N     0.25194   0.42762   0.40213   0.00000  Uiso   1.00
N364   N     0.46554   0.45172   0.09606   0.00000  Uiso   1.00
N365   N     0.28953   0.15231   0.13627   0.00000  Uiso   1.00
N366   N     0.29427   0.51578   0.48201   0.00000  Uiso   1.00
N367   N     0.50787   0.53987   0.17594   0.00000  Uiso   1.00
N368   N     0.33185   0.24047   0.21616   0.00000  Uiso   1.00
