data_job_03442
_audit_creation_date              2018-12-19
_audit_creation_method            'Materials Studio'
_symmetry_space_group_name_H-M    'P1'
_symmetry_Int_Tables_number       1
_symmetry_cell_setting            triclinic
loop_
_symmetry_equiv_pos_as_xyz
  x,y,z
_cell_length_a                    15.4731
_cell_length_b                    19.6308
_cell_length_c                    19.7625
_cell_angle_alpha                 90.0000
_cell_angle_beta                  90.0000
_cell_angle_gamma                 90.0000
loop_
_atom_site_label
_atom_site_type_symbol
_atom_site_fract_x
_atom_site_fract_y
_atom_site_fract_z
_atom_site_U_iso_or_equiv
_atom_site_adp_type
_atom_site_occupancy
C1     C     0.29430   0.05027   0.40021   0.00000  Uiso   1.00
C2     C     0.35669   0.09094   0.44421   0.00000  Uiso   1.00
C3     C     0.44602   0.09150   0.43797   0.00000  Uiso   1.00
C4     C     0.49163   0.13203   0.48312   0.00000  Uiso   1.00
C5     C     0.59494   0.18929   0.54392   0.00000  Uiso   1.00
C6     C     0.24140   0.00653   0.44870   0.00000  Uiso   1.00
C7     C     0.23379   0.93613   0.44623   0.00000  Uiso   1.00
C8     C     0.18235   0.90562   0.49516   0.00000  Uiso   1.00
C9     C     0.10662   0.83184   0.56290   0.00000  Uiso   1.00
C10    C     0.23146   0.10197   0.37029   0.00000  Uiso   1.00
C11    C     0.21547   0.11180   0.30188   0.00000  Uiso   1.00
C12    C     0.15563   0.16162   0.28479   0.00000  Uiso   1.00
C13    C     0.06447   0.23602   0.23078   0.00000  Uiso   1.00
C14    C     0.21645   0.12125   0.49150   0.00000  Uiso   1.00
C15    C     0.31440   0.12949   0.49380   0.00000  Uiso   1.00
C16    C     0.35989   0.17003   0.53897   0.00000  Uiso   1.00
C17    C     0.44927   0.17066   0.53280   0.00000  Uiso   1.00
C18    C     0.19912   0.04508   0.49829   0.00000  Uiso   1.00
C19    C     0.14766   0.01466   0.54723   0.00000  Uiso   1.00
C20    C     0.13998   0.94424   0.54484   0.00000  Uiso   1.00
C21    C     0.18917   0.14052   0.41987   0.00000  Uiso   1.00
C22    C     0.12935   0.19033   0.40289   0.00000  Uiso   1.00
C23    C     0.11327   0.20025   0.33447   0.00000  Uiso   1.00
H24    H     0.32722   0.02025   0.36161   0.00000  Uiso   1.00
H25    H     0.47872   0.06165   0.39959   0.00000  Uiso   1.00
H26    H     0.26652   0.90631   0.40785   0.00000  Uiso   1.00
H27    H     0.24820   0.08196   0.26352   0.00000  Uiso   1.00
H28    H     0.62804   0.12454   0.46359   0.00000  Uiso   1.00
H29    H     0.18058   0.79700   0.48098   0.00000  Uiso   1.00
H30    H     0.14196   0.16737   0.17664   0.00000  Uiso   1.00
H31    H     0.18353   0.15126   0.53011   0.00000  Uiso   1.00
H32    H     0.32715   0.19986   0.57734   0.00000  Uiso   1.00
H33    H     0.11495   0.04451   0.58560   0.00000  Uiso   1.00
H34    H     0.09664   0.22016   0.44127   0.00000  Uiso   1.00
H35    H     0.50502   0.23671   0.60786   0.00000  Uiso   1.00
H36    H     0.05756   0.90917   0.62525   0.00000  Uiso   1.00
H37    H     0.01894   0.27955   0.32091   0.00000  Uiso   1.00
O38    O     0.66360   0.21022   0.56377   0.00000  Uiso   1.00
O39    O     0.07654   0.78049   0.58657   0.00000  Uiso   1.00
O40    O     0.02588   0.26642   0.18730   0.00000  Uiso   1.00
N41    N     0.57938   0.14428   0.49105   0.00000  Uiso   1.00
N42    N     0.16104   0.83805   0.50732   0.00000  Uiso   1.00
N43    N     0.12492   0.18431   0.22279   0.00000  Uiso   1.00
N44    N     0.51318   0.20464   0.56868   0.00000  Uiso   1.00
N45    N     0.09484   0.89841   0.58495   0.00000  Uiso   1.00
N46    N     0.05872   0.24467   0.30042   0.00000  Uiso   1.00
C47    C     0.20570   0.44973   0.40021   0.00000  Uiso   1.00
C48    C     0.14331   0.40906   0.44421   0.00000  Uiso   1.00
C49    C     0.05398   0.40850   0.43797   0.00000  Uiso   1.00
C50    C     0.00837   0.36797   0.48312   0.00000  Uiso   1.00
C51    C     0.90506   0.31071   0.54392   0.00000  Uiso   1.00
C52    C     0.25860   0.49347   0.44870   0.00000  Uiso   1.00
C53    C     0.26621   0.56387   0.44623   0.00000  Uiso   1.00
C54    C     0.31765   0.59438   0.49516   0.00000  Uiso   1.00
C55    C     0.39338   0.66816   0.56290   0.00000  Uiso   1.00
C56    C     0.26854   0.39803   0.37029   0.00000  Uiso   1.00
C57    C     0.28453   0.38820   0.30188   0.00000  Uiso   1.00
C58    C     0.34437   0.33838   0.28479   0.00000  Uiso   1.00
C59    C     0.43553   0.26398   0.23078   0.00000  Uiso   1.00
C60    C     0.28355   0.37875   0.49150   0.00000  Uiso   1.00
C61    C     0.18560   0.37051   0.49380   0.00000  Uiso   1.00
C62    C     0.14011   0.32997   0.53897   0.00000  Uiso   1.00
C63    C     0.05073   0.32934   0.53280   0.00000  Uiso   1.00
C64    C     0.30088   0.45492   0.49829   0.00000  Uiso   1.00
C65    C     0.35234   0.48534   0.54723   0.00000  Uiso   1.00
C66    C     0.36002   0.55576   0.54484   0.00000  Uiso   1.00
C67    C     0.31083   0.35948   0.41987   0.00000  Uiso   1.00
C68    C     0.37065   0.30967   0.40289   0.00000  Uiso   1.00
C69    C     0.38673   0.29975   0.33447   0.00000  Uiso   1.00
H70    H     0.17278   0.47975   0.36161   0.00000  Uiso   1.00
H71    H     0.02128   0.43835   0.39959   0.00000  Uiso   1.00
H72    H     0.23348   0.59369   0.40785   0.00000  Uiso   1.00
H73    H     0.25180   0.41804   0.26352   0.00000  Uiso   1.00
H74    H     0.87196   0.37546   0.46359   0.00000  Uiso   1.00
H75    H     0.31942   0.70300   0.48098   0.00000  Uiso   1.00
H76    H     0.35804   0.33263   0.17664   0.00000  Uiso   1.00
H77    H     0.31647   0.34874   0.53011   0.00000  Uiso   1.00
H78    H     0.17285   0.30014   0.57734   0.00000  Uiso   1.00
H79    H     0.38505   0.45549   0.58560   0.00000  Uiso   1.00
H80    H     0.40336   0.27984   0.44127   0.00000  Uiso   1.00
H81    H     0.99498   0.26329   0.60786   0.00000  Uiso   1.00
H82    H     0.44244   0.59083   0.62525   0.00000  Uiso   1.00
H83    H     0.48106   0.22045   0.32091   0.00000  Uiso   1.00
O84    O     0.83640   0.28978   0.56377   0.00000  Uiso   1.00
O85    O     0.42346   0.71951   0.58657   0.00000  Uiso   1.00
O86    O     0.47412   0.23358   0.18730   0.00000  Uiso   1.00
N87    N     0.92062   0.35572   0.49105   0.00000  Uiso   1.00
N88    N     0.33896   0.66195   0.50732   0.00000  Uiso   1.00
N89    N     0.37508   0.31569   0.22279   0.00000  Uiso   1.00
N90    N     0.98682   0.29536   0.56868   0.00000  Uiso   1.00
N91    N     0.40516   0.60159   0.58495   0.00000  Uiso   1.00
N92    N     0.44128   0.25533   0.30042   0.00000  Uiso   1.00
C93    C     0.70570   0.55027   0.09979   0.00000  Uiso   1.00
C94    C     0.64331   0.59094   0.05579   0.00000  Uiso   1.00
C95    C     0.55398   0.59150   0.06203   0.00000  Uiso   1.00
C96    C     0.50837   0.63203   0.01688   0.00000  Uiso   1.00
C97    C     0.40506   0.68929   0.95608   0.00000  Uiso   1.00
C98    C     0.75860   0.50653   0.05130   0.00000  Uiso   1.00
C99    C     0.76621   0.43613   0.05377   0.00000  Uiso   1.00
C100   C     0.81765   0.40562   0.00484   0.00000  Uiso   1.00
C101   C     0.89338   0.33184   0.93710   0.00000  Uiso   1.00
C102   C     0.76854   0.60197   0.12971   0.00000  Uiso   1.00
C103   C     0.78453   0.61180   0.19812   0.00000  Uiso   1.00
C104   C     0.84437   0.66162   0.21521   0.00000  Uiso   1.00
C105   C     0.93553   0.73602   0.26922   0.00000  Uiso   1.00
C106   C     0.78355   0.62125   0.00850   0.00000  Uiso   1.00
C107   C     0.68560   0.62949   0.00620   0.00000  Uiso   1.00
C108   C     0.64011   0.67003   0.96103   0.00000  Uiso   1.00
C109   C     0.55073   0.67066   0.96720   0.00000  Uiso   1.00
C110   C     0.80088   0.54508   0.00171   0.00000  Uiso   1.00
C111   C     0.85234   0.51466   0.95277   0.00000  Uiso   1.00
C112   C     0.86002   0.44424   0.95516   0.00000  Uiso   1.00
C113   C     0.81083   0.64052   0.08013   0.00000  Uiso   1.00
C114   C     0.87065   0.69033   0.09711   0.00000  Uiso   1.00
C115   C     0.88673   0.70025   0.16553   0.00000  Uiso   1.00
H116   H     0.67278   0.52025   0.13839   0.00000  Uiso   1.00
H117   H     0.52128   0.56165   0.10041   0.00000  Uiso   1.00
H118   H     0.73348   0.40631   0.09215   0.00000  Uiso   1.00
H119   H     0.75180   0.58196   0.23648   0.00000  Uiso   1.00
H120   H     0.37196   0.62454   0.03641   0.00000  Uiso   1.00
H121   H     0.81942   0.29700   0.01902   0.00000  Uiso   1.00
H122   H     0.85804   0.66737   0.32336   0.00000  Uiso   1.00
H123   H     0.81647   0.65126   0.96989   0.00000  Uiso   1.00
H124   H     0.67285   0.69986   0.92266   0.00000  Uiso   1.00
H125   H     0.88505   0.54451   0.91440   0.00000  Uiso   1.00
H126   H     0.90336   0.72016   0.05873   0.00000  Uiso   1.00
H127   H     0.49498   0.73671   0.89214   0.00000  Uiso   1.00
H128   H     0.94244   0.40917   0.87475   0.00000  Uiso   1.00
H129   H     0.98106   0.77955   0.17909   0.00000  Uiso   1.00
O130   O     0.33640   0.71022   0.93623   0.00000  Uiso   1.00
O131   O     0.92346   0.28049   0.91343   0.00000  Uiso   1.00
O132   O     0.97412   0.76642   0.31270   0.00000  Uiso   1.00
N133   N     0.42062   0.64428   0.00895   0.00000  Uiso   1.00
N134   N     0.83896   0.33805   0.99268   0.00000  Uiso   1.00
N135   N     0.87508   0.68431   0.27721   0.00000  Uiso   1.00
N136   N     0.48682   0.70464   0.93132   0.00000  Uiso   1.00
N137   N     0.90516   0.39841   0.91505   0.00000  Uiso   1.00
N138   N     0.94128   0.74467   0.19958   0.00000  Uiso   1.00
C139   C     0.79430   0.94973   0.09979   0.00000  Uiso   1.00
C140   C     0.85669   0.90906   0.05579   0.00000  Uiso   1.00
C141   C     0.94602   0.90850   0.06203   0.00000  Uiso   1.00
C142   C     0.99163   0.86797   0.01688   0.00000  Uiso   1.00
C143   C     0.09494   0.81071   0.95608   0.00000  Uiso   1.00
C144   C     0.74140   0.99347   0.05130   0.00000  Uiso   1.00
C145   C     0.73379   0.06387   0.05377   0.00000  Uiso   1.00
C146   C     0.68235   0.09438   0.00484   0.00000  Uiso   1.00
C147   C     0.60662   0.16816   0.93710   0.00000  Uiso   1.00
C148   C     0.73146   0.89803   0.12971   0.00000  Uiso   1.00
C149   C     0.71547   0.88820   0.19812   0.00000  Uiso   1.00
C150   C     0.65563   0.83838   0.21521   0.00000  Uiso   1.00
C151   C     0.56447   0.76398   0.26922   0.00000  Uiso   1.00
C152   C     0.71645   0.87875   0.00850   0.00000  Uiso   1.00
C153   C     0.81440   0.87051   0.00620   0.00000  Uiso   1.00
C154   C     0.85989   0.82997   0.96103   0.00000  Uiso   1.00
C155   C     0.94927   0.82934   0.96720   0.00000  Uiso   1.00
C156   C     0.69912   0.95492   0.00171   0.00000  Uiso   1.00
C157   C     0.64766   0.98534   0.95277   0.00000  Uiso   1.00
C158   C     0.63998   0.05576   0.95516   0.00000  Uiso   1.00
C159   C     0.68917   0.85948   0.08013   0.00000  Uiso   1.00
C160   C     0.62935   0.80967   0.09711   0.00000  Uiso   1.00
C161   C     0.61327   0.79975   0.16553   0.00000  Uiso   1.00
H162   H     0.82722   0.97975   0.13839   0.00000  Uiso   1.00
H163   H     0.97872   0.93835   0.10041   0.00000  Uiso   1.00
H164   H     0.76652   0.09369   0.09215   0.00000  Uiso   1.00
H165   H     0.74820   0.91804   0.23648   0.00000  Uiso   1.00
H166   H     0.12804   0.87546   0.03641   0.00000  Uiso   1.00
H167   H     0.68058   0.20300   0.01902   0.00000  Uiso   1.00
H168   H     0.64196   0.83263   0.32336   0.00000  Uiso   1.00
H169   H     0.68353   0.84874   0.96989   0.00000  Uiso   1.00
H170   H     0.82715   0.80014   0.92266   0.00000  Uiso   1.00
H171   H     0.61495   0.95549   0.91440   0.00000  Uiso   1.00
H172   H     0.59664   0.77984   0.05873   0.00000  Uiso   1.00
H173   H     0.00502   0.76329   0.89214   0.00000  Uiso   1.00
H174   H     0.55756   0.09083   0.87475   0.00000  Uiso   1.00
H175   H     0.51894   0.72045   0.17909   0.00000  Uiso   1.00
O176   O     0.16360   0.78978   0.93623   0.00000  Uiso   1.00
O177   O     0.57654   0.21951   0.91343   0.00000  Uiso   1.00
O178   O     0.52588   0.73358   0.31270   0.00000  Uiso   1.00
N179   N     0.07938   0.85572   0.00895   0.00000  Uiso   1.00
N180   N     0.66104   0.16195   0.99268   0.00000  Uiso   1.00
N181   N     0.62492   0.81569   0.27721   0.00000  Uiso   1.00
N182   N     0.01318   0.79536   0.93132   0.00000  Uiso   1.00
N183   N     0.59484   0.10159   0.91505   0.00000  Uiso   1.00
N184   N     0.55872   0.75533   0.19958   0.00000  Uiso   1.00
C185   C     0.70570   0.94973   0.59979   0.00000  Uiso   1.00
C186   C     0.64331   0.90906   0.55579   0.00000  Uiso   1.00
C187   C     0.55398   0.90850   0.56203   0.00000  Uiso   1.00
C188   C     0.50837   0.86797   0.51688   0.00000  Uiso   1.00
C189   C     0.40506   0.81071   0.45608   0.00000  Uiso   1.00
C190   C     0.75860   0.99347   0.55130   0.00000  Uiso   1.00
C191   C     0.76621   0.06387   0.55377   0.00000  Uiso   1.00
C192   C     0.81765   0.09438   0.50484   0.00000  Uiso   1.00
C193   C     0.89338   0.16816   0.43710   0.00000  Uiso   1.00
C194   C     0.76854   0.89803   0.62971   0.00000  Uiso   1.00
C195   C     0.78453   0.88820   0.69812   0.00000  Uiso   1.00
C196   C     0.84437   0.83838   0.71521   0.00000  Uiso   1.00
C197   C     0.93553   0.76398   0.76922   0.00000  Uiso   1.00
C198   C     0.78355   0.87875   0.50850   0.00000  Uiso   1.00
C199   C     0.68560   0.87051   0.50620   0.00000  Uiso   1.00
C200   C     0.64011   0.82997   0.46103   0.00000  Uiso   1.00
C201   C     0.55073   0.82934   0.46720   0.00000  Uiso   1.00
C202   C     0.80088   0.95492   0.50171   0.00000  Uiso   1.00
C203   C     0.85234   0.98534   0.45277   0.00000  Uiso   1.00
C204   C     0.86002   0.05576   0.45516   0.00000  Uiso   1.00
C205   C     0.81083   0.85948   0.58013   0.00000  Uiso   1.00
C206   C     0.87065   0.80967   0.59711   0.00000  Uiso   1.00
C207   C     0.88673   0.79975   0.66553   0.00000  Uiso   1.00
H208   H     0.67278   0.97975   0.63839   0.00000  Uiso   1.00
H209   H     0.52128   0.93835   0.60041   0.00000  Uiso   1.00
H210   H     0.73348   0.09369   0.59215   0.00000  Uiso   1.00
H211   H     0.75180   0.91804   0.73648   0.00000  Uiso   1.00
H212   H     0.37196   0.87546   0.53641   0.00000  Uiso   1.00
H213   H     0.81942   0.20300   0.51902   0.00000  Uiso   1.00
H214   H     0.85804   0.83263   0.82336   0.00000  Uiso   1.00
H215   H     0.81647   0.84874   0.46989   0.00000  Uiso   1.00
H216   H     0.67285   0.80014   0.42266   0.00000  Uiso   1.00
H217   H     0.88505   0.95549   0.41440   0.00000  Uiso   1.00
H218   H     0.90336   0.77984   0.55873   0.00000  Uiso   1.00
H219   H     0.49498   0.76329   0.39214   0.00000  Uiso   1.00
H220   H     0.94244   0.09083   0.37475   0.00000  Uiso   1.00
H221   H     0.98106   0.72045   0.67909   0.00000  Uiso   1.00
O222   O     0.33640   0.78978   0.43623   0.00000  Uiso   1.00
O223   O     0.92346   0.21951   0.41343   0.00000  Uiso   1.00
O224   O     0.97412   0.73358   0.81270   0.00000  Uiso   1.00
N225   N     0.42062   0.85572   0.50895   0.00000  Uiso   1.00
N226   N     0.83896   0.16195   0.49268   0.00000  Uiso   1.00
N227   N     0.87508   0.81569   0.77721   0.00000  Uiso   1.00
N228   N     0.48682   0.79536   0.43132   0.00000  Uiso   1.00
N229   N     0.90516   0.10159   0.41505   0.00000  Uiso   1.00
N230   N     0.94128   0.75533   0.69958   0.00000  Uiso   1.00
C231   C     0.79430   0.55027   0.59979   0.00000  Uiso   1.00
C232   C     0.85669   0.59094   0.55579   0.00000  Uiso   1.00
C233   C     0.94602   0.59150   0.56203   0.00000  Uiso   1.00
C234   C     0.99163   0.63203   0.51688   0.00000  Uiso   1.00
C235   C     0.09494   0.68929   0.45608   0.00000  Uiso   1.00
C236   C     0.74140   0.50653   0.55130   0.00000  Uiso   1.00
C237   C     0.73379   0.43613   0.55377   0.00000  Uiso   1.00
C238   C     0.68235   0.40562   0.50484   0.00000  Uiso   1.00
C239   C     0.60662   0.33184   0.43710   0.00000  Uiso   1.00
C240   C     0.73146   0.60197   0.62971   0.00000  Uiso   1.00
C241   C     0.71547   0.61180   0.69812   0.00000  Uiso   1.00
C242   C     0.65563   0.66162   0.71521   0.00000  Uiso   1.00
C243   C     0.56447   0.73602   0.76922   0.00000  Uiso   1.00
C244   C     0.71645   0.62125   0.50850   0.00000  Uiso   1.00
C245   C     0.81440   0.62949   0.50620   0.00000  Uiso   1.00
C246   C     0.85989   0.67003   0.46103   0.00000  Uiso   1.00
C247   C     0.94927   0.67066   0.46720   0.00000  Uiso   1.00
C248   C     0.69912   0.54508   0.50171   0.00000  Uiso   1.00
C249   C     0.64766   0.51466   0.45277   0.00000  Uiso   1.00
C250   C     0.63998   0.44424   0.45516   0.00000  Uiso   1.00
C251   C     0.68917   0.64052   0.58013   0.00000  Uiso   1.00
C252   C     0.62935   0.69033   0.59711   0.00000  Uiso   1.00
C253   C     0.61327   0.70025   0.66553   0.00000  Uiso   1.00
H254   H     0.82722   0.52025   0.63839   0.00000  Uiso   1.00
H255   H     0.97872   0.56165   0.60041   0.00000  Uiso   1.00
H256   H     0.76652   0.40631   0.59215   0.00000  Uiso   1.00
H257   H     0.74820   0.58196   0.73648   0.00000  Uiso   1.00
H258   H     0.12804   0.62454   0.53641   0.00000  Uiso   1.00
H259   H     0.68058   0.29700   0.51902   0.00000  Uiso   1.00
H260   H     0.64196   0.66737   0.82336   0.00000  Uiso   1.00
H261   H     0.68353   0.65126   0.46989   0.00000  Uiso   1.00
H262   H     0.82715   0.69986   0.42266   0.00000  Uiso   1.00
H263   H     0.61495   0.54451   0.41440   0.00000  Uiso   1.00
H264   H     0.59664   0.72016   0.55873   0.00000  Uiso   1.00
H265   H     0.00502   0.73671   0.39214   0.00000  Uiso   1.00
H266   H     0.55756   0.40917   0.37475   0.00000  Uiso   1.00
H267   H     0.51894   0.77955   0.67909   0.00000  Uiso   1.00
O268   O     0.16360   0.71022   0.43623   0.00000  Uiso   1.00
O269   O     0.57654   0.28049   0.41343   0.00000  Uiso   1.00
O270   O     0.52588   0.76642   0.81270   0.00000  Uiso   1.00
N271   N     0.07938   0.64428   0.50895   0.00000  Uiso   1.00
N272   N     0.66104   0.33805   0.49268   0.00000  Uiso   1.00
N273   N     0.62492   0.68431   0.77721   0.00000  Uiso   1.00
N274   N     0.01318   0.70464   0.43132   0.00000  Uiso   1.00
N275   N     0.59484   0.39841   0.41505   0.00000  Uiso   1.00
N276   N     0.55872   0.74467   0.69958   0.00000  Uiso   1.00
C277   C     0.29430   0.44973   0.90021   0.00000  Uiso   1.00
C278   C     0.35669   0.40906   0.94421   0.00000  Uiso   1.00
C279   C     0.44602   0.40850   0.93797   0.00000  Uiso   1.00
C280   C     0.49163   0.36797   0.98312   0.00000  Uiso   1.00
C281   C     0.59494   0.31071   0.04392   0.00000  Uiso   1.00
C282   C     0.24140   0.49347   0.94870   0.00000  Uiso   1.00
C283   C     0.23379   0.56387   0.94623   0.00000  Uiso   1.00
C284   C     0.18235   0.59438   0.99516   0.00000  Uiso   1.00
C285   C     0.10662   0.66816   0.06290   0.00000  Uiso   1.00
C286   C     0.23146   0.39803   0.87029   0.00000  Uiso   1.00
C287   C     0.21547   0.38820   0.80188   0.00000  Uiso   1.00
C288   C     0.15563   0.33838   0.78479   0.00000  Uiso   1.00
C289   C     0.06447   0.26398   0.73078   0.00000  Uiso   1.00
C290   C     0.21645   0.37875   0.99150   0.00000  Uiso   1.00
C291   C     0.31440   0.37051   0.99380   0.00000  Uiso   1.00
C292   C     0.35989   0.32997   0.03897   0.00000  Uiso   1.00
C293   C     0.44927   0.32934   0.03280   0.00000  Uiso   1.00
C294   C     0.19912   0.45492   0.99829   0.00000  Uiso   1.00
C295   C     0.14766   0.48534   0.04723   0.00000  Uiso   1.00
C296   C     0.13998   0.55576   0.04484   0.00000  Uiso   1.00
C297   C     0.18917   0.35948   0.91987   0.00000  Uiso   1.00
C298   C     0.12935   0.30967   0.90289   0.00000  Uiso   1.00
C299   C     0.11327   0.29975   0.83447   0.00000  Uiso   1.00
H300   H     0.32722   0.47975   0.86161   0.00000  Uiso   1.00
H301   H     0.47872   0.43835   0.89959   0.00000  Uiso   1.00
H302   H     0.26652   0.59369   0.90785   0.00000  Uiso   1.00
H303   H     0.24820   0.41804   0.76352   0.00000  Uiso   1.00
H304   H     0.62804   0.37546   0.96359   0.00000  Uiso   1.00
H305   H     0.18058   0.70300   0.98098   0.00000  Uiso   1.00
H306   H     0.14196   0.33263   0.67664   0.00000  Uiso   1.00
H307   H     0.18353   0.34874   0.03011   0.00000  Uiso   1.00
H308   H     0.32715   0.30014   0.07734   0.00000  Uiso   1.00
H309   H     0.11495   0.45549   0.08560   0.00000  Uiso   1.00
H310   H     0.09664   0.27984   0.94127   0.00000  Uiso   1.00
H311   H     0.50502   0.26329   0.10786   0.00000  Uiso   1.00
H312   H     0.05756   0.59083   0.12525   0.00000  Uiso   1.00
H313   H     0.01894   0.22045   0.82091   0.00000  Uiso   1.00
O314   O     0.66360   0.28978   0.06377   0.00000  Uiso   1.00
O315   O     0.07654   0.71951   0.08657   0.00000  Uiso   1.00
O316   O     0.02588   0.23358   0.68730   0.00000  Uiso   1.00
N317   N     0.57938   0.35572   0.99105   0.00000  Uiso   1.00
N318   N     0.16104   0.66195   0.00732   0.00000  Uiso   1.00
N319   N     0.12492   0.31569   0.72279   0.00000  Uiso   1.00
N320   N     0.51318   0.29536   0.06868   0.00000  Uiso   1.00
N321   N     0.09484   0.60159   0.08495   0.00000  Uiso   1.00
N322   N     0.05872   0.25533   0.80042   0.00000  Uiso   1.00
C323   C     0.20570   0.05027   0.90021   0.00000  Uiso   1.00
C324   C     0.14331   0.09094   0.94421   0.00000  Uiso   1.00
C325   C     0.05398   0.09150   0.93797   0.00000  Uiso   1.00
C326   C     0.00837   0.13203   0.98312   0.00000  Uiso   1.00
C327   C     0.90506   0.18929   0.04392   0.00000  Uiso   1.00
C328   C     0.25860   0.00653   0.94870   0.00000  Uiso   1.00
C329   C     0.26621   0.93613   0.94623   0.00000  Uiso   1.00
C330   C     0.31765   0.90562   0.99516   0.00000  Uiso   1.00
C331   C     0.39338   0.83184   0.06290   0.00000  Uiso   1.00
C332   C     0.26854   0.10197   0.87029   0.00000  Uiso   1.00
C333   C     0.28453   0.11180   0.80188   0.00000  Uiso   1.00
C334   C     0.34437   0.16162   0.78479   0.00000  Uiso   1.00
C335   C     0.43553   0.23602   0.73078   0.00000  Uiso   1.00
C336   C     0.28355   0.12125   0.99150   0.00000  Uiso   1.00
C337   C     0.18560   0.12949   0.99380   0.00000  Uiso   1.00
C338   C     0.14011   0.17003   0.03897   0.00000  Uiso   1.00
C339   C     0.05073   0.17066   0.03280   0.00000  Uiso   1.00
C340   C     0.30088   0.04508   0.99829   0.00000  Uiso   1.00
C341   C     0.35234   0.01466   0.04723   0.00000  Uiso   1.00
C342   C     0.36002   0.94424   0.04484   0.00000  Uiso   1.00
C343   C     0.31083   0.14052   0.91987   0.00000  Uiso   1.00
C344   C     0.37065   0.19033   0.90289   0.00000  Uiso   1.00
C345   C     0.38673   0.20025   0.83447   0.00000  Uiso   1.00
H346   H     0.17278   0.02025   0.86161   0.00000  Uiso   1.00
H347   H     0.02128   0.06165   0.89959   0.00000  Uiso   1.00
H348   H     0.23348   0.90631   0.90785   0.00000  Uiso   1.00
H349   H     0.25180   0.08196   0.76352   0.00000  Uiso   1.00
H350   H     0.87196   0.12454   0.96359   0.00000  Uiso   1.00
H351   H     0.31942   0.79700   0.98098   0.00000  Uiso   1.00
H352   H     0.35804   0.16737   0.67664   0.00000  Uiso   1.00
H353   H     0.31647   0.15126   0.03011   0.00000  Uiso   1.00
H354   H     0.17285   0.19986   0.07734   0.00000  Uiso   1.00
H355   H     0.38505   0.04451   0.08560   0.00000  Uiso   1.00
H356   H     0.40336   0.22016   0.94127   0.00000  Uiso   1.00
H357   H     0.99498   0.23671   0.10786   0.00000  Uiso   1.00
H358   H     0.44244   0.90917   0.12525   0.00000  Uiso   1.00
H359   H     0.48106   0.27955   0.82091   0.00000  Uiso   1.00
O360   O     0.83640   0.21022   0.06377   0.00000  Uiso   1.00
O361   O     0.42346   0.78049   0.08657   0.00000  Uiso   1.00
O362   O     0.47412   0.26642   0.68730   0.00000  Uiso   1.00
N363   N     0.92062   0.14428   0.99105   0.00000  Uiso   1.00
N364   N     0.33896   0.83805   0.00732   0.00000  Uiso   1.00
N365   N     0.37508   0.18431   0.72279   0.00000  Uiso   1.00
N366   N     0.98682   0.20464   0.06868   0.00000  Uiso   1.00
N367   N     0.40516   0.89841   0.08495   0.00000  Uiso   1.00
N368   N     0.44128   0.24467   0.80042   0.00000  Uiso   1.00
