data_job_05780
_audit_creation_date              2018-12-19
_audit_creation_method            'Materials Studio'
_symmetry_space_group_name_H-M    'P1'
_symmetry_Int_Tables_number       1
_symmetry_cell_setting            triclinic
loop_
_symmetry_equiv_pos_as_xyz
  x,y,z
_cell_length_a                    11.1575
_cell_length_b                    15.4290
_cell_length_c                    20.4062
_cell_angle_alpha                 90.0000
_cell_angle_beta                  130.2260
_cell_angle_gamma                 90.0000
loop_
_atom_site_label
_atom_site_type_symbol
_atom_site_fract_x
_atom_site_fract_y
_atom_site_fract_z
_atom_site_U_iso_or_equiv
_atom_site_adp_type
_atom_site_occupancy
C1     C     0.91101   0.77341   0.89248   0.00000  Uiso   1.00
C2     C     0.82956   0.71590   0.81334   0.00000  Uiso   1.00
C3     C     0.90402   0.66407   0.79356   0.00000  Uiso   1.00
C4     C     0.80865   0.61632   0.71817   0.00000  Uiso   1.00
C5     C     0.70711   0.52645   0.60343   0.00000  Uiso   1.00
C6     C     0.84734   0.86464   0.85902   0.00000  Uiso   1.00
C7     C     0.93676   0.93786   0.87765   0.00000  Uiso   1.00
C8     C     0.85635   0.01531   0.84071   0.00000  Uiso   1.00
C9     C     0.78243   0.15636   0.79694   0.00000  Uiso   1.00
C10    C     0.84933   0.74476   0.93741   0.00000  Uiso   1.00
C11    C     0.94041   0.71720   0.02197   0.00000  Uiso   1.00
C12    C     0.86168   0.69375   0.05105   0.00000  Uiso   1.00
C13    C     0.79084   0.64866   0.12899   0.00000  Uiso   1.00
C14    C     0.60923   0.78078   0.79376   0.00000  Uiso   1.00
C15    C     0.66565   0.71991   0.75972   0.00000  Uiso   1.00
C16    C     0.57014   0.67222   0.68434   0.00000  Uiso   1.00
C17    C     0.64444   0.62033   0.66445   0.00000  Uiso   1.00
C18    C     0.68343   0.86864   0.80540   0.00000  Uiso   1.00
C19    C     0.60287   0.94601   0.76843   0.00000  Uiso   1.00
C20    C     0.69214   0.01933   0.78700   0.00000  Uiso   1.00
C21    C     0.68541   0.74876   0.88379   0.00000  Uiso   1.00
C22    C     0.60652   0.72535   0.91275   0.00000  Uiso   1.00
C23    C     0.69747   0.69776   0.99733   0.00000  Uiso   1.00
H24    H     0.03863   0.77030   0.93422   0.00000  Uiso   1.00
H25    H     0.03088   0.66100   0.83507   0.00000  Uiso   1.00
H26    H     0.06361   0.93474   0.91916   0.00000  Uiso   1.00
H27    H     0.06726   0.71411   0.06345   0.00000  Uiso   1.00
H28    H     0.95000   0.54160   0.70148   0.00000  Uiso   1.00
H29    H     0.01901   0.11881   0.87880   0.00000  Uiso   1.00
H30    H     0.02671   0.65358   0.18307   0.00000  Uiso   1.00
H31    H     0.48161   0.78390   0.75201   0.00000  Uiso   1.00
H32    H     0.44329   0.67533   0.64286   0.00000  Uiso   1.00
H33    H     0.47602   0.94908   0.72694   0.00000  Uiso   1.00
H34    H     0.47967   0.72846   0.87123   0.00000  Uiso   1.00
H35    H     0.47309   0.55324   0.54547   0.00000  Uiso   1.00
H36    H     0.54211   0.13045   0.72279   0.00000  Uiso   1.00
H37    H     0.54981   0.66522   0.02706   0.00000  Uiso   1.00
O38    O     0.69639   0.47578   0.55494   0.00000  Uiso   1.00
O39    O     0.78694   0.23306   0.78760   0.00000  Uiso   1.00
O40    O     0.79704   0.62268   0.18679   0.00000  Uiso   1.00
N41    N     0.84302   0.55922   0.67975   0.00000  Uiso   1.00
N42    N     0.90754   0.09888   0.84553   0.00000  Uiso   1.00
N43    N     0.91474   0.66395   0.13000   0.00000  Uiso   1.00
N44    N     0.58640   0.56549   0.59580   0.00000  Uiso   1.00
N45    N     0.65092   0.10514   0.76158   0.00000  Uiso   1.00
N46    N     0.65812   0.67021   0.04605   0.00000  Uiso   1.00
C47    C     0.08899   0.27341   0.60752   0.00000  Uiso   1.00
C48    C     0.17044   0.21590   0.68666   0.00000  Uiso   1.00
C49    C     0.09598   0.16407   0.70644   0.00000  Uiso   1.00
C50    C     0.19135   0.11632   0.78183   0.00000  Uiso   1.00
C51    C     0.29289   0.02645   0.89657   0.00000  Uiso   1.00
C52    C     0.15266   0.36464   0.64098   0.00000  Uiso   1.00
C53    C     0.06324   0.43786   0.62235   0.00000  Uiso   1.00
C54    C     0.14365   0.51531   0.65929   0.00000  Uiso   1.00
C55    C     0.21757   0.65636   0.70306   0.00000  Uiso   1.00
C56    C     0.15067   0.24476   0.56259   0.00000  Uiso   1.00
C57    C     0.05959   0.21720   0.47803   0.00000  Uiso   1.00
C58    C     0.13832   0.19375   0.44895   0.00000  Uiso   1.00
C59    C     0.20916   0.14866   0.37101   0.00000  Uiso   1.00
C60    C     0.39077   0.28078   0.70624   0.00000  Uiso   1.00
C61    C     0.33435   0.21991   0.74028   0.00000  Uiso   1.00
C62    C     0.42986   0.17222   0.81566   0.00000  Uiso   1.00
C63    C     0.35556   0.12033   0.83555   0.00000  Uiso   1.00
C64    C     0.31657   0.36864   0.69460   0.00000  Uiso   1.00
C65    C     0.39713   0.44601   0.73157   0.00000  Uiso   1.00
C66    C     0.30786   0.51933   0.71300   0.00000  Uiso   1.00
C67    C     0.31459   0.24876   0.61621   0.00000  Uiso   1.00
C68    C     0.39348   0.22535   0.58725   0.00000  Uiso   1.00
C69    C     0.30253   0.19776   0.50267   0.00000  Uiso   1.00
H70    H     0.96137   0.27030   0.56578   0.00000  Uiso   1.00
H71    H     0.96912   0.16100   0.66493   0.00000  Uiso   1.00
H72    H     0.93639   0.43474   0.58084   0.00000  Uiso   1.00
H73    H     0.93274   0.21411   0.43655   0.00000  Uiso   1.00
H74    H     0.05000   0.04160   0.79852   0.00000  Uiso   1.00
H75    H     0.98099   0.61881   0.62120   0.00000  Uiso   1.00
H76    H     0.97329   0.15358   0.31693   0.00000  Uiso   1.00
H77    H     0.51839   0.28390   0.74799   0.00000  Uiso   1.00
H78    H     0.55671   0.17533   0.85714   0.00000  Uiso   1.00
H79    H     0.52398   0.44908   0.77306   0.00000  Uiso   1.00
H80    H     0.52033   0.22846   0.62877   0.00000  Uiso   1.00
H81    H     0.52691   0.05324   0.95453   0.00000  Uiso   1.00
H82    H     0.45789   0.63045   0.77721   0.00000  Uiso   1.00
H83    H     0.45019   0.16522   0.47294   0.00000  Uiso   1.00
O84    O     0.30361   0.97578   0.94506   0.00000  Uiso   1.00
O85    O     0.21306   0.73306   0.71240   0.00000  Uiso   1.00
O86    O     0.20296   0.12268   0.31321   0.00000  Uiso   1.00
N87    N     0.15698   0.05922   0.82025   0.00000  Uiso   1.00
N88    N     0.09246   0.59888   0.65447   0.00000  Uiso   1.00
N89    N     0.08526   0.16395   0.37000   0.00000  Uiso   1.00
N90    N     0.41360   0.06549   0.90420   0.00000  Uiso   1.00
N91    N     0.34908   0.60514   0.73842   0.00000  Uiso   1.00
N92    N     0.34188   0.17021   0.45395   0.00000  Uiso   1.00
C93    C     0.08899   0.22659   0.10752   0.00000  Uiso   1.00
C94    C     0.17044   0.28410   0.18666   0.00000  Uiso   1.00
C95    C     0.09598   0.33593   0.20644   0.00000  Uiso   1.00
C96    C     0.19135   0.38368   0.28183   0.00000  Uiso   1.00
C97    C     0.29289   0.47355   0.39657   0.00000  Uiso   1.00
C98    C     0.15266   0.13536   0.14098   0.00000  Uiso   1.00
C99    C     0.06324   0.06214   0.12235   0.00000  Uiso   1.00
C100   C     0.14365   0.98469   0.15929   0.00000  Uiso   1.00
C101   C     0.21757   0.84364   0.20306   0.00000  Uiso   1.00
C102   C     0.15067   0.25524   0.06259   0.00000  Uiso   1.00
C103   C     0.05959   0.28280   0.97803   0.00000  Uiso   1.00
C104   C     0.13832   0.30625   0.94895   0.00000  Uiso   1.00
C105   C     0.20916   0.35134   0.87101   0.00000  Uiso   1.00
C106   C     0.39077   0.21922   0.20624   0.00000  Uiso   1.00
C107   C     0.33435   0.28009   0.24028   0.00000  Uiso   1.00
C108   C     0.42986   0.32778   0.31566   0.00000  Uiso   1.00
C109   C     0.35556   0.37967   0.33555   0.00000  Uiso   1.00
C110   C     0.31657   0.13136   0.19460   0.00000  Uiso   1.00
C111   C     0.39713   0.05399   0.23157   0.00000  Uiso   1.00
C112   C     0.30786   0.98067   0.21300   0.00000  Uiso   1.00
C113   C     0.31459   0.25124   0.11621   0.00000  Uiso   1.00
C114   C     0.39348   0.27465   0.08725   0.00000  Uiso   1.00
C115   C     0.30253   0.30224   0.00267   0.00000  Uiso   1.00
H116   H     0.96137   0.22970   0.06578   0.00000  Uiso   1.00
H117   H     0.96912   0.33900   0.16493   0.00000  Uiso   1.00
H118   H     0.93639   0.06526   0.08084   0.00000  Uiso   1.00
H119   H     0.93274   0.28589   0.93655   0.00000  Uiso   1.00
H120   H     0.05000   0.45840   0.29852   0.00000  Uiso   1.00
H121   H     0.98099   0.88119   0.12120   0.00000  Uiso   1.00
H122   H     0.97329   0.34642   0.81693   0.00000  Uiso   1.00
H123   H     0.51839   0.21610   0.24799   0.00000  Uiso   1.00
H124   H     0.55671   0.32467   0.35714   0.00000  Uiso   1.00
H125   H     0.52398   0.05092   0.27306   0.00000  Uiso   1.00
H126   H     0.52033   0.27154   0.12877   0.00000  Uiso   1.00
H127   H     0.52691   0.44676   0.45453   0.00000  Uiso   1.00
H128   H     0.45789   0.86955   0.27721   0.00000  Uiso   1.00
H129   H     0.45019   0.33478   0.97294   0.00000  Uiso   1.00
O130   O     0.30361   0.52422   0.44506   0.00000  Uiso   1.00
O131   O     0.21306   0.76694   0.21240   0.00000  Uiso   1.00
O132   O     0.20296   0.37732   0.81321   0.00000  Uiso   1.00
N133   N     0.15698   0.44078   0.32025   0.00000  Uiso   1.00
N134   N     0.09246   0.90112   0.15447   0.00000  Uiso   1.00
N135   N     0.08526   0.33605   0.87000   0.00000  Uiso   1.00
N136   N     0.41360   0.43451   0.40420   0.00000  Uiso   1.00
N137   N     0.34908   0.89486   0.23842   0.00000  Uiso   1.00
N138   N     0.34188   0.32979   0.95395   0.00000  Uiso   1.00
C139   C     0.91101   0.72659   0.39248   0.00000  Uiso   1.00
C140   C     0.82956   0.78410   0.31334   0.00000  Uiso   1.00
C141   C     0.90402   0.83593   0.29356   0.00000  Uiso   1.00
C142   C     0.80865   0.88368   0.21817   0.00000  Uiso   1.00
C143   C     0.70711   0.97355   0.10343   0.00000  Uiso   1.00
C144   C     0.84734   0.63536   0.35902   0.00000  Uiso   1.00
C145   C     0.93676   0.56214   0.37765   0.00000  Uiso   1.00
C146   C     0.85635   0.48469   0.34071   0.00000  Uiso   1.00
C147   C     0.78243   0.34364   0.29694   0.00000  Uiso   1.00
C148   C     0.84933   0.75524   0.43741   0.00000  Uiso   1.00
C149   C     0.94041   0.78280   0.52197   0.00000  Uiso   1.00
C150   C     0.86168   0.80625   0.55105   0.00000  Uiso   1.00
C151   C     0.79084   0.85134   0.62899   0.00000  Uiso   1.00
C152   C     0.60923   0.71922   0.29376   0.00000  Uiso   1.00
C153   C     0.66565   0.78009   0.25972   0.00000  Uiso   1.00
C154   C     0.57014   0.82778   0.18434   0.00000  Uiso   1.00
C155   C     0.64444   0.87967   0.16445   0.00000  Uiso   1.00
C156   C     0.68343   0.63136   0.30540   0.00000  Uiso   1.00
C157   C     0.60287   0.55399   0.26843   0.00000  Uiso   1.00
C158   C     0.69214   0.48067   0.28700   0.00000  Uiso   1.00
C159   C     0.68541   0.75124   0.38379   0.00000  Uiso   1.00
C160   C     0.60652   0.77465   0.41275   0.00000  Uiso   1.00
C161   C     0.69747   0.80224   0.49733   0.00000  Uiso   1.00
H162   H     0.03863   0.72970   0.43422   0.00000  Uiso   1.00
H163   H     0.03088   0.83900   0.33507   0.00000  Uiso   1.00
H164   H     0.06361   0.56526   0.41916   0.00000  Uiso   1.00
H165   H     0.06726   0.78589   0.56345   0.00000  Uiso   1.00
H166   H     0.95000   0.95840   0.20148   0.00000  Uiso   1.00
H167   H     0.01901   0.38119   0.37880   0.00000  Uiso   1.00
H168   H     0.02671   0.84642   0.68307   0.00000  Uiso   1.00
H169   H     0.48161   0.71610   0.25201   0.00000  Uiso   1.00
H170   H     0.44329   0.82467   0.14286   0.00000  Uiso   1.00
H171   H     0.47602   0.55092   0.22694   0.00000  Uiso   1.00
H172   H     0.47967   0.77154   0.37123   0.00000  Uiso   1.00
H173   H     0.47309   0.94676   0.04547   0.00000  Uiso   1.00
H174   H     0.54211   0.36955   0.22279   0.00000  Uiso   1.00
H175   H     0.54981   0.83478   0.52706   0.00000  Uiso   1.00
O176   O     0.69639   0.02422   0.05494   0.00000  Uiso   1.00
O177   O     0.78694   0.26694   0.28760   0.00000  Uiso   1.00
O178   O     0.79704   0.87732   0.68679   0.00000  Uiso   1.00
N179   N     0.84302   0.94078   0.17975   0.00000  Uiso   1.00
N180   N     0.90754   0.40112   0.34553   0.00000  Uiso   1.00
N181   N     0.91474   0.83605   0.63000   0.00000  Uiso   1.00
N182   N     0.58640   0.93451   0.09580   0.00000  Uiso   1.00
N183   N     0.65092   0.39486   0.26158   0.00000  Uiso   1.00
N184   N     0.65812   0.82979   0.54605   0.00000  Uiso   1.00
