data_job_02557
_audit_creation_date              2018-12-19
_audit_creation_method            'Materials Studio'
_symmetry_space_group_name_H-M    'P1'
_symmetry_Int_Tables_number       1
_symmetry_cell_setting            triclinic
loop_
_symmetry_equiv_pos_as_xyz
  x,y,z
_cell_length_a                    12.4258
_cell_length_b                    20.9542
_cell_length_c                    22.1532
_cell_angle_alpha                 90.0000
_cell_angle_beta                  90.0000
_cell_angle_gamma                 90.0000
loop_
_atom_site_label
_atom_site_type_symbol
_atom_site_fract_x
_atom_site_fract_y
_atom_site_fract_z
_atom_site_U_iso_or_equiv
_atom_site_adp_type
_atom_site_occupancy
C1     C     0.42035   0.57417   0.43055   0.00000  Uiso   1.00
C2     C     0.50457   0.62279   0.41075   0.00000  Uiso   1.00
C3     C     0.60246   0.63392   0.43901   0.00000  Uiso   1.00
C4     C     0.66828   0.68043   0.41392   0.00000  Uiso   1.00
C5     C     0.80376   0.75075   0.39102   0.00000  Uiso   1.00
C6     C     0.31642   0.61162   0.43983   0.00000  Uiso   1.00
C7     C     0.25612   0.61335   0.49254   0.00000  Uiso   1.00
C8     C     0.16355   0.65045   0.49193   0.00000  Uiso   1.00
C9     C     0.00688   0.70339   0.51416   0.00000  Uiso   1.00
C10    C     0.40085   0.53116   0.37612   0.00000  Uiso   1.00
C11    C     0.41151   0.46524   0.37526   0.00000  Uiso   1.00
C12    C     0.39000   0.43460   0.32101   0.00000  Uiso   1.00
C13    C     0.36443   0.36261   0.24432   0.00000  Uiso   1.00
C14    C     0.36316   0.63698   0.33575   0.00000  Uiso   1.00
C15    C     0.47350   0.65690   0.35926   0.00000  Uiso   1.00
C16    C     0.53920   0.70341   0.33412   0.00000  Uiso   1.00
C17    C     0.63717   0.71461   0.36234   0.00000  Uiso   1.00
C18    C     0.28536   0.64573   0.38834   0.00000  Uiso   1.00
C19    C     0.19285   0.68284   0.38765   0.00000  Uiso   1.00
C20    C     0.13243   0.68463   0.44034   0.00000  Uiso   1.00
C21    C     0.36979   0.56527   0.32463   0.00000  Uiso   1.00
C22    C     0.34825   0.53473   0.27037   0.00000  Uiso   1.00
C23    C     0.35888   0.46877   0.26943   0.00000  Uiso   1.00
H24    H     0.44452   0.54761   0.47064   0.00000  Uiso   1.00
H25    H     0.62646   0.60751   0.47886   0.00000  Uiso   1.00
H26    H     0.28017   0.58694   0.53238   0.00000  Uiso   1.00
H27    H     0.43555   0.43885   0.41511   0.00000  Uiso   1.00
H28    H     0.81447   0.68898   0.46527   0.00000  Uiso   1.00
H29    H     0.08427   0.64558   0.57811   0.00000  Uiso   1.00
H30    H     0.41190   0.33331   0.33084   0.00000  Uiso   1.00
H31    H     0.33898   0.66354   0.29566   0.00000  Uiso   1.00
H32    H     0.51514   0.72980   0.29427   0.00000  Uiso   1.00
H33    H     0.16884   0.70923   0.34779   0.00000  Uiso   1.00
H34    H     0.32422   0.56114   0.23053   0.00000  Uiso   1.00
H35    H     0.72411   0.78824   0.31546   0.00000  Uiso   1.00
H36    H     0.99390   0.74484   0.42830   0.00000  Uiso   1.00
H37    H     0.32155   0.43257   0.18103   0.00000  Uiso   1.00
O38    O     0.88706   0.78012   0.39262   0.00000  Uiso   1.00
O39    O     0.92906   0.72317   0.54066   0.00000  Uiso   1.00
O40    O     0.35892   0.31349   0.21625   0.00000  Uiso   1.00
N41    N     0.76904   0.70324   0.43020   0.00000  Uiso   1.00
N42    N     0.08635   0.66267   0.53570   0.00000  Uiso   1.00
N43    N     0.39264   0.37073   0.30453   0.00000  Uiso   1.00
N44    N     0.72042   0.75665   0.34958   0.00000  Uiso   1.00
N45    N     0.03773   0.71608   0.45508   0.00000  Uiso   1.00
N46    N     0.34402   0.42414   0.22391   0.00000  Uiso   1.00
C47    C     0.92035   0.07417   0.43055   0.00000  Uiso   1.00
C48    C     0.00457   0.12279   0.41075   0.00000  Uiso   1.00
C49    C     0.10246   0.13392   0.43901   0.00000  Uiso   1.00
C50    C     0.16828   0.18043   0.41392   0.00000  Uiso   1.00
C51    C     0.30376   0.25075   0.39102   0.00000  Uiso   1.00
C52    C     0.81642   0.11162   0.43983   0.00000  Uiso   1.00
C53    C     0.75612   0.11335   0.49254   0.00000  Uiso   1.00
C54    C     0.66355   0.15045   0.49193   0.00000  Uiso   1.00
C55    C     0.50688   0.20339   0.51416   0.00000  Uiso   1.00
C56    C     0.90085   0.03116   0.37612   0.00000  Uiso   1.00
C57    C     0.91151   0.96524   0.37526   0.00000  Uiso   1.00
C58    C     0.89000   0.93460   0.32101   0.00000  Uiso   1.00
C59    C     0.86443   0.86261   0.24432   0.00000  Uiso   1.00
C60    C     0.86316   0.13698   0.33575   0.00000  Uiso   1.00
C61    C     0.97350   0.15690   0.35926   0.00000  Uiso   1.00
C62    C     0.03920   0.20341   0.33412   0.00000  Uiso   1.00
C63    C     0.13717   0.21461   0.36234   0.00000  Uiso   1.00
C64    C     0.78536   0.14573   0.38834   0.00000  Uiso   1.00
C65    C     0.69285   0.18284   0.38765   0.00000  Uiso   1.00
C66    C     0.63243   0.18463   0.44034   0.00000  Uiso   1.00
C67    C     0.86979   0.06527   0.32463   0.00000  Uiso   1.00
C68    C     0.84825   0.03473   0.27037   0.00000  Uiso   1.00
C69    C     0.85888   0.96877   0.26943   0.00000  Uiso   1.00
H70    H     0.94452   0.04761   0.47064   0.00000  Uiso   1.00
H71    H     0.12646   0.10751   0.47886   0.00000  Uiso   1.00
H72    H     0.78017   0.08694   0.53238   0.00000  Uiso   1.00
H73    H     0.93555   0.93885   0.41511   0.00000  Uiso   1.00
H74    H     0.31447   0.18898   0.46527   0.00000  Uiso   1.00
H75    H     0.58427   0.14558   0.57811   0.00000  Uiso   1.00
H76    H     0.91190   0.83331   0.33084   0.00000  Uiso   1.00
H77    H     0.83898   0.16354   0.29566   0.00000  Uiso   1.00
H78    H     0.01514   0.22980   0.29427   0.00000  Uiso   1.00
H79    H     0.66884   0.20923   0.34779   0.00000  Uiso   1.00
H80    H     0.82422   0.06114   0.23053   0.00000  Uiso   1.00
H81    H     0.22411   0.28824   0.31546   0.00000  Uiso   1.00
H82    H     0.49390   0.24484   0.42830   0.00000  Uiso   1.00
H83    H     0.82155   0.93257   0.18103   0.00000  Uiso   1.00
O84    O     0.38706   0.28012   0.39262   0.00000  Uiso   1.00
O85    O     0.42906   0.22317   0.54066   0.00000  Uiso   1.00
O86    O     0.85892   0.81349   0.21625   0.00000  Uiso   1.00
N87    N     0.26904   0.20324   0.43020   0.00000  Uiso   1.00
N88    N     0.58635   0.16267   0.53570   0.00000  Uiso   1.00
N89    N     0.89264   0.87073   0.30453   0.00000  Uiso   1.00
N90    N     0.22042   0.25665   0.34958   0.00000  Uiso   1.00
N91    N     0.53773   0.21608   0.45508   0.00000  Uiso   1.00
N92    N     0.84402   0.92414   0.22391   0.00000  Uiso   1.00
C93    C     0.57965   0.42583   0.93055   0.00000  Uiso   1.00
C94    C     0.49543   0.37721   0.91075   0.00000  Uiso   1.00
C95    C     0.39754   0.36608   0.93901   0.00000  Uiso   1.00
C96    C     0.33172   0.31957   0.91392   0.00000  Uiso   1.00
C97    C     0.19624   0.24925   0.89102   0.00000  Uiso   1.00
C98    C     0.68358   0.38838   0.93983   0.00000  Uiso   1.00
C99    C     0.74388   0.38665   0.99254   0.00000  Uiso   1.00
C100   C     0.83645   0.34955   0.99193   0.00000  Uiso   1.00
C101   C     0.99312   0.29661   0.01416   0.00000  Uiso   1.00
C102   C     0.59915   0.46884   0.87612   0.00000  Uiso   1.00
C103   C     0.58849   0.53476   0.87526   0.00000  Uiso   1.00
C104   C     0.61000   0.56540   0.82101   0.00000  Uiso   1.00
C105   C     0.63557   0.63739   0.74432   0.00000  Uiso   1.00
C106   C     0.63684   0.36302   0.83575   0.00000  Uiso   1.00
C107   C     0.52650   0.34310   0.85926   0.00000  Uiso   1.00
C108   C     0.46080   0.29659   0.83412   0.00000  Uiso   1.00
C109   C     0.36283   0.28539   0.86234   0.00000  Uiso   1.00
C110   C     0.71464   0.35427   0.88834   0.00000  Uiso   1.00
C111   C     0.80715   0.31716   0.88765   0.00000  Uiso   1.00
C112   C     0.86757   0.31537   0.94034   0.00000  Uiso   1.00
C113   C     0.63021   0.43473   0.82463   0.00000  Uiso   1.00
C114   C     0.65175   0.46527   0.77037   0.00000  Uiso   1.00
C115   C     0.64112   0.53123   0.76943   0.00000  Uiso   1.00
H116   H     0.55548   0.45239   0.97064   0.00000  Uiso   1.00
H117   H     0.37354   0.39249   0.97886   0.00000  Uiso   1.00
H118   H     0.71983   0.41306   0.03238   0.00000  Uiso   1.00
H119   H     0.56445   0.56115   0.91511   0.00000  Uiso   1.00
H120   H     0.18553   0.31102   0.96527   0.00000  Uiso   1.00
H121   H     0.91573   0.35442   0.07811   0.00000  Uiso   1.00
H122   H     0.58810   0.66669   0.83084   0.00000  Uiso   1.00
H123   H     0.66102   0.33646   0.79566   0.00000  Uiso   1.00
H124   H     0.48486   0.27020   0.79427   0.00000  Uiso   1.00
H125   H     0.83116   0.29077   0.84779   0.00000  Uiso   1.00
H126   H     0.67578   0.43886   0.73053   0.00000  Uiso   1.00
H127   H     0.27589   0.21176   0.81546   0.00000  Uiso   1.00
H128   H     0.00610   0.25516   0.92830   0.00000  Uiso   1.00
H129   H     0.67845   0.56743   0.68103   0.00000  Uiso   1.00
O130   O     0.11294   0.21988   0.89262   0.00000  Uiso   1.00
O131   O     0.07094   0.27683   0.04066   0.00000  Uiso   1.00
O132   O     0.64108   0.68651   0.71625   0.00000  Uiso   1.00
N133   N     0.23096   0.29676   0.93020   0.00000  Uiso   1.00
N134   N     0.91365   0.33733   0.03570   0.00000  Uiso   1.00
N135   N     0.60736   0.62927   0.80453   0.00000  Uiso   1.00
N136   N     0.27958   0.24335   0.84958   0.00000  Uiso   1.00
N137   N     0.96227   0.28392   0.95508   0.00000  Uiso   1.00
N138   N     0.65598   0.57586   0.72391   0.00000  Uiso   1.00
C139   C     0.07965   0.92583   0.93055   0.00000  Uiso   1.00
C140   C     0.99543   0.87721   0.91075   0.00000  Uiso   1.00
C141   C     0.89754   0.86608   0.93901   0.00000  Uiso   1.00
C142   C     0.83172   0.81957   0.91392   0.00000  Uiso   1.00
C143   C     0.69624   0.74925   0.89102   0.00000  Uiso   1.00
C144   C     0.18358   0.88838   0.93983   0.00000  Uiso   1.00
C145   C     0.24388   0.88665   0.99254   0.00000  Uiso   1.00
C146   C     0.33645   0.84955   0.99193   0.00000  Uiso   1.00
C147   C     0.49312   0.79661   0.01416   0.00000  Uiso   1.00
C148   C     0.09915   0.96884   0.87612   0.00000  Uiso   1.00
C149   C     0.08849   0.03476   0.87526   0.00000  Uiso   1.00
C150   C     0.11000   0.06540   0.82101   0.00000  Uiso   1.00
C151   C     0.13557   0.13739   0.74432   0.00000  Uiso   1.00
C152   C     0.13684   0.86302   0.83575   0.00000  Uiso   1.00
C153   C     0.02650   0.84310   0.85926   0.00000  Uiso   1.00
C154   C     0.96080   0.79659   0.83412   0.00000  Uiso   1.00
C155   C     0.86283   0.78539   0.86234   0.00000  Uiso   1.00
C156   C     0.21464   0.85427   0.88834   0.00000  Uiso   1.00
C157   C     0.30715   0.81716   0.88765   0.00000  Uiso   1.00
C158   C     0.36757   0.81537   0.94034   0.00000  Uiso   1.00
C159   C     0.13021   0.93473   0.82463   0.00000  Uiso   1.00
C160   C     0.15175   0.96527   0.77037   0.00000  Uiso   1.00
C161   C     0.14112   0.03123   0.76943   0.00000  Uiso   1.00
H162   H     0.05548   0.95239   0.97064   0.00000  Uiso   1.00
H163   H     0.87354   0.89249   0.97886   0.00000  Uiso   1.00
H164   H     0.21983   0.91306   0.03238   0.00000  Uiso   1.00
H165   H     0.06445   0.06115   0.91511   0.00000  Uiso   1.00
H166   H     0.68553   0.81102   0.96527   0.00000  Uiso   1.00
H167   H     0.41573   0.85442   0.07811   0.00000  Uiso   1.00
H168   H     0.08810   0.16669   0.83084   0.00000  Uiso   1.00
H169   H     0.16102   0.83646   0.79566   0.00000  Uiso   1.00
H170   H     0.98486   0.77020   0.79427   0.00000  Uiso   1.00
H171   H     0.33116   0.79077   0.84779   0.00000  Uiso   1.00
H172   H     0.17578   0.93886   0.73053   0.00000  Uiso   1.00
H173   H     0.77589   0.71176   0.81546   0.00000  Uiso   1.00
H174   H     0.50610   0.75516   0.92830   0.00000  Uiso   1.00
H175   H     0.17845   0.06743   0.68103   0.00000  Uiso   1.00
O176   O     0.61294   0.71988   0.89262   0.00000  Uiso   1.00
O177   O     0.57094   0.77683   0.04066   0.00000  Uiso   1.00
O178   O     0.14108   0.18651   0.71625   0.00000  Uiso   1.00
N179   N     0.73096   0.79676   0.93020   0.00000  Uiso   1.00
N180   N     0.41365   0.83733   0.03570   0.00000  Uiso   1.00
N181   N     0.10736   0.12927   0.80453   0.00000  Uiso   1.00
N182   N     0.77958   0.74335   0.84958   0.00000  Uiso   1.00
N183   N     0.46227   0.78392   0.95508   0.00000  Uiso   1.00
N184   N     0.15598   0.07586   0.72391   0.00000  Uiso   1.00
C185   C     0.57965   0.57417   0.06945   0.00000  Uiso   1.00
C186   C     0.49543   0.62279   0.08925   0.00000  Uiso   1.00
C187   C     0.39754   0.63392   0.06099   0.00000  Uiso   1.00
C188   C     0.33172   0.68043   0.08608   0.00000  Uiso   1.00
C189   C     0.19624   0.75075   0.10898   0.00000  Uiso   1.00
C190   C     0.68358   0.61162   0.06017   0.00000  Uiso   1.00
C191   C     0.74388   0.61335   0.00746   0.00000  Uiso   1.00
C192   C     0.83645   0.65045   0.00807   0.00000  Uiso   1.00
C193   C     0.99312   0.70339   0.98584   0.00000  Uiso   1.00
C194   C     0.59915   0.53116   0.12388   0.00000  Uiso   1.00
C195   C     0.58849   0.46524   0.12474   0.00000  Uiso   1.00
C196   C     0.61000   0.43460   0.17899   0.00000  Uiso   1.00
C197   C     0.63557   0.36261   0.25568   0.00000  Uiso   1.00
C198   C     0.63684   0.63698   0.16425   0.00000  Uiso   1.00
C199   C     0.52650   0.65690   0.14074   0.00000  Uiso   1.00
C200   C     0.46080   0.70341   0.16588   0.00000  Uiso   1.00
C201   C     0.36283   0.71461   0.13766   0.00000  Uiso   1.00
C202   C     0.71464   0.64573   0.11166   0.00000  Uiso   1.00
C203   C     0.80715   0.68284   0.11235   0.00000  Uiso   1.00
C204   C     0.86757   0.68463   0.05966   0.00000  Uiso   1.00
C205   C     0.63021   0.56527   0.17537   0.00000  Uiso   1.00
C206   C     0.65175   0.53473   0.22963   0.00000  Uiso   1.00
C207   C     0.64112   0.46877   0.23057   0.00000  Uiso   1.00
H208   H     0.55548   0.54761   0.02936   0.00000  Uiso   1.00
H209   H     0.37354   0.60751   0.02114   0.00000  Uiso   1.00
H210   H     0.71983   0.58694   0.96762   0.00000  Uiso   1.00
H211   H     0.56445   0.43885   0.08489   0.00000  Uiso   1.00
H212   H     0.18553   0.68898   0.03473   0.00000  Uiso   1.00
H213   H     0.91573   0.64558   0.92189   0.00000  Uiso   1.00
H214   H     0.58810   0.33331   0.16916   0.00000  Uiso   1.00
H215   H     0.66102   0.66354   0.20434   0.00000  Uiso   1.00
H216   H     0.48486   0.72980   0.20573   0.00000  Uiso   1.00
H217   H     0.83116   0.70923   0.15221   0.00000  Uiso   1.00
H218   H     0.67578   0.56114   0.26947   0.00000  Uiso   1.00
H219   H     0.27589   0.78824   0.18454   0.00000  Uiso   1.00
H220   H     0.00610   0.74484   0.07170   0.00000  Uiso   1.00
H221   H     0.67845   0.43257   0.31897   0.00000  Uiso   1.00
O222   O     0.11294   0.78012   0.10738   0.00000  Uiso   1.00
O223   O     0.07094   0.72317   0.95934   0.00000  Uiso   1.00
O224   O     0.64108   0.31349   0.28375   0.00000  Uiso   1.00
N225   N     0.23096   0.70324   0.06980   0.00000  Uiso   1.00
N226   N     0.91365   0.66267   0.96430   0.00000  Uiso   1.00
N227   N     0.60736   0.37073   0.19547   0.00000  Uiso   1.00
N228   N     0.27958   0.75665   0.15042   0.00000  Uiso   1.00
N229   N     0.96227   0.71608   0.04492   0.00000  Uiso   1.00
N230   N     0.65598   0.42414   0.27609   0.00000  Uiso   1.00
C231   C     0.07965   0.07417   0.06945   0.00000  Uiso   1.00
C232   C     0.99543   0.12279   0.08925   0.00000  Uiso   1.00
C233   C     0.89754   0.13392   0.06099   0.00000  Uiso   1.00
C234   C     0.83172   0.18043   0.08608   0.00000  Uiso   1.00
C235   C     0.69624   0.25075   0.10898   0.00000  Uiso   1.00
C236   C     0.18358   0.11162   0.06017   0.00000  Uiso   1.00
C237   C     0.24388   0.11335   0.00746   0.00000  Uiso   1.00
C238   C     0.33645   0.15045   0.00807   0.00000  Uiso   1.00
C239   C     0.49312   0.20339   0.98584   0.00000  Uiso   1.00
C240   C     0.09915   0.03116   0.12388   0.00000  Uiso   1.00
C241   C     0.08849   0.96524   0.12474   0.00000  Uiso   1.00
C242   C     0.11000   0.93460   0.17899   0.00000  Uiso   1.00
C243   C     0.13557   0.86261   0.25568   0.00000  Uiso   1.00
C244   C     0.13684   0.13698   0.16425   0.00000  Uiso   1.00
C245   C     0.02650   0.15690   0.14074   0.00000  Uiso   1.00
C246   C     0.96080   0.20341   0.16588   0.00000  Uiso   1.00
C247   C     0.86283   0.21461   0.13766   0.00000  Uiso   1.00
C248   C     0.21464   0.14573   0.11166   0.00000  Uiso   1.00
C249   C     0.30715   0.18284   0.11235   0.00000  Uiso   1.00
C250   C     0.36757   0.18463   0.05966   0.00000  Uiso   1.00
C251   C     0.13021   0.06527   0.17537   0.00000  Uiso   1.00
C252   C     0.15175   0.03473   0.22963   0.00000  Uiso   1.00
C253   C     0.14112   0.96877   0.23057   0.00000  Uiso   1.00
H254   H     0.05548   0.04761   0.02936   0.00000  Uiso   1.00
H255   H     0.87354   0.10751   0.02114   0.00000  Uiso   1.00
H256   H     0.21983   0.08694   0.96762   0.00000  Uiso   1.00
H257   H     0.06445   0.93885   0.08489   0.00000  Uiso   1.00
H258   H     0.68553   0.18898   0.03473   0.00000  Uiso   1.00
H259   H     0.41573   0.14558   0.92189   0.00000  Uiso   1.00
H260   H     0.08810   0.83331   0.16916   0.00000  Uiso   1.00
H261   H     0.16102   0.16354   0.20434   0.00000  Uiso   1.00
H262   H     0.98486   0.22980   0.20573   0.00000  Uiso   1.00
H263   H     0.33116   0.20923   0.15221   0.00000  Uiso   1.00
H264   H     0.17578   0.06114   0.26947   0.00000  Uiso   1.00
H265   H     0.77589   0.28824   0.18454   0.00000  Uiso   1.00
H266   H     0.50610   0.24484   0.07170   0.00000  Uiso   1.00
H267   H     0.17845   0.93257   0.31897   0.00000  Uiso   1.00
O268   O     0.61294   0.28012   0.10738   0.00000  Uiso   1.00
O269   O     0.57094   0.22317   0.95934   0.00000  Uiso   1.00
O270   O     0.14108   0.81349   0.28375   0.00000  Uiso   1.00
N271   N     0.73096   0.20324   0.06980   0.00000  Uiso   1.00
N272   N     0.41365   0.16267   0.96430   0.00000  Uiso   1.00
N273   N     0.10736   0.87073   0.19547   0.00000  Uiso   1.00
N274   N     0.77958   0.25665   0.15042   0.00000  Uiso   1.00
N275   N     0.46227   0.21608   0.04492   0.00000  Uiso   1.00
N276   N     0.15598   0.92414   0.27609   0.00000  Uiso   1.00
C277   C     0.42035   0.42583   0.56945   0.00000  Uiso   1.00
C278   C     0.50457   0.37721   0.58925   0.00000  Uiso   1.00
C279   C     0.60246   0.36608   0.56099   0.00000  Uiso   1.00
C280   C     0.66828   0.31957   0.58608   0.00000  Uiso   1.00
C281   C     0.80376   0.24925   0.60898   0.00000  Uiso   1.00
C282   C     0.31642   0.38838   0.56017   0.00000  Uiso   1.00
C283   C     0.25612   0.38665   0.50746   0.00000  Uiso   1.00
C284   C     0.16355   0.34955   0.50807   0.00000  Uiso   1.00
C285   C     0.00688   0.29661   0.48584   0.00000  Uiso   1.00
C286   C     0.40085   0.46884   0.62388   0.00000  Uiso   1.00
C287   C     0.41151   0.53476   0.62474   0.00000  Uiso   1.00
C288   C     0.39000   0.56540   0.67899   0.00000  Uiso   1.00
C289   C     0.36443   0.63739   0.75568   0.00000  Uiso   1.00
C290   C     0.36316   0.36302   0.66425   0.00000  Uiso   1.00
C291   C     0.47350   0.34310   0.64074   0.00000  Uiso   1.00
C292   C     0.53920   0.29659   0.66588   0.00000  Uiso   1.00
C293   C     0.63717   0.28539   0.63766   0.00000  Uiso   1.00
C294   C     0.28536   0.35427   0.61166   0.00000  Uiso   1.00
C295   C     0.19285   0.31716   0.61235   0.00000  Uiso   1.00
C296   C     0.13243   0.31537   0.55966   0.00000  Uiso   1.00
C297   C     0.36979   0.43473   0.67537   0.00000  Uiso   1.00
C298   C     0.34825   0.46527   0.72963   0.00000  Uiso   1.00
C299   C     0.35888   0.53123   0.73057   0.00000  Uiso   1.00
H300   H     0.44452   0.45239   0.52936   0.00000  Uiso   1.00
H301   H     0.62646   0.39249   0.52114   0.00000  Uiso   1.00
H302   H     0.28017   0.41306   0.46762   0.00000  Uiso   1.00
H303   H     0.43555   0.56115   0.58489   0.00000  Uiso   1.00
H304   H     0.81447   0.31102   0.53473   0.00000  Uiso   1.00
H305   H     0.08427   0.35442   0.42189   0.00000  Uiso   1.00
H306   H     0.41190   0.66669   0.66916   0.00000  Uiso   1.00
H307   H     0.33898   0.33646   0.70434   0.00000  Uiso   1.00
H308   H     0.51514   0.27020   0.70573   0.00000  Uiso   1.00
H309   H     0.16884   0.29077   0.65221   0.00000  Uiso   1.00
H310   H     0.32422   0.43886   0.76947   0.00000  Uiso   1.00
H311   H     0.72411   0.21176   0.68454   0.00000  Uiso   1.00
H312   H     0.99390   0.25516   0.57170   0.00000  Uiso   1.00
H313   H     0.32155   0.56743   0.81897   0.00000  Uiso   1.00
O314   O     0.88706   0.21988   0.60738   0.00000  Uiso   1.00
O315   O     0.92906   0.27683   0.45934   0.00000  Uiso   1.00
O316   O     0.35892   0.68651   0.78375   0.00000  Uiso   1.00
N317   N     0.76904   0.29676   0.56980   0.00000  Uiso   1.00
N318   N     0.08635   0.33733   0.46430   0.00000  Uiso   1.00
N319   N     0.39264   0.62927   0.69547   0.00000  Uiso   1.00
N320   N     0.72042   0.24335   0.65042   0.00000  Uiso   1.00
N321   N     0.03773   0.28392   0.54492   0.00000  Uiso   1.00
N322   N     0.34402   0.57586   0.77609   0.00000  Uiso   1.00
C323   C     0.92035   0.92583   0.56945   0.00000  Uiso   1.00
C324   C     0.00457   0.87721   0.58925   0.00000  Uiso   1.00
C325   C     0.10246   0.86608   0.56099   0.00000  Uiso   1.00
C326   C     0.16828   0.81957   0.58608   0.00000  Uiso   1.00
C327   C     0.30376   0.74925   0.60898   0.00000  Uiso   1.00
C328   C     0.81642   0.88838   0.56017   0.00000  Uiso   1.00
C329   C     0.75612   0.88665   0.50746   0.00000  Uiso   1.00
C330   C     0.66355   0.84955   0.50807   0.00000  Uiso   1.00
C331   C     0.50688   0.79661   0.48584   0.00000  Uiso   1.00
C332   C     0.90085   0.96884   0.62388   0.00000  Uiso   1.00
C333   C     0.91151   0.03476   0.62474   0.00000  Uiso   1.00
C334   C     0.89000   0.06540   0.67899   0.00000  Uiso   1.00
C335   C     0.86443   0.13739   0.75568   0.00000  Uiso   1.00
C336   C     0.86316   0.86302   0.66425   0.00000  Uiso   1.00
C337   C     0.97350   0.84310   0.64074   0.00000  Uiso   1.00
C338   C     0.03920   0.79659   0.66588   0.00000  Uiso   1.00
C339   C     0.13717   0.78539   0.63766   0.00000  Uiso   1.00
C340   C     0.78536   0.85427   0.61166   0.00000  Uiso   1.00
C341   C     0.69285   0.81716   0.61235   0.00000  Uiso   1.00
C342   C     0.63243   0.81537   0.55966   0.00000  Uiso   1.00
C343   C     0.86979   0.93473   0.67537   0.00000  Uiso   1.00
C344   C     0.84825   0.96527   0.72963   0.00000  Uiso   1.00
C345   C     0.85888   0.03123   0.73057   0.00000  Uiso   1.00
H346   H     0.94452   0.95239   0.52936   0.00000  Uiso   1.00
H347   H     0.12646   0.89249   0.52114   0.00000  Uiso   1.00
H348   H     0.78017   0.91306   0.46762   0.00000  Uiso   1.00
H349   H     0.93555   0.06115   0.58489   0.00000  Uiso   1.00
H350   H     0.31447   0.81102   0.53473   0.00000  Uiso   1.00
H351   H     0.58427   0.85442   0.42189   0.00000  Uiso   1.00
H352   H     0.91190   0.16669   0.66916   0.00000  Uiso   1.00
H353   H     0.83898   0.83646   0.70434   0.00000  Uiso   1.00
H354   H     0.01514   0.77020   0.70573   0.00000  Uiso   1.00
H355   H     0.66884   0.79077   0.65221   0.00000  Uiso   1.00
H356   H     0.82422   0.93886   0.76947   0.00000  Uiso   1.00
H357   H     0.22411   0.71176   0.68454   0.00000  Uiso   1.00
H358   H     0.49390   0.75516   0.57170   0.00000  Uiso   1.00
H359   H     0.82155   0.06743   0.81897   0.00000  Uiso   1.00
O360   O     0.38706   0.71988   0.60738   0.00000  Uiso   1.00
O361   O     0.42906   0.77683   0.45934   0.00000  Uiso   1.00
O362   O     0.85892   0.18651   0.78375   0.00000  Uiso   1.00
N363   N     0.26904   0.79676   0.56980   0.00000  Uiso   1.00
N364   N     0.58635   0.83733   0.46430   0.00000  Uiso   1.00
N365   N     0.89264   0.12927   0.69547   0.00000  Uiso   1.00
N366   N     0.22042   0.74335   0.65042   0.00000  Uiso   1.00
N367   N     0.53773   0.78392   0.54492   0.00000  Uiso   1.00
N368   N     0.84402   0.07586   0.77609   0.00000  Uiso   1.00
