data_job_02132
_audit_creation_date              2018-12-19
_audit_creation_method            'Materials Studio'
_symmetry_space_group_name_H-M    'P1'
_symmetry_Int_Tables_number       1
_symmetry_cell_setting            triclinic
loop_
_symmetry_equiv_pos_as_xyz
  x,y,z
_cell_length_a                    21.8975
_cell_length_b                    15.6598
_cell_length_c                    37.9501
_cell_angle_alpha                 90.0000
_cell_angle_beta                  149.3402
_cell_angle_gamma                 90.0000
loop_
_atom_site_label
_atom_site_type_symbol
_atom_site_fract_x
_atom_site_fract_y
_atom_site_fract_z
_atom_site_U_iso_or_equiv
_atom_site_adp_type
_atom_site_occupancy
C1     C     0.21771   0.36479   0.31639   0.00000  Uiso   1.00
C2     C     0.11708   0.36265   0.23929   0.00000  Uiso   1.00
C3     C     0.99543   0.36111   0.18635   0.00000  Uiso   1.00
C4     C     0.91765   0.35924   0.11922   0.00000  Uiso   1.00
C5     C     0.75494   0.35592   0.00158   0.00000  Uiso   1.00
C6     C     0.29699   0.28789   0.34775   0.00000  Uiso   1.00
C7     C     0.32661   0.22351   0.38603   0.00000  Uiso   1.00
C8     C     0.40029   0.15872   0.41020   0.00000  Uiso   1.00
C9     C     0.51696   0.03937   0.46100   0.00000  Uiso   1.00
C10    C     0.29266   0.44343   0.34492   0.00000  Uiso   1.00
C11    C     0.31868   0.50980   0.38082   0.00000  Uiso   1.00
C12    C     0.38875   0.57595   0.40262   0.00000  Uiso   1.00
C13    C     0.49870   0.69809   0.44902   0.00000  Uiso   1.00
C14    C     0.29593   0.36422   0.29129   0.00000  Uiso   1.00
C15    C     0.15957   0.36234   0.22566   0.00000  Uiso   1.00
C16    C     0.08196   0.36048   0.15858   0.00000  Uiso   1.00
C17    C     0.96021   0.35894   0.10556   0.00000  Uiso   1.00
C18    C     0.33947   0.28758   0.33412   0.00000  Uiso   1.00
C19    C     0.41314   0.22288   0.35825   0.00000  Uiso   1.00
C20    C     0.44286   0.15841   0.39655   0.00000  Uiso   1.00
C21    C     0.33515   0.44312   0.33128   0.00000  Uiso   1.00
C22    C     0.40521   0.50917   0.35304   0.00000  Uiso   1.00
C23    C     0.43131   0.57564   0.38897   0.00000  Uiso   1.00
H24    H     0.18464   0.36503   0.32700   0.00000  Uiso   1.00
H25    H     0.96259   0.36134   0.19693   0.00000  Uiso   1.00
H26    H     0.29373   0.22377   0.39657   0.00000  Uiso   1.00
H27    H     0.28579   0.51002   0.39136   0.00000  Uiso   1.00
H28    H     0.73513   0.35709   0.04670   0.00000  Uiso   1.00
H29    H     0.43339   0.06702   0.46768   0.00000  Uiso   1.00
H30    H     0.41666   0.67064   0.45670   0.00000  Uiso   1.00
H31    H     0.32901   0.36398   0.28067   0.00000  Uiso   1.00
H32    H     0.11486   0.36024   0.14805   0.00000  Uiso   1.00
H33    H     0.44601   0.22266   0.34770   0.00000  Uiso   1.00
H34    H     0.43807   0.50891   0.34248   0.00000  Uiso   1.00
H35    H     0.85873   0.35619   0.00703   0.00000  Uiso   1.00
H36    H     0.55699   0.06612   0.42802   0.00000  Uiso   1.00
H37    H     0.54025   0.66974   0.41703   0.00000  Uiso   1.00
O38    O     0.65346   0.35417   0.94046   0.00000  Uiso   1.00
O39    O     0.56956   0.97362   0.49278   0.00000  Uiso   1.00
O40    O     0.54760   0.76555   0.47836   0.00000  Uiso   1.00
N41    N     0.79361   0.35741   0.05556   0.00000  Uiso   1.00
N42    N     0.44642   0.08620   0.44915   0.00000  Uiso   1.00
N43    N     0.43081   0.65052   0.43889   0.00000  Uiso   1.00
N44    N     0.86011   0.35692   0.03422   0.00000  Uiso   1.00
N45    N     0.51293   0.08572   0.42780   0.00000  Uiso   1.00
N46    N     0.49731   0.65004   0.41755   0.00000  Uiso   1.00
C47    C     0.71771   0.86479   0.31639   0.00000  Uiso   1.00
C48    C     0.61708   0.86265   0.23929   0.00000  Uiso   1.00
C49    C     0.49543   0.86111   0.18635   0.00000  Uiso   1.00
C50    C     0.41765   0.85924   0.11922   0.00000  Uiso   1.00
C51    C     0.25494   0.85592   0.00158   0.00000  Uiso   1.00
C52    C     0.79699   0.78789   0.34775   0.00000  Uiso   1.00
C53    C     0.82661   0.72351   0.38603   0.00000  Uiso   1.00
C54    C     0.90029   0.65872   0.41020   0.00000  Uiso   1.00
C55    C     0.01696   0.53937   0.46100   0.00000  Uiso   1.00
C56    C     0.79266   0.94343   0.34492   0.00000  Uiso   1.00
C57    C     0.81868   0.00980   0.38082   0.00000  Uiso   1.00
C58    C     0.88875   0.07595   0.40262   0.00000  Uiso   1.00
C59    C     0.99870   0.19809   0.44902   0.00000  Uiso   1.00
C60    C     0.79593   0.86422   0.29129   0.00000  Uiso   1.00
C61    C     0.65957   0.86234   0.22566   0.00000  Uiso   1.00
C62    C     0.58196   0.86048   0.15858   0.00000  Uiso   1.00
C63    C     0.46021   0.85894   0.10556   0.00000  Uiso   1.00
C64    C     0.83947   0.78758   0.33412   0.00000  Uiso   1.00
C65    C     0.91314   0.72288   0.35825   0.00000  Uiso   1.00
C66    C     0.94286   0.65841   0.39655   0.00000  Uiso   1.00
C67    C     0.83515   0.94312   0.33128   0.00000  Uiso   1.00
C68    C     0.90521   0.00917   0.35304   0.00000  Uiso   1.00
C69    C     0.93131   0.07564   0.38897   0.00000  Uiso   1.00
H70    H     0.68464   0.86503   0.32700   0.00000  Uiso   1.00
H71    H     0.46259   0.86134   0.19693   0.00000  Uiso   1.00
H72    H     0.79373   0.72377   0.39657   0.00000  Uiso   1.00
H73    H     0.78579   0.01002   0.39136   0.00000  Uiso   1.00
H74    H     0.23513   0.85709   0.04670   0.00000  Uiso   1.00
H75    H     0.93339   0.56702   0.46768   0.00000  Uiso   1.00
H76    H     0.91666   0.17064   0.45670   0.00000  Uiso   1.00
H77    H     0.82901   0.86398   0.28067   0.00000  Uiso   1.00
H78    H     0.61486   0.86024   0.14805   0.00000  Uiso   1.00
H79    H     0.94601   0.72266   0.34770   0.00000  Uiso   1.00
H80    H     0.93807   0.00891   0.34248   0.00000  Uiso   1.00
H81    H     0.35873   0.85619   0.00703   0.00000  Uiso   1.00
H82    H     0.05699   0.56612   0.42802   0.00000  Uiso   1.00
H83    H     0.04025   0.16974   0.41703   0.00000  Uiso   1.00
O84    O     0.15346   0.85417   0.94046   0.00000  Uiso   1.00
O85    O     0.06956   0.47362   0.49278   0.00000  Uiso   1.00
O86    O     0.04760   0.26555   0.47836   0.00000  Uiso   1.00
N87    N     0.29361   0.85741   0.05556   0.00000  Uiso   1.00
N88    N     0.94642   0.58620   0.44915   0.00000  Uiso   1.00
N89    N     0.93081   0.15052   0.43889   0.00000  Uiso   1.00
N90    N     0.36011   0.85692   0.03422   0.00000  Uiso   1.00
N91    N     0.01293   0.58572   0.42780   0.00000  Uiso   1.00
N92    N     0.99731   0.15004   0.41755   0.00000  Uiso   1.00
C93    C     0.78229   0.36479   0.18361   0.00000  Uiso   1.00
C94    C     0.88292   0.36265   0.26071   0.00000  Uiso   1.00
C95    C     0.00457   0.36111   0.31365   0.00000  Uiso   1.00
C96    C     0.08235   0.35924   0.38078   0.00000  Uiso   1.00
C97    C     0.24506   0.35592   0.49842   0.00000  Uiso   1.00
C98    C     0.70301   0.28789   0.15225   0.00000  Uiso   1.00
C99    C     0.67339   0.22351   0.11397   0.00000  Uiso   1.00
C100   C     0.59971   0.15872   0.08980   0.00000  Uiso   1.00
C101   C     0.48304   0.03937   0.03900   0.00000  Uiso   1.00
C102   C     0.70734   0.44343   0.15508   0.00000  Uiso   1.00
C103   C     0.68132   0.50980   0.11918   0.00000  Uiso   1.00
C104   C     0.61125   0.57595   0.09738   0.00000  Uiso   1.00
C105   C     0.50130   0.69809   0.05098   0.00000  Uiso   1.00
C106   C     0.70407   0.36422   0.20871   0.00000  Uiso   1.00
C107   C     0.84043   0.36234   0.27434   0.00000  Uiso   1.00
C108   C     0.91804   0.36048   0.34142   0.00000  Uiso   1.00
C109   C     0.03979   0.35894   0.39444   0.00000  Uiso   1.00
C110   C     0.66053   0.28758   0.16588   0.00000  Uiso   1.00
C111   C     0.58686   0.22288   0.14175   0.00000  Uiso   1.00
C112   C     0.55714   0.15841   0.10345   0.00000  Uiso   1.00
C113   C     0.66485   0.44312   0.16872   0.00000  Uiso   1.00
C114   C     0.59479   0.50917   0.14696   0.00000  Uiso   1.00
C115   C     0.56869   0.57564   0.11103   0.00000  Uiso   1.00
H116   H     0.81536   0.36503   0.17300   0.00000  Uiso   1.00
H117   H     0.03741   0.36134   0.30307   0.00000  Uiso   1.00
H118   H     0.70627   0.22377   0.10343   0.00000  Uiso   1.00
H119   H     0.71421   0.51002   0.10864   0.00000  Uiso   1.00
H120   H     0.26487   0.35709   0.45330   0.00000  Uiso   1.00
H121   H     0.56661   0.06702   0.03232   0.00000  Uiso   1.00
H122   H     0.58334   0.67064   0.04330   0.00000  Uiso   1.00
H123   H     0.67099   0.36398   0.21933   0.00000  Uiso   1.00
H124   H     0.88514   0.36024   0.35195   0.00000  Uiso   1.00
H125   H     0.55399   0.22266   0.15230   0.00000  Uiso   1.00
H126   H     0.56193   0.50891   0.15752   0.00000  Uiso   1.00
H127   H     0.14127   0.35619   0.49297   0.00000  Uiso   1.00
H128   H     0.44301   0.06612   0.07198   0.00000  Uiso   1.00
H129   H     0.45975   0.66974   0.08297   0.00000  Uiso   1.00
O130   O     0.34654   0.35417   0.55954   0.00000  Uiso   1.00
O131   O     0.43044   0.97362   0.00722   0.00000  Uiso   1.00
O132   O     0.45240   0.76555   0.02164   0.00000  Uiso   1.00
N133   N     0.20639   0.35741   0.44444   0.00000  Uiso   1.00
N134   N     0.55358   0.08620   0.05085   0.00000  Uiso   1.00
N135   N     0.56919   0.65052   0.06111   0.00000  Uiso   1.00
N136   N     0.13989   0.35692   0.46578   0.00000  Uiso   1.00
N137   N     0.48707   0.08572   0.07220   0.00000  Uiso   1.00
N138   N     0.50269   0.65004   0.08245   0.00000  Uiso   1.00
C139   C     0.28229   0.86479   0.18361   0.00000  Uiso   1.00
C140   C     0.38292   0.86265   0.26071   0.00000  Uiso   1.00
C141   C     0.50457   0.86111   0.31365   0.00000  Uiso   1.00
C142   C     0.58235   0.85924   0.38078   0.00000  Uiso   1.00
C143   C     0.74506   0.85592   0.49842   0.00000  Uiso   1.00
C144   C     0.20301   0.78789   0.15225   0.00000  Uiso   1.00
C145   C     0.17339   0.72351   0.11397   0.00000  Uiso   1.00
C146   C     0.09971   0.65872   0.08980   0.00000  Uiso   1.00
C147   C     0.98304   0.53937   0.03900   0.00000  Uiso   1.00
C148   C     0.20734   0.94343   0.15508   0.00000  Uiso   1.00
C149   C     0.18132   0.00980   0.11918   0.00000  Uiso   1.00
C150   C     0.11125   0.07595   0.09738   0.00000  Uiso   1.00
C151   C     0.00130   0.19809   0.05098   0.00000  Uiso   1.00
C152   C     0.20407   0.86422   0.20871   0.00000  Uiso   1.00
C153   C     0.34043   0.86234   0.27434   0.00000  Uiso   1.00
C154   C     0.41804   0.86048   0.34142   0.00000  Uiso   1.00
C155   C     0.53979   0.85894   0.39444   0.00000  Uiso   1.00
C156   C     0.16053   0.78758   0.16588   0.00000  Uiso   1.00
C157   C     0.08686   0.72288   0.14175   0.00000  Uiso   1.00
C158   C     0.05714   0.65841   0.10345   0.00000  Uiso   1.00
C159   C     0.16485   0.94312   0.16872   0.00000  Uiso   1.00
C160   C     0.09479   0.00917   0.14696   0.00000  Uiso   1.00
C161   C     0.06869   0.07564   0.11103   0.00000  Uiso   1.00
H162   H     0.31536   0.86503   0.17300   0.00000  Uiso   1.00
H163   H     0.53741   0.86134   0.30307   0.00000  Uiso   1.00
H164   H     0.20627   0.72377   0.10343   0.00000  Uiso   1.00
H165   H     0.21421   0.01002   0.10864   0.00000  Uiso   1.00
H166   H     0.76487   0.85709   0.45330   0.00000  Uiso   1.00
H167   H     0.06661   0.56702   0.03232   0.00000  Uiso   1.00
H168   H     0.08334   0.17064   0.04330   0.00000  Uiso   1.00
H169   H     0.17099   0.86398   0.21933   0.00000  Uiso   1.00
H170   H     0.38514   0.86024   0.35195   0.00000  Uiso   1.00
H171   H     0.05399   0.72266   0.15230   0.00000  Uiso   1.00
H172   H     0.06193   0.00891   0.15752   0.00000  Uiso   1.00
H173   H     0.64127   0.85619   0.49297   0.00000  Uiso   1.00
H174   H     0.94301   0.56612   0.07198   0.00000  Uiso   1.00
H175   H     0.95975   0.16974   0.08297   0.00000  Uiso   1.00
O176   O     0.84654   0.85417   0.55954   0.00000  Uiso   1.00
O177   O     0.93044   0.47362   0.00722   0.00000  Uiso   1.00
O178   O     0.95240   0.26555   0.02164   0.00000  Uiso   1.00
N179   N     0.70639   0.85741   0.44444   0.00000  Uiso   1.00
N180   N     0.05358   0.58620   0.05085   0.00000  Uiso   1.00
N181   N     0.06919   0.15052   0.06111   0.00000  Uiso   1.00
N182   N     0.63989   0.85692   0.46578   0.00000  Uiso   1.00
N183   N     0.98707   0.58572   0.07220   0.00000  Uiso   1.00
N184   N     0.00269   0.15004   0.08245   0.00000  Uiso   1.00
C185   C     0.78229   0.63521   0.68361   0.00000  Uiso   1.00
C186   C     0.88292   0.63735   0.76071   0.00000  Uiso   1.00
C187   C     0.00457   0.63889   0.81365   0.00000  Uiso   1.00
C188   C     0.08235   0.64076   0.88078   0.00000  Uiso   1.00
C189   C     0.24506   0.64408   0.99842   0.00000  Uiso   1.00
C190   C     0.70301   0.71211   0.65225   0.00000  Uiso   1.00
C191   C     0.67339   0.77649   0.61397   0.00000  Uiso   1.00
C192   C     0.59971   0.84128   0.58980   0.00000  Uiso   1.00
C193   C     0.48304   0.96063   0.53900   0.00000  Uiso   1.00
C194   C     0.70734   0.55657   0.65508   0.00000  Uiso   1.00
C195   C     0.68132   0.49020   0.61918   0.00000  Uiso   1.00
C196   C     0.61125   0.42405   0.59738   0.00000  Uiso   1.00
C197   C     0.50130   0.30191   0.55098   0.00000  Uiso   1.00
C198   C     0.70407   0.63578   0.70871   0.00000  Uiso   1.00
C199   C     0.84043   0.63766   0.77434   0.00000  Uiso   1.00
C200   C     0.91804   0.63952   0.84142   0.00000  Uiso   1.00
C201   C     0.03979   0.64106   0.89444   0.00000  Uiso   1.00
C202   C     0.66053   0.71242   0.66588   0.00000  Uiso   1.00
C203   C     0.58686   0.77712   0.64175   0.00000  Uiso   1.00
C204   C     0.55714   0.84159   0.60345   0.00000  Uiso   1.00
C205   C     0.66485   0.55688   0.66872   0.00000  Uiso   1.00
C206   C     0.59479   0.49083   0.64696   0.00000  Uiso   1.00
C207   C     0.56869   0.42436   0.61103   0.00000  Uiso   1.00
H208   H     0.81536   0.63497   0.67300   0.00000  Uiso   1.00
H209   H     0.03741   0.63866   0.80307   0.00000  Uiso   1.00
H210   H     0.70627   0.77623   0.60343   0.00000  Uiso   1.00
H211   H     0.71421   0.48998   0.60864   0.00000  Uiso   1.00
H212   H     0.26487   0.64291   0.95330   0.00000  Uiso   1.00
H213   H     0.56661   0.93298   0.53232   0.00000  Uiso   1.00
H214   H     0.58334   0.32936   0.54330   0.00000  Uiso   1.00
H215   H     0.67099   0.63602   0.71933   0.00000  Uiso   1.00
H216   H     0.88514   0.63976   0.85195   0.00000  Uiso   1.00
H217   H     0.55399   0.77734   0.65230   0.00000  Uiso   1.00
H218   H     0.56193   0.49109   0.65752   0.00000  Uiso   1.00
H219   H     0.14127   0.64381   0.99297   0.00000  Uiso   1.00
H220   H     0.44301   0.93388   0.57198   0.00000  Uiso   1.00
H221   H     0.45975   0.33026   0.58297   0.00000  Uiso   1.00
O222   O     0.34654   0.64583   0.05954   0.00000  Uiso   1.00
O223   O     0.43044   0.02638   0.50722   0.00000  Uiso   1.00
O224   O     0.45240   0.23445   0.52164   0.00000  Uiso   1.00
N225   N     0.20639   0.64259   0.94444   0.00000  Uiso   1.00
N226   N     0.55358   0.91380   0.55085   0.00000  Uiso   1.00
N227   N     0.56919   0.34948   0.56111   0.00000  Uiso   1.00
N228   N     0.13989   0.64308   0.96578   0.00000  Uiso   1.00
N229   N     0.48707   0.91428   0.57220   0.00000  Uiso   1.00
N230   N     0.50269   0.34996   0.58245   0.00000  Uiso   1.00
C231   C     0.28229   0.13521   0.68361   0.00000  Uiso   1.00
C232   C     0.38292   0.13735   0.76071   0.00000  Uiso   1.00
C233   C     0.50457   0.13889   0.81365   0.00000  Uiso   1.00
C234   C     0.58235   0.14076   0.88078   0.00000  Uiso   1.00
C235   C     0.74506   0.14408   0.99842   0.00000  Uiso   1.00
C236   C     0.20301   0.21211   0.65225   0.00000  Uiso   1.00
C237   C     0.17339   0.27649   0.61397   0.00000  Uiso   1.00
C238   C     0.09971   0.34128   0.58980   0.00000  Uiso   1.00
C239   C     0.98304   0.46063   0.53900   0.00000  Uiso   1.00
C240   C     0.20734   0.05657   0.65508   0.00000  Uiso   1.00
C241   C     0.18132   0.99020   0.61918   0.00000  Uiso   1.00
C242   C     0.11125   0.92405   0.59738   0.00000  Uiso   1.00
C243   C     0.00130   0.80191   0.55098   0.00000  Uiso   1.00
C244   C     0.20407   0.13578   0.70871   0.00000  Uiso   1.00
C245   C     0.34043   0.13766   0.77434   0.00000  Uiso   1.00
C246   C     0.41804   0.13952   0.84142   0.00000  Uiso   1.00
C247   C     0.53979   0.14106   0.89444   0.00000  Uiso   1.00
C248   C     0.16053   0.21242   0.66588   0.00000  Uiso   1.00
C249   C     0.08686   0.27712   0.64175   0.00000  Uiso   1.00
C250   C     0.05714   0.34159   0.60345   0.00000  Uiso   1.00
C251   C     0.16485   0.05688   0.66872   0.00000  Uiso   1.00
C252   C     0.09479   0.99083   0.64696   0.00000  Uiso   1.00
C253   C     0.06869   0.92436   0.61103   0.00000  Uiso   1.00
H254   H     0.31536   0.13497   0.67300   0.00000  Uiso   1.00
H255   H     0.53741   0.13866   0.80307   0.00000  Uiso   1.00
H256   H     0.20627   0.27623   0.60343   0.00000  Uiso   1.00
H257   H     0.21421   0.98998   0.60864   0.00000  Uiso   1.00
H258   H     0.76487   0.14291   0.95330   0.00000  Uiso   1.00
H259   H     0.06661   0.43298   0.53232   0.00000  Uiso   1.00
H260   H     0.08334   0.82936   0.54330   0.00000  Uiso   1.00
H261   H     0.17099   0.13602   0.71933   0.00000  Uiso   1.00
H262   H     0.38514   0.13976   0.85195   0.00000  Uiso   1.00
H263   H     0.05399   0.27734   0.65230   0.00000  Uiso   1.00
H264   H     0.06193   0.99109   0.65752   0.00000  Uiso   1.00
H265   H     0.64127   0.14381   0.99297   0.00000  Uiso   1.00
H266   H     0.94301   0.43388   0.57198   0.00000  Uiso   1.00
H267   H     0.95975   0.83026   0.58297   0.00000  Uiso   1.00
O268   O     0.84654   0.14583   0.05954   0.00000  Uiso   1.00
O269   O     0.93044   0.52638   0.50722   0.00000  Uiso   1.00
O270   O     0.95240   0.73445   0.52164   0.00000  Uiso   1.00
N271   N     0.70639   0.14259   0.94444   0.00000  Uiso   1.00
N272   N     0.05358   0.41380   0.55085   0.00000  Uiso   1.00
N273   N     0.06919   0.84948   0.56111   0.00000  Uiso   1.00
N274   N     0.63989   0.14308   0.96578   0.00000  Uiso   1.00
N275   N     0.98707   0.41428   0.57220   0.00000  Uiso   1.00
N276   N     0.00269   0.84996   0.58245   0.00000  Uiso   1.00
C277   C     0.21771   0.63521   0.81639   0.00000  Uiso   1.00
C278   C     0.11708   0.63735   0.73929   0.00000  Uiso   1.00
C279   C     0.99543   0.63889   0.68635   0.00000  Uiso   1.00
C280   C     0.91765   0.64076   0.61922   0.00000  Uiso   1.00
C281   C     0.75494   0.64408   0.50158   0.00000  Uiso   1.00
C282   C     0.29699   0.71211   0.84775   0.00000  Uiso   1.00
C283   C     0.32661   0.77649   0.88603   0.00000  Uiso   1.00
C284   C     0.40029   0.84128   0.91020   0.00000  Uiso   1.00
C285   C     0.51696   0.96063   0.96100   0.00000  Uiso   1.00
C286   C     0.29266   0.55657   0.84492   0.00000  Uiso   1.00
C287   C     0.31868   0.49020   0.88082   0.00000  Uiso   1.00
C288   C     0.38875   0.42405   0.90262   0.00000  Uiso   1.00
C289   C     0.49870   0.30191   0.94902   0.00000  Uiso   1.00
C290   C     0.29593   0.63578   0.79129   0.00000  Uiso   1.00
C291   C     0.15957   0.63766   0.72566   0.00000  Uiso   1.00
C292   C     0.08196   0.63952   0.65858   0.00000  Uiso   1.00
C293   C     0.96021   0.64106   0.60556   0.00000  Uiso   1.00
C294   C     0.33947   0.71242   0.83412   0.00000  Uiso   1.00
C295   C     0.41314   0.77712   0.85825   0.00000  Uiso   1.00
C296   C     0.44286   0.84159   0.89655   0.00000  Uiso   1.00
C297   C     0.33515   0.55688   0.83128   0.00000  Uiso   1.00
C298   C     0.40521   0.49083   0.85304   0.00000  Uiso   1.00
C299   C     0.43131   0.42436   0.88897   0.00000  Uiso   1.00
H300   H     0.18464   0.63497   0.82700   0.00000  Uiso   1.00
H301   H     0.96259   0.63866   0.69693   0.00000  Uiso   1.00
H302   H     0.29373   0.77623   0.89657   0.00000  Uiso   1.00
H303   H     0.28579   0.48998   0.89136   0.00000  Uiso   1.00
H304   H     0.73513   0.64291   0.54670   0.00000  Uiso   1.00
H305   H     0.43339   0.93298   0.96768   0.00000  Uiso   1.00
H306   H     0.41666   0.32936   0.95670   0.00000  Uiso   1.00
H307   H     0.32901   0.63602   0.78067   0.00000  Uiso   1.00
H308   H     0.11486   0.63976   0.64805   0.00000  Uiso   1.00
H309   H     0.44601   0.77734   0.84770   0.00000  Uiso   1.00
H310   H     0.43807   0.49109   0.84248   0.00000  Uiso   1.00
H311   H     0.85873   0.64381   0.50703   0.00000  Uiso   1.00
H312   H     0.55699   0.93388   0.92802   0.00000  Uiso   1.00
H313   H     0.54025   0.33026   0.91703   0.00000  Uiso   1.00
O314   O     0.65346   0.64583   0.44046   0.00000  Uiso   1.00
O315   O     0.56956   0.02638   0.99278   0.00000  Uiso   1.00
O316   O     0.54760   0.23445   0.97836   0.00000  Uiso   1.00
N317   N     0.79361   0.64259   0.55556   0.00000  Uiso   1.00
N318   N     0.44642   0.91380   0.94915   0.00000  Uiso   1.00
N319   N     0.43081   0.34948   0.93889   0.00000  Uiso   1.00
N320   N     0.86011   0.64308   0.53422   0.00000  Uiso   1.00
N321   N     0.51293   0.91428   0.92780   0.00000  Uiso   1.00
N322   N     0.49731   0.34996   0.91755   0.00000  Uiso   1.00
C323   C     0.71771   0.13521   0.81639   0.00000  Uiso   1.00
C324   C     0.61708   0.13735   0.73929   0.00000  Uiso   1.00
C325   C     0.49543   0.13889   0.68635   0.00000  Uiso   1.00
C326   C     0.41765   0.14076   0.61922   0.00000  Uiso   1.00
C327   C     0.25494   0.14408   0.50158   0.00000  Uiso   1.00
C328   C     0.79699   0.21211   0.84775   0.00000  Uiso   1.00
C329   C     0.82661   0.27649   0.88603   0.00000  Uiso   1.00
C330   C     0.90029   0.34128   0.91020   0.00000  Uiso   1.00
C331   C     0.01696   0.46063   0.96100   0.00000  Uiso   1.00
C332   C     0.79266   0.05657   0.84492   0.00000  Uiso   1.00
C333   C     0.81868   0.99020   0.88082   0.00000  Uiso   1.00
C334   C     0.88875   0.92405   0.90262   0.00000  Uiso   1.00
C335   C     0.99870   0.80191   0.94902   0.00000  Uiso   1.00
C336   C     0.79593   0.13578   0.79129   0.00000  Uiso   1.00
C337   C     0.65957   0.13766   0.72566   0.00000  Uiso   1.00
C338   C     0.58196   0.13952   0.65858   0.00000  Uiso   1.00
C339   C     0.46021   0.14106   0.60556   0.00000  Uiso   1.00
C340   C     0.83947   0.21242   0.83412   0.00000  Uiso   1.00
C341   C     0.91314   0.27712   0.85825   0.00000  Uiso   1.00
C342   C     0.94286   0.34159   0.89655   0.00000  Uiso   1.00
C343   C     0.83515   0.05688   0.83128   0.00000  Uiso   1.00
C344   C     0.90521   0.99083   0.85304   0.00000  Uiso   1.00
C345   C     0.93131   0.92436   0.88897   0.00000  Uiso   1.00
H346   H     0.68464   0.13497   0.82700   0.00000  Uiso   1.00
H347   H     0.46259   0.13866   0.69693   0.00000  Uiso   1.00
H348   H     0.79373   0.27623   0.89657   0.00000  Uiso   1.00
H349   H     0.78579   0.98998   0.89136   0.00000  Uiso   1.00
H350   H     0.23513   0.14291   0.54670   0.00000  Uiso   1.00
H351   H     0.93339   0.43298   0.96768   0.00000  Uiso   1.00
H352   H     0.91666   0.82936   0.95670   0.00000  Uiso   1.00
H353   H     0.82901   0.13602   0.78067   0.00000  Uiso   1.00
H354   H     0.61486   0.13976   0.64805   0.00000  Uiso   1.00
H355   H     0.94601   0.27734   0.84770   0.00000  Uiso   1.00
H356   H     0.93807   0.99109   0.84248   0.00000  Uiso   1.00
H357   H     0.35873   0.14381   0.50703   0.00000  Uiso   1.00
H358   H     0.05699   0.43388   0.92802   0.00000  Uiso   1.00
H359   H     0.04025   0.83026   0.91703   0.00000  Uiso   1.00
O360   O     0.15346   0.14583   0.44046   0.00000  Uiso   1.00
O361   O     0.06956   0.52638   0.99278   0.00000  Uiso   1.00
O362   O     0.04760   0.73445   0.97836   0.00000  Uiso   1.00
N363   N     0.29361   0.14259   0.55556   0.00000  Uiso   1.00
N364   N     0.94642   0.41380   0.94915   0.00000  Uiso   1.00
N365   N     0.93081   0.84948   0.93889   0.00000  Uiso   1.00
N366   N     0.36011   0.14308   0.53422   0.00000  Uiso   1.00
N367   N     0.01293   0.41428   0.92780   0.00000  Uiso   1.00
N368   N     0.99731   0.84996   0.91755   0.00000  Uiso   1.00
