data_job_05047
_audit_creation_date              2018-12-19
_audit_creation_method            'Materials Studio'
_symmetry_space_group_name_H-M    'P1'
_symmetry_Int_Tables_number       1
_symmetry_cell_setting            triclinic
loop_
_symmetry_equiv_pos_as_xyz
  x,y,z
_cell_length_a                    15.4606
_cell_length_b                    13.7106
_cell_length_c                    24.1593
_cell_angle_alpha                 90.0000
_cell_angle_beta                  78.3754
_cell_angle_gamma                 90.0000
loop_
_atom_site_label
_atom_site_type_symbol
_atom_site_fract_x
_atom_site_fract_y
_atom_site_fract_z
_atom_site_U_iso_or_equiv
_atom_site_adp_type
_atom_site_occupancy
C1     C     0.55032   0.29236   0.11801   0.00000  Uiso   1.00
C2     C     0.58048   0.22636   0.06696   0.00000  Uiso   1.00
C3     C     0.63401   0.25399   0.01615   0.00000  Uiso   1.00
C4     C     0.65411   0.18285   0.97465   0.00000  Uiso   1.00
C5     C     0.70582   0.09489   0.89400   0.00000  Uiso   1.00
C6     C     0.44970   0.28794   0.13102   0.00000  Uiso   1.00
C7     C     0.39327   0.36735   0.13408   0.00000  Uiso   1.00
C8     C     0.30328   0.34805   0.14651   0.00000  Uiso   1.00
C9     C     0.15195   0.35570   0.16536   0.00000  Uiso   1.00
C10    C     0.58000   0.24251   0.16745   0.00000  Uiso   1.00
C11    C     0.63311   0.28374   0.20115   0.00000  Uiso   1.00
C12    C     0.65280   0.22620   0.24426   0.00000  Uiso   1.00
C13    C     0.70378   0.16332   0.31967   0.00000  Uiso   1.00
C14    C     0.49083   0.11687   0.13466   0.00000  Uiso   1.00
C15    C     0.54817   0.13104   0.07600   0.00000  Uiso   1.00
C16    C     0.56819   0.05984   0.03457   0.00000  Uiso   1.00
C17    C     0.62174   0.08736   0.98371   0.00000  Uiso   1.00
C18    C     0.41739   0.19263   0.14006   0.00000  Uiso   1.00
C19    C     0.32745   0.17320   0.15250   0.00000  Uiso   1.00
C20    C     0.27091   0.25256   0.15558   0.00000  Uiso   1.00
C21    C     0.54769   0.14719   0.17649   0.00000  Uiso   1.00
C22    C     0.56729   0.08958   0.21957   0.00000  Uiso   1.00
C23    C     0.62043   0.13071   0.25332   0.00000  Uiso   1.00
H24    H     0.57547   0.36656   0.11097   0.00000  Uiso   1.00
H25    H     0.65900   0.32777   0.00916   0.00000  Uiso   1.00
H26    H     0.41830   0.44111   0.12708   0.00000  Uiso   1.00
H27    H     0.65810   0.35750   0.19414   0.00000  Uiso   1.00
H28    H     0.73732   0.24273   0.90028   0.00000  Uiso   1.00
H29    H     0.22980   0.48172   0.14894   0.00000  Uiso   1.00
H30    H     0.73547   0.30542   0.29034   0.00000  Uiso   1.00
H31    H     0.46567   0.04266   0.14170   0.00000  Uiso   1.00
H32    H     0.54318   0.98608   0.04158   0.00000  Uiso   1.00
H33    H     0.30247   0.09943   0.15950   0.00000  Uiso   1.00
H34    H     0.54228   0.01582   0.22655   0.00000  Uiso   1.00
H35    H     0.64332   0.96541   0.92659   0.00000  Uiso   1.00
H36    H     0.13579   0.20440   0.17525   0.00000  Uiso   1.00
H37    H     0.64146   0.02810   0.31665   0.00000  Uiso   1.00
O38    O     0.74326   0.07271   0.84701   0.00000  Uiso   1.00
O39    O     0.07741   0.38625   0.17325   0.00000  Uiso   1.00
O40    O     0.74084   0.15496   0.35876   0.00000  Uiso   1.00
N41    N     0.70458   0.18522   0.92021   0.00000  Uiso   1.00
N42    N     0.23007   0.40866   0.15269   0.00000  Uiso   1.00
N43    N     0.70281   0.24385   0.28489   0.00000  Uiso   1.00
N44    N     0.65399   0.03599   0.93437   0.00000  Uiso   1.00
N45    N     0.17949   0.25943   0.16685   0.00000  Uiso   1.00
N46    N     0.65223   0.09462   0.29905   0.00000  Uiso   1.00
C47    C     0.99971   0.77554   0.16521   0.00000  Uiso   1.00
C48    C     0.03575   0.70907   0.11528   0.00000  Uiso   1.00
C49    C     0.08980   0.73778   0.06488   0.00000  Uiso   1.00
C50    C     0.11568   0.66596   0.02442   0.00000  Uiso   1.00
C51    C     0.17575   0.57751   0.94541   0.00000  Uiso   1.00
C52    C     0.89956   0.76427   0.17643   0.00000  Uiso   1.00
C53    C     0.83911   0.83941   0.17746   0.00000  Uiso   1.00
C54    C     0.75034   0.81406   0.18848   0.00000  Uiso   1.00
C55    C     0.59898   0.81134   0.20445   0.00000  Uiso   1.00
C56    C     0.02944   0.73088   0.21610   0.00000  Uiso   1.00
C57    C     0.07816   0.77794   0.25049   0.00000  Uiso   1.00
C58    C     0.09872   0.72449   0.29492   0.00000  Uiso   1.00
C59    C     0.14900   0.66992   0.37247   0.00000  Uiso   1.00
C60    C     0.94956   0.59694   0.18299   0.00000  Uiso   1.00
C61    C     0.00851   0.61206   0.12494   0.00000  Uiso   1.00
C62    C     0.03432   0.54017   0.08454   0.00000  Uiso   1.00
C63    C     0.08840   0.56878   0.03409   0.00000  Uiso   1.00
C64    C     0.87232   0.66727   0.18609   0.00000  Uiso   1.00
C65    C     0.78363   0.64181   0.19712   0.00000  Uiso   1.00
C66    C     0.72306   0.71688   0.19815   0.00000  Uiso   1.00
C67    C     0.00220   0.63387   0.22575   0.00000  Uiso   1.00
C68    C     0.02268   0.58034   0.27014   0.00000  Uiso   1.00
C69    C     0.07143   0.62731   0.30459   0.00000  Uiso   1.00
H70    H     0.02091   0.85107   0.15770   0.00000  Uiso   1.00
H71    H     0.11086   0.81286   0.05742   0.00000  Uiso   1.00
H72    H     0.86021   0.91448   0.16999   0.00000  Uiso   1.00
H73    H     0.09922   0.85301   0.24300   0.00000  Uiso   1.00
H74    H     0.19855   0.72773   0.95050   0.00000  Uiso   1.00
H75    H     0.67003   0.94199   0.18787   0.00000  Uiso   1.00
H76    H     0.17404   0.81240   0.34183   0.00000  Uiso   1.00
H77    H     0.92835   0.52141   0.19050   0.00000  Uiso   1.00
H78    H     0.01323   0.46511   0.09202   0.00000  Uiso   1.00
H79    H     0.76258   0.56673   0.20459   0.00000  Uiso   1.00
H80    H     0.00159   0.50527   0.27760   0.00000  Uiso   1.00
H81    H     0.11930   0.44548   0.97858   0.00000  Uiso   1.00
H82    H     0.59079   0.65975   0.21595   0.00000  Uiso   1.00
H83    H     0.09480   0.53015   0.36991   0.00000  Uiso   1.00
O84    O     0.21640   0.55553   0.89916   0.00000  Uiso   1.00
O85    O     0.52302   0.83664   0.21058   0.00000  Uiso   1.00
O86    O     0.18427   0.66661   0.41258   0.00000  Uiso   1.00
N87    N     0.16826   0.66903   0.97063   0.00000  Uiso   1.00
N88    N     0.67413   0.86935   0.19254   0.00000  Uiso   1.00
N89    N     0.14532   0.74819   0.33650   0.00000  Uiso   1.00
N90    N     0.12563   0.51715   0.98574   0.00000  Uiso   1.00
N91    N     0.63150   0.71747   0.20765   0.00000  Uiso   1.00
N92    N     0.10268   0.59632   0.35161   0.00000  Uiso   1.00
C93    C     0.44968   0.79236   0.38199   0.00000  Uiso   1.00
C94    C     0.41952   0.72636   0.43304   0.00000  Uiso   1.00
C95    C     0.36599   0.75399   0.48385   0.00000  Uiso   1.00
C96    C     0.34589   0.68285   0.52535   0.00000  Uiso   1.00
C97    C     0.29418   0.59489   0.60600   0.00000  Uiso   1.00
C98    C     0.55030   0.78794   0.36898   0.00000  Uiso   1.00
C99    C     0.60673   0.86735   0.36592   0.00000  Uiso   1.00
C100   C     0.69672   0.84805   0.35349   0.00000  Uiso   1.00
C101   C     0.84805   0.85570   0.33464   0.00000  Uiso   1.00
C102   C     0.42000   0.74251   0.33255   0.00000  Uiso   1.00
C103   C     0.36689   0.78374   0.29885   0.00000  Uiso   1.00
C104   C     0.34720   0.72620   0.25574   0.00000  Uiso   1.00
C105   C     0.29622   0.66332   0.18033   0.00000  Uiso   1.00
C106   C     0.50917   0.61687   0.36534   0.00000  Uiso   1.00
C107   C     0.45183   0.63104   0.42400   0.00000  Uiso   1.00
C108   C     0.43181   0.55984   0.46543   0.00000  Uiso   1.00
C109   C     0.37826   0.58736   0.51629   0.00000  Uiso   1.00
C110   C     0.58261   0.69263   0.35994   0.00000  Uiso   1.00
C111   C     0.67255   0.67320   0.34750   0.00000  Uiso   1.00
C112   C     0.72909   0.75256   0.34442   0.00000  Uiso   1.00
C113   C     0.45231   0.64719   0.32351   0.00000  Uiso   1.00
C114   C     0.43271   0.58958   0.28043   0.00000  Uiso   1.00
C115   C     0.37957   0.63071   0.24668   0.00000  Uiso   1.00
H116   H     0.42453   0.86656   0.38903   0.00000  Uiso   1.00
H117   H     0.34100   0.82777   0.49084   0.00000  Uiso   1.00
H118   H     0.58170   0.94111   0.37292   0.00000  Uiso   1.00
H119   H     0.34190   0.85750   0.30586   0.00000  Uiso   1.00
H120   H     0.26268   0.74273   0.59972   0.00000  Uiso   1.00
H121   H     0.77020   0.98172   0.35106   0.00000  Uiso   1.00
H122   H     0.26453   0.80542   0.20966   0.00000  Uiso   1.00
H123   H     0.53433   0.54266   0.35830   0.00000  Uiso   1.00
H124   H     0.45682   0.48608   0.45842   0.00000  Uiso   1.00
H125   H     0.69753   0.59943   0.34050   0.00000  Uiso   1.00
H126   H     0.45772   0.51582   0.27345   0.00000  Uiso   1.00
H127   H     0.35668   0.46541   0.57341   0.00000  Uiso   1.00
H128   H     0.86421   0.70440   0.32475   0.00000  Uiso   1.00
H129   H     0.35854   0.52810   0.18335   0.00000  Uiso   1.00
O130   O     0.25674   0.57271   0.65299   0.00000  Uiso   1.00
O131   O     0.92259   0.88625   0.32675   0.00000  Uiso   1.00
O132   O     0.25916   0.65496   0.14124   0.00000  Uiso   1.00
N133   N     0.29542   0.68522   0.57979   0.00000  Uiso   1.00
N134   N     0.76993   0.90866   0.34731   0.00000  Uiso   1.00
N135   N     0.29719   0.74385   0.21511   0.00000  Uiso   1.00
N136   N     0.34601   0.53599   0.56563   0.00000  Uiso   1.00
N137   N     0.82051   0.75943   0.33315   0.00000  Uiso   1.00
N138   N     0.34777   0.59462   0.20095   0.00000  Uiso   1.00
C139   C     0.00029   0.27554   0.33479   0.00000  Uiso   1.00
C140   C     0.96425   0.20907   0.38472   0.00000  Uiso   1.00
C141   C     0.91020   0.23778   0.43512   0.00000  Uiso   1.00
C142   C     0.88432   0.16596   0.47558   0.00000  Uiso   1.00
C143   C     0.82425   0.07751   0.55459   0.00000  Uiso   1.00
C144   C     0.10044   0.26427   0.32357   0.00000  Uiso   1.00
C145   C     0.16089   0.33941   0.32254   0.00000  Uiso   1.00
C146   C     0.24966   0.31406   0.31152   0.00000  Uiso   1.00
C147   C     0.40102   0.31134   0.29555   0.00000  Uiso   1.00
C148   C     0.97056   0.23088   0.28390   0.00000  Uiso   1.00
C149   C     0.92184   0.27794   0.24951   0.00000  Uiso   1.00
C150   C     0.90128   0.22449   0.20508   0.00000  Uiso   1.00
C151   C     0.85100   0.16992   0.12753   0.00000  Uiso   1.00
C152   C     0.05044   0.09694   0.31701   0.00000  Uiso   1.00
C153   C     0.99149   0.11206   0.37506   0.00000  Uiso   1.00
C154   C     0.96568   0.04017   0.41546   0.00000  Uiso   1.00
C155   C     0.91160   0.06878   0.46591   0.00000  Uiso   1.00
C156   C     0.12768   0.16727   0.31391   0.00000  Uiso   1.00
C157   C     0.21637   0.14181   0.30288   0.00000  Uiso   1.00
C158   C     0.27694   0.21688   0.30185   0.00000  Uiso   1.00
C159   C     0.99780   0.13387   0.27425   0.00000  Uiso   1.00
C160   C     0.97732   0.08034   0.22986   0.00000  Uiso   1.00
C161   C     0.92857   0.12731   0.19541   0.00000  Uiso   1.00
H162   H     0.97909   0.35107   0.34230   0.00000  Uiso   1.00
H163   H     0.88914   0.31286   0.44258   0.00000  Uiso   1.00
H164   H     0.13979   0.41448   0.33001   0.00000  Uiso   1.00
H165   H     0.90078   0.35301   0.25700   0.00000  Uiso   1.00
H166   H     0.80145   0.22773   0.54950   0.00000  Uiso   1.00
H167   H     0.32997   0.44199   0.31213   0.00000  Uiso   1.00
H168   H     0.82596   0.31240   0.15817   0.00000  Uiso   1.00
H169   H     0.07165   0.02141   0.30950   0.00000  Uiso   1.00
H170   H     0.98677   0.96511   0.40798   0.00000  Uiso   1.00
H171   H     0.23742   0.06673   0.29541   0.00000  Uiso   1.00
H172   H     0.99841   0.00527   0.22240   0.00000  Uiso   1.00
H173   H     0.88070   0.94548   0.52142   0.00000  Uiso   1.00
H174   H     0.40921   0.15975   0.28405   0.00000  Uiso   1.00
H175   H     0.90520   0.03015   0.13009   0.00000  Uiso   1.00
O176   O     0.78360   0.05553   0.60084   0.00000  Uiso   1.00
O177   O     0.47698   0.33664   0.28942   0.00000  Uiso   1.00
O178   O     0.81573   0.16661   0.08742   0.00000  Uiso   1.00
N179   N     0.83174   0.16903   0.52937   0.00000  Uiso   1.00
N180   N     0.32587   0.36935   0.30746   0.00000  Uiso   1.00
N181   N     0.85468   0.24819   0.16350   0.00000  Uiso   1.00
N182   N     0.87437   0.01715   0.51426   0.00000  Uiso   1.00
N183   N     0.36850   0.21747   0.29235   0.00000  Uiso   1.00
N184   N     0.89732   0.09632   0.14839   0.00000  Uiso   1.00
C185   C     0.44968   0.70764   0.88199   0.00000  Uiso   1.00
C186   C     0.41952   0.77364   0.93304   0.00000  Uiso   1.00
C187   C     0.36599   0.74601   0.98385   0.00000  Uiso   1.00
C188   C     0.34589   0.81715   0.02535   0.00000  Uiso   1.00
C189   C     0.29418   0.90511   0.10600   0.00000  Uiso   1.00
C190   C     0.55030   0.71206   0.86898   0.00000  Uiso   1.00
C191   C     0.60673   0.63265   0.86592   0.00000  Uiso   1.00
C192   C     0.69672   0.65195   0.85349   0.00000  Uiso   1.00
C193   C     0.84805   0.64430   0.83464   0.00000  Uiso   1.00
C194   C     0.42000   0.75749   0.83255   0.00000  Uiso   1.00
C195   C     0.36689   0.71626   0.79885   0.00000  Uiso   1.00
C196   C     0.34720   0.77380   0.75574   0.00000  Uiso   1.00
C197   C     0.29622   0.83668   0.68033   0.00000  Uiso   1.00
C198   C     0.50917   0.88313   0.86534   0.00000  Uiso   1.00
C199   C     0.45183   0.86896   0.92400   0.00000  Uiso   1.00
C200   C     0.43181   0.94016   0.96543   0.00000  Uiso   1.00
C201   C     0.37826   0.91264   0.01629   0.00000  Uiso   1.00
C202   C     0.58261   0.80737   0.85994   0.00000  Uiso   1.00
C203   C     0.67255   0.82680   0.84750   0.00000  Uiso   1.00
C204   C     0.72909   0.74744   0.84442   0.00000  Uiso   1.00
C205   C     0.45231   0.85281   0.82351   0.00000  Uiso   1.00
C206   C     0.43271   0.91042   0.78043   0.00000  Uiso   1.00
C207   C     0.37957   0.86929   0.74668   0.00000  Uiso   1.00
H208   H     0.42453   0.63344   0.88903   0.00000  Uiso   1.00
H209   H     0.34100   0.67223   0.99084   0.00000  Uiso   1.00
H210   H     0.58170   0.55889   0.87292   0.00000  Uiso   1.00
H211   H     0.34190   0.64250   0.80586   0.00000  Uiso   1.00
H212   H     0.26268   0.75727   0.09972   0.00000  Uiso   1.00
H213   H     0.77020   0.51828   0.85106   0.00000  Uiso   1.00
H214   H     0.26453   0.69458   0.70966   0.00000  Uiso   1.00
H215   H     0.53433   0.95734   0.85830   0.00000  Uiso   1.00
H216   H     0.45682   0.01392   0.95842   0.00000  Uiso   1.00
H217   H     0.69753   0.90057   0.84050   0.00000  Uiso   1.00
H218   H     0.45772   0.98418   0.77345   0.00000  Uiso   1.00
H219   H     0.35668   0.03459   0.07341   0.00000  Uiso   1.00
H220   H     0.86421   0.79560   0.82475   0.00000  Uiso   1.00
H221   H     0.35854   0.97190   0.68335   0.00000  Uiso   1.00
O222   O     0.25674   0.92729   0.15299   0.00000  Uiso   1.00
O223   O     0.92259   0.61375   0.82675   0.00000  Uiso   1.00
O224   O     0.25916   0.84504   0.64124   0.00000  Uiso   1.00
N225   N     0.29542   0.81478   0.07979   0.00000  Uiso   1.00
N226   N     0.76993   0.59134   0.84731   0.00000  Uiso   1.00
N227   N     0.29719   0.75615   0.71511   0.00000  Uiso   1.00
N228   N     0.34601   0.96401   0.06563   0.00000  Uiso   1.00
N229   N     0.82051   0.74057   0.83315   0.00000  Uiso   1.00
N230   N     0.34777   0.90538   0.70095   0.00000  Uiso   1.00
C231   C     0.00029   0.22446   0.83479   0.00000  Uiso   1.00
C232   C     0.96425   0.29093   0.88472   0.00000  Uiso   1.00
C233   C     0.91020   0.26222   0.93512   0.00000  Uiso   1.00
C234   C     0.88432   0.33404   0.97558   0.00000  Uiso   1.00
C235   C     0.82425   0.42249   0.05459   0.00000  Uiso   1.00
C236   C     0.10044   0.23573   0.82357   0.00000  Uiso   1.00
C237   C     0.16089   0.16059   0.82254   0.00000  Uiso   1.00
C238   C     0.24966   0.18594   0.81152   0.00000  Uiso   1.00
C239   C     0.40102   0.18866   0.79555   0.00000  Uiso   1.00
C240   C     0.97056   0.26912   0.78390   0.00000  Uiso   1.00
C241   C     0.92184   0.22206   0.74951   0.00000  Uiso   1.00
C242   C     0.90128   0.27551   0.70508   0.00000  Uiso   1.00
C243   C     0.85100   0.33008   0.62753   0.00000  Uiso   1.00
C244   C     0.05044   0.40306   0.81701   0.00000  Uiso   1.00
C245   C     0.99149   0.38794   0.87506   0.00000  Uiso   1.00
C246   C     0.96568   0.45983   0.91546   0.00000  Uiso   1.00
C247   C     0.91160   0.43122   0.96591   0.00000  Uiso   1.00
C248   C     0.12768   0.33273   0.81391   0.00000  Uiso   1.00
C249   C     0.21637   0.35819   0.80288   0.00000  Uiso   1.00
C250   C     0.27694   0.28312   0.80185   0.00000  Uiso   1.00
C251   C     0.99780   0.36613   0.77425   0.00000  Uiso   1.00
C252   C     0.97732   0.41966   0.72986   0.00000  Uiso   1.00
C253   C     0.92857   0.37269   0.69541   0.00000  Uiso   1.00
H254   H     0.97909   0.14893   0.84230   0.00000  Uiso   1.00
H255   H     0.88914   0.18714   0.94258   0.00000  Uiso   1.00
H256   H     0.13979   0.08552   0.83001   0.00000  Uiso   1.00
H257   H     0.90078   0.14699   0.75700   0.00000  Uiso   1.00
H258   H     0.80145   0.27227   0.04950   0.00000  Uiso   1.00
H259   H     0.32997   0.05801   0.81213   0.00000  Uiso   1.00
H260   H     0.82596   0.18760   0.65817   0.00000  Uiso   1.00
H261   H     0.07165   0.47859   0.80950   0.00000  Uiso   1.00
H262   H     0.98677   0.53489   0.90798   0.00000  Uiso   1.00
H263   H     0.23742   0.43327   0.79541   0.00000  Uiso   1.00
H264   H     0.99841   0.49473   0.72240   0.00000  Uiso   1.00
H265   H     0.88070   0.55452   0.02142   0.00000  Uiso   1.00
H266   H     0.40921   0.34025   0.78405   0.00000  Uiso   1.00
H267   H     0.90520   0.46985   0.63009   0.00000  Uiso   1.00
O268   O     0.78360   0.44447   0.10084   0.00000  Uiso   1.00
O269   O     0.47698   0.16336   0.78942   0.00000  Uiso   1.00
O270   O     0.81573   0.33339   0.58742   0.00000  Uiso   1.00
N271   N     0.83174   0.33097   0.02937   0.00000  Uiso   1.00
N272   N     0.32587   0.13065   0.80746   0.00000  Uiso   1.00
N273   N     0.85468   0.25181   0.66350   0.00000  Uiso   1.00
N274   N     0.87437   0.48285   0.01426   0.00000  Uiso   1.00
N275   N     0.36850   0.28253   0.79235   0.00000  Uiso   1.00
N276   N     0.89732   0.40368   0.64839   0.00000  Uiso   1.00
C277   C     0.55032   0.20764   0.61801   0.00000  Uiso   1.00
C278   C     0.58048   0.27364   0.56696   0.00000  Uiso   1.00
C279   C     0.63401   0.24601   0.51615   0.00000  Uiso   1.00
C280   C     0.65411   0.31715   0.47465   0.00000  Uiso   1.00
C281   C     0.70582   0.40511   0.39400   0.00000  Uiso   1.00
C282   C     0.44970   0.21206   0.63102   0.00000  Uiso   1.00
C283   C     0.39327   0.13265   0.63408   0.00000  Uiso   1.00
C284   C     0.30328   0.15195   0.64651   0.00000  Uiso   1.00
C285   C     0.15195   0.14430   0.66536   0.00000  Uiso   1.00
C286   C     0.58000   0.25749   0.66745   0.00000  Uiso   1.00
C287   C     0.63311   0.21626   0.70115   0.00000  Uiso   1.00
C288   C     0.65280   0.27380   0.74426   0.00000  Uiso   1.00
C289   C     0.70378   0.33668   0.81967   0.00000  Uiso   1.00
C290   C     0.49083   0.38313   0.63466   0.00000  Uiso   1.00
C291   C     0.54817   0.36896   0.57600   0.00000  Uiso   1.00
C292   C     0.56819   0.44016   0.53457   0.00000  Uiso   1.00
C293   C     0.62174   0.41264   0.48371   0.00000  Uiso   1.00
C294   C     0.41739   0.30737   0.64006   0.00000  Uiso   1.00
C295   C     0.32745   0.32680   0.65250   0.00000  Uiso   1.00
C296   C     0.27091   0.24744   0.65558   0.00000  Uiso   1.00
C297   C     0.54769   0.35281   0.67649   0.00000  Uiso   1.00
C298   C     0.56729   0.41042   0.71957   0.00000  Uiso   1.00
C299   C     0.62043   0.36929   0.75332   0.00000  Uiso   1.00
H300   H     0.57547   0.13344   0.61097   0.00000  Uiso   1.00
H301   H     0.65900   0.17223   0.50916   0.00000  Uiso   1.00
H302   H     0.41830   0.05889   0.62708   0.00000  Uiso   1.00
H303   H     0.65810   0.14250   0.69414   0.00000  Uiso   1.00
H304   H     0.73732   0.25727   0.40028   0.00000  Uiso   1.00
H305   H     0.22980   0.01828   0.64894   0.00000  Uiso   1.00
H306   H     0.73547   0.19458   0.79034   0.00000  Uiso   1.00
H307   H     0.46567   0.45734   0.64170   0.00000  Uiso   1.00
H308   H     0.54318   0.51392   0.54158   0.00000  Uiso   1.00
H309   H     0.30247   0.40057   0.65950   0.00000  Uiso   1.00
H310   H     0.54228   0.48418   0.72655   0.00000  Uiso   1.00
H311   H     0.64332   0.53459   0.42659   0.00000  Uiso   1.00
H312   H     0.13579   0.29560   0.67525   0.00000  Uiso   1.00
H313   H     0.64146   0.47190   0.81665   0.00000  Uiso   1.00
O314   O     0.74326   0.42729   0.34701   0.00000  Uiso   1.00
O315   O     0.07741   0.11375   0.67325   0.00000  Uiso   1.00
O316   O     0.74084   0.34504   0.85876   0.00000  Uiso   1.00
N317   N     0.70458   0.31478   0.42021   0.00000  Uiso   1.00
N318   N     0.23007   0.09134   0.65269   0.00000  Uiso   1.00
N319   N     0.70281   0.25615   0.78489   0.00000  Uiso   1.00
N320   N     0.65399   0.46401   0.43437   0.00000  Uiso   1.00
N321   N     0.17949   0.24057   0.66685   0.00000  Uiso   1.00
N322   N     0.65223   0.40538   0.79905   0.00000  Uiso   1.00
C323   C     0.99971   0.72446   0.66521   0.00000  Uiso   1.00
C324   C     0.03575   0.79093   0.61528   0.00000  Uiso   1.00
C325   C     0.08980   0.76222   0.56488   0.00000  Uiso   1.00
C326   C     0.11568   0.83404   0.52442   0.00000  Uiso   1.00
C327   C     0.17575   0.92249   0.44541   0.00000  Uiso   1.00
C328   C     0.89956   0.73573   0.67643   0.00000  Uiso   1.00
C329   C     0.83911   0.66059   0.67746   0.00000  Uiso   1.00
C330   C     0.75034   0.68594   0.68848   0.00000  Uiso   1.00
C331   C     0.59898   0.68866   0.70445   0.00000  Uiso   1.00
C332   C     0.02944   0.76912   0.71610   0.00000  Uiso   1.00
C333   C     0.07816   0.72206   0.75049   0.00000  Uiso   1.00
C334   C     0.09872   0.77551   0.79492   0.00000  Uiso   1.00
C335   C     0.14900   0.83008   0.87247   0.00000  Uiso   1.00
C336   C     0.94956   0.90306   0.68299   0.00000  Uiso   1.00
C337   C     0.00851   0.88794   0.62494   0.00000  Uiso   1.00
C338   C     0.03432   0.95983   0.58454   0.00000  Uiso   1.00
C339   C     0.08840   0.93122   0.53409   0.00000  Uiso   1.00
C340   C     0.87232   0.83273   0.68609   0.00000  Uiso   1.00
C341   C     0.78363   0.85819   0.69712   0.00000  Uiso   1.00
C342   C     0.72306   0.78312   0.69815   0.00000  Uiso   1.00
C343   C     0.00220   0.86613   0.72575   0.00000  Uiso   1.00
C344   C     0.02268   0.91966   0.77014   0.00000  Uiso   1.00
C345   C     0.07143   0.87269   0.80459   0.00000  Uiso   1.00
H346   H     0.02091   0.64893   0.65770   0.00000  Uiso   1.00
H347   H     0.11086   0.68714   0.55742   0.00000  Uiso   1.00
H348   H     0.86021   0.58552   0.66999   0.00000  Uiso   1.00
H349   H     0.09922   0.64699   0.74300   0.00000  Uiso   1.00
H350   H     0.19855   0.77227   0.45050   0.00000  Uiso   1.00
H351   H     0.67003   0.55801   0.68787   0.00000  Uiso   1.00
H352   H     0.17404   0.68760   0.84183   0.00000  Uiso   1.00
H353   H     0.92835   0.97859   0.69050   0.00000  Uiso   1.00
H354   H     0.01323   0.03489   0.59202   0.00000  Uiso   1.00
H355   H     0.76258   0.93327   0.70459   0.00000  Uiso   1.00
H356   H     0.00159   0.99473   0.77760   0.00000  Uiso   1.00
H357   H     0.11930   0.05452   0.47858   0.00000  Uiso   1.00
H358   H     0.59079   0.84025   0.71595   0.00000  Uiso   1.00
H359   H     0.09480   0.96985   0.86991   0.00000  Uiso   1.00
O360   O     0.21640   0.94447   0.39916   0.00000  Uiso   1.00
O361   O     0.52302   0.66336   0.71058   0.00000  Uiso   1.00
O362   O     0.18427   0.83339   0.91258   0.00000  Uiso   1.00
N363   N     0.16826   0.83097   0.47063   0.00000  Uiso   1.00
N364   N     0.67413   0.63065   0.69254   0.00000  Uiso   1.00
N365   N     0.14532   0.75181   0.83650   0.00000  Uiso   1.00
N366   N     0.12563   0.98285   0.48574   0.00000  Uiso   1.00
N367   N     0.63150   0.78253   0.70765   0.00000  Uiso   1.00
N368   N     0.10268   0.90368   0.85161   0.00000  Uiso   1.00
