data_job_02291
_audit_creation_date              2018-12-19
_audit_creation_method            'Materials Studio'
_symmetry_space_group_name_H-M    'P1'
_symmetry_Int_Tables_number       1
_symmetry_cell_setting            triclinic
loop_
_symmetry_equiv_pos_as_xyz
  x,y,z
_cell_length_a                    40.4055
_cell_length_b                    7.6156
_cell_length_c                    17.2768
_cell_angle_alpha                 90.0000
_cell_angle_beta                  79.9836
_cell_angle_gamma                 90.0000
loop_
_atom_site_label
_atom_site_type_symbol
_atom_site_fract_x
_atom_site_fract_y
_atom_site_fract_z
_atom_site_U_iso_or_equiv
_atom_site_adp_type
_atom_site_occupancy
C1     C     0.85404   0.15747   0.42691   0.00000  Uiso   1.00
C2     C     0.85481   0.99501   0.37503   0.00000  Uiso   1.00
C3     C     0.85250   0.99447   0.29582   0.00000  Uiso   1.00
C4     C     0.85370   0.83220   0.25881   0.00000  Uiso   1.00
C5     C     0.85436   0.60367   0.17205   0.00000  Uiso   1.00
C6     C     0.82533   0.12866   0.49566   0.00000  Uiso   1.00
C7     C     0.79823   0.24050   0.51789   0.00000  Uiso   1.00
C8     C     0.77461   0.19074   0.58245   0.00000  Uiso   1.00
C9     C     0.72952   0.16976   0.68301   0.00000  Uiso   1.00
C10    C     0.88626   0.15189   0.46153   0.00000  Uiso   1.00
C11    C     0.91038   0.28329   0.45507   0.00000  Uiso   1.00
C12    C     0.93807   0.25310   0.49090   0.00000  Uiso   1.00
C13    C     0.98758   0.26820   0.53846   0.00000  Uiso   1.00
C14    C     0.86030   0.87023   0.50203   0.00000  Uiso   1.00
C15    C     0.85821   0.83900   0.41583   0.00000  Uiso   1.00
C16    C     0.85942   0.67668   0.37893   0.00000  Uiso   1.00
C17    C     0.85710   0.67590   0.29969   0.00000  Uiso   1.00
C18    C     0.82873   0.97265   0.53647   0.00000  Uiso   1.00
C19    C     0.80515   0.92271   0.60101   0.00000  Uiso   1.00
C20    C     0.77802   0.03444   0.62333   0.00000  Uiso   1.00
C21    C     0.88966   0.99587   0.50233   0.00000  Uiso   1.00
C22    C     0.91731   0.96549   0.53818   0.00000  Uiso   1.00
C23    C     0.94147   0.09681   0.53178   0.00000  Uiso   1.00
H24    H     0.85139   0.27893   0.39515   0.00000  Uiso   1.00
H25    H     0.84986   0.11524   0.26427   0.00000  Uiso   1.00
H26    H     0.79560   0.36124   0.48631   0.00000  Uiso   1.00
H27    H     0.90775   0.40400   0.42349   0.00000  Uiso   1.00
H28    H     0.84965   0.86494   0.13716   0.00000  Uiso   1.00
H29    H     0.73525   0.38367   0.60537   0.00000  Uiso   1.00
H30    H     0.97172   0.47387   0.47291   0.00000  Uiso   1.00
H31    H     0.86295   0.74876   0.53380   0.00000  Uiso   1.00
H32    H     0.86205   0.55596   0.41053   0.00000  Uiso   1.00
H33    H     0.80779   0.80197   0.63257   0.00000  Uiso   1.00
H34    H     0.91993   0.84474   0.56975   0.00000  Uiso   1.00
H35    H     0.85954   0.41102   0.25587   0.00000  Uiso   1.00
H36    H     0.74514   0.92976   0.72408   0.00000  Uiso   1.00
H37    H     0.98161   0.01994   0.59162   0.00000  Uiso   1.00
O38    O     0.85379   0.52072   0.11293   0.00000  Uiso   1.00
O39    O     0.70370   0.20129   0.72720   0.00000  Uiso   1.00
O40    O     0.01395   0.31962   0.55342   0.00000  Uiso   1.00
N41    N     0.85211   0.78457   0.18202   0.00000  Uiso   1.00
N42    N     0.74515   0.26954   0.61975   0.00000  Uiso   1.00
N43    N     0.96623   0.35389   0.49593   0.00000  Uiso   1.00
N44    N     0.85743   0.54032   0.24589   0.00000  Uiso   1.00
N45    N     0.75047   0.02529   0.68363   0.00000  Uiso   1.00
N46    N     0.97155   0.10963   0.55981   0.00000  Uiso   1.00
C47    C     0.35404   0.65747   0.42691   0.00000  Uiso   1.00
C48    C     0.35481   0.49501   0.37503   0.00000  Uiso   1.00
C49    C     0.35250   0.49447   0.29582   0.00000  Uiso   1.00
C50    C     0.35370   0.33220   0.25881   0.00000  Uiso   1.00
C51    C     0.35436   0.10367   0.17205   0.00000  Uiso   1.00
C52    C     0.32533   0.62866   0.49566   0.00000  Uiso   1.00
C53    C     0.29823   0.74050   0.51789   0.00000  Uiso   1.00
C54    C     0.27461   0.69074   0.58245   0.00000  Uiso   1.00
C55    C     0.22952   0.66976   0.68301   0.00000  Uiso   1.00
C56    C     0.38626   0.65189   0.46153   0.00000  Uiso   1.00
C57    C     0.41038   0.78329   0.45507   0.00000  Uiso   1.00
C58    C     0.43807   0.75310   0.49090   0.00000  Uiso   1.00
C59    C     0.48758   0.76820   0.53846   0.00000  Uiso   1.00
C60    C     0.36030   0.37023   0.50203   0.00000  Uiso   1.00
C61    C     0.35821   0.33900   0.41583   0.00000  Uiso   1.00
C62    C     0.35942   0.17668   0.37893   0.00000  Uiso   1.00
C63    C     0.35710   0.17590   0.29969   0.00000  Uiso   1.00
C64    C     0.32873   0.47265   0.53647   0.00000  Uiso   1.00
C65    C     0.30515   0.42271   0.60101   0.00000  Uiso   1.00
C66    C     0.27802   0.53444   0.62333   0.00000  Uiso   1.00
C67    C     0.38966   0.49587   0.50233   0.00000  Uiso   1.00
C68    C     0.41731   0.46549   0.53818   0.00000  Uiso   1.00
C69    C     0.44147   0.59681   0.53178   0.00000  Uiso   1.00
H70    H     0.35139   0.77893   0.39515   0.00000  Uiso   1.00
H71    H     0.34986   0.61524   0.26427   0.00000  Uiso   1.00
H72    H     0.29560   0.86124   0.48631   0.00000  Uiso   1.00
H73    H     0.40775   0.90400   0.42349   0.00000  Uiso   1.00
H74    H     0.34965   0.36494   0.13716   0.00000  Uiso   1.00
H75    H     0.23525   0.88367   0.60537   0.00000  Uiso   1.00
H76    H     0.47172   0.97387   0.47291   0.00000  Uiso   1.00
H77    H     0.36295   0.24876   0.53380   0.00000  Uiso   1.00
H78    H     0.36205   0.05596   0.41053   0.00000  Uiso   1.00
H79    H     0.30779   0.30197   0.63257   0.00000  Uiso   1.00
H80    H     0.41993   0.34474   0.56975   0.00000  Uiso   1.00
H81    H     0.35954   0.91102   0.25587   0.00000  Uiso   1.00
H82    H     0.24514   0.42976   0.72408   0.00000  Uiso   1.00
H83    H     0.48161   0.51994   0.59162   0.00000  Uiso   1.00
O84    O     0.35379   0.02072   0.11293   0.00000  Uiso   1.00
O85    O     0.20370   0.70129   0.72720   0.00000  Uiso   1.00
O86    O     0.51395   0.81962   0.55342   0.00000  Uiso   1.00
N87    N     0.35211   0.28457   0.18202   0.00000  Uiso   1.00
N88    N     0.24515   0.76954   0.61975   0.00000  Uiso   1.00
N89    N     0.46623   0.85389   0.49593   0.00000  Uiso   1.00
N90    N     0.35743   0.04032   0.24589   0.00000  Uiso   1.00
N91    N     0.25047   0.52529   0.68363   0.00000  Uiso   1.00
N92    N     0.47155   0.60963   0.55981   0.00000  Uiso   1.00
C93    C     0.14596   0.15747   0.07309   0.00000  Uiso   1.00
C94    C     0.14519   0.99501   0.12497   0.00000  Uiso   1.00
C95    C     0.14750   0.99447   0.20418   0.00000  Uiso   1.00
C96    C     0.14630   0.83220   0.24119   0.00000  Uiso   1.00
C97    C     0.14564   0.60367   0.32795   0.00000  Uiso   1.00
C98    C     0.17467   0.12866   0.00434   0.00000  Uiso   1.00
C99    C     0.20177   0.24050   0.98211   0.00000  Uiso   1.00
C100   C     0.22539   0.19074   0.91755   0.00000  Uiso   1.00
C101   C     0.27048   0.16976   0.81699   0.00000  Uiso   1.00
C102   C     0.11374   0.15189   0.03847   0.00000  Uiso   1.00
C103   C     0.08962   0.28329   0.04493   0.00000  Uiso   1.00
C104   C     0.06193   0.25310   0.00910   0.00000  Uiso   1.00
C105   C     0.01242   0.26820   0.96154   0.00000  Uiso   1.00
C106   C     0.13970   0.87023   0.99797   0.00000  Uiso   1.00
C107   C     0.14179   0.83900   0.08417   0.00000  Uiso   1.00
C108   C     0.14058   0.67668   0.12107   0.00000  Uiso   1.00
C109   C     0.14290   0.67590   0.20031   0.00000  Uiso   1.00
C110   C     0.17127   0.97265   0.96353   0.00000  Uiso   1.00
C111   C     0.19485   0.92271   0.89899   0.00000  Uiso   1.00
C112   C     0.22198   0.03444   0.87667   0.00000  Uiso   1.00
C113   C     0.11034   0.99587   0.99767   0.00000  Uiso   1.00
C114   C     0.08269   0.96549   0.96182   0.00000  Uiso   1.00
C115   C     0.05853   0.09681   0.96822   0.00000  Uiso   1.00
H116   H     0.14861   0.27893   0.10485   0.00000  Uiso   1.00
H117   H     0.15014   0.11524   0.23573   0.00000  Uiso   1.00
H118   H     0.20440   0.36124   0.01369   0.00000  Uiso   1.00
H119   H     0.09225   0.40400   0.07651   0.00000  Uiso   1.00
H120   H     0.15035   0.86494   0.36284   0.00000  Uiso   1.00
H121   H     0.26475   0.38367   0.89463   0.00000  Uiso   1.00
H122   H     0.02828   0.47387   0.02709   0.00000  Uiso   1.00
H123   H     0.13705   0.74876   0.96620   0.00000  Uiso   1.00
H124   H     0.13795   0.55596   0.08947   0.00000  Uiso   1.00
H125   H     0.19221   0.80197   0.86743   0.00000  Uiso   1.00
H126   H     0.08007   0.84474   0.93025   0.00000  Uiso   1.00
H127   H     0.14046   0.41102   0.24413   0.00000  Uiso   1.00
H128   H     0.25486   0.92976   0.77592   0.00000  Uiso   1.00
H129   H     0.01839   0.01994   0.90838   0.00000  Uiso   1.00
O130   O     0.14621   0.52072   0.38707   0.00000  Uiso   1.00
O131   O     0.29630   0.20129   0.77280   0.00000  Uiso   1.00
O132   O     0.98605   0.31962   0.94658   0.00000  Uiso   1.00
N133   N     0.14789   0.78457   0.31798   0.00000  Uiso   1.00
N134   N     0.25485   0.26954   0.88025   0.00000  Uiso   1.00
N135   N     0.03377   0.35389   0.00407   0.00000  Uiso   1.00
N136   N     0.14257   0.54032   0.25411   0.00000  Uiso   1.00
N137   N     0.24953   0.02529   0.81637   0.00000  Uiso   1.00
N138   N     0.02845   0.10963   0.94019   0.00000  Uiso   1.00
C139   C     0.64596   0.65747   0.07309   0.00000  Uiso   1.00
C140   C     0.64519   0.49501   0.12497   0.00000  Uiso   1.00
C141   C     0.64750   0.49447   0.20418   0.00000  Uiso   1.00
C142   C     0.64630   0.33220   0.24119   0.00000  Uiso   1.00
C143   C     0.64564   0.10367   0.32795   0.00000  Uiso   1.00
C144   C     0.67467   0.62866   0.00434   0.00000  Uiso   1.00
C145   C     0.70177   0.74050   0.98211   0.00000  Uiso   1.00
C146   C     0.72539   0.69074   0.91755   0.00000  Uiso   1.00
C147   C     0.77048   0.66976   0.81699   0.00000  Uiso   1.00
C148   C     0.61374   0.65189   0.03847   0.00000  Uiso   1.00
C149   C     0.58962   0.78329   0.04493   0.00000  Uiso   1.00
C150   C     0.56193   0.75310   0.00910   0.00000  Uiso   1.00
C151   C     0.51242   0.76820   0.96154   0.00000  Uiso   1.00
C152   C     0.63970   0.37023   0.99797   0.00000  Uiso   1.00
C153   C     0.64179   0.33900   0.08417   0.00000  Uiso   1.00
C154   C     0.64058   0.17668   0.12107   0.00000  Uiso   1.00
C155   C     0.64290   0.17590   0.20031   0.00000  Uiso   1.00
C156   C     0.67127   0.47265   0.96353   0.00000  Uiso   1.00
C157   C     0.69485   0.42271   0.89899   0.00000  Uiso   1.00
C158   C     0.72198   0.53444   0.87667   0.00000  Uiso   1.00
C159   C     0.61034   0.49587   0.99767   0.00000  Uiso   1.00
C160   C     0.58269   0.46549   0.96182   0.00000  Uiso   1.00
C161   C     0.55853   0.59681   0.96822   0.00000  Uiso   1.00
H162   H     0.64861   0.77893   0.10485   0.00000  Uiso   1.00
H163   H     0.65014   0.61524   0.23573   0.00000  Uiso   1.00
H164   H     0.70440   0.86124   0.01369   0.00000  Uiso   1.00
H165   H     0.59225   0.90400   0.07651   0.00000  Uiso   1.00
H166   H     0.65035   0.36494   0.36284   0.00000  Uiso   1.00
H167   H     0.76475   0.88367   0.89463   0.00000  Uiso   1.00
H168   H     0.52828   0.97387   0.02709   0.00000  Uiso   1.00
H169   H     0.63705   0.24876   0.96620   0.00000  Uiso   1.00
H170   H     0.63795   0.05596   0.08947   0.00000  Uiso   1.00
H171   H     0.69221   0.30197   0.86743   0.00000  Uiso   1.00
H172   H     0.58007   0.34474   0.93025   0.00000  Uiso   1.00
H173   H     0.64046   0.91102   0.24413   0.00000  Uiso   1.00
H174   H     0.75486   0.42976   0.77592   0.00000  Uiso   1.00
H175   H     0.51839   0.51994   0.90838   0.00000  Uiso   1.00
O176   O     0.64621   0.02072   0.38707   0.00000  Uiso   1.00
O177   O     0.79630   0.70129   0.77280   0.00000  Uiso   1.00
O178   O     0.48605   0.81962   0.94658   0.00000  Uiso   1.00
N179   N     0.64789   0.28457   0.31798   0.00000  Uiso   1.00
N180   N     0.75485   0.76954   0.88025   0.00000  Uiso   1.00
N181   N     0.53377   0.85389   0.00407   0.00000  Uiso   1.00
N182   N     0.64257   0.04032   0.25411   0.00000  Uiso   1.00
N183   N     0.74953   0.52529   0.81637   0.00000  Uiso   1.00
N184   N     0.52845   0.60963   0.94019   0.00000  Uiso   1.00
C185   C     0.14596   0.84253   0.57309   0.00000  Uiso   1.00
C186   C     0.14519   0.00499   0.62497   0.00000  Uiso   1.00
C187   C     0.14750   0.00553   0.70418   0.00000  Uiso   1.00
C188   C     0.14630   0.16780   0.74119   0.00000  Uiso   1.00
C189   C     0.14564   0.39633   0.82795   0.00000  Uiso   1.00
C190   C     0.17467   0.87134   0.50434   0.00000  Uiso   1.00
C191   C     0.20177   0.75950   0.48211   0.00000  Uiso   1.00
C192   C     0.22539   0.80926   0.41755   0.00000  Uiso   1.00
C193   C     0.27048   0.83024   0.31699   0.00000  Uiso   1.00
C194   C     0.11374   0.84811   0.53847   0.00000  Uiso   1.00
C195   C     0.08962   0.71671   0.54493   0.00000  Uiso   1.00
C196   C     0.06193   0.74690   0.50910   0.00000  Uiso   1.00
C197   C     0.01242   0.73180   0.46154   0.00000  Uiso   1.00
C198   C     0.13970   0.12977   0.49797   0.00000  Uiso   1.00
C199   C     0.14179   0.16100   0.58417   0.00000  Uiso   1.00
C200   C     0.14058   0.32332   0.62107   0.00000  Uiso   1.00
C201   C     0.14290   0.32410   0.70031   0.00000  Uiso   1.00
C202   C     0.17127   0.02735   0.46353   0.00000  Uiso   1.00
C203   C     0.19485   0.07729   0.39899   0.00000  Uiso   1.00
C204   C     0.22198   0.96556   0.37667   0.00000  Uiso   1.00
C205   C     0.11034   0.00413   0.49767   0.00000  Uiso   1.00
C206   C     0.08269   0.03451   0.46182   0.00000  Uiso   1.00
C207   C     0.05853   0.90319   0.46822   0.00000  Uiso   1.00
H208   H     0.14861   0.72107   0.60485   0.00000  Uiso   1.00
H209   H     0.15014   0.88476   0.73573   0.00000  Uiso   1.00
H210   H     0.20440   0.63876   0.51369   0.00000  Uiso   1.00
H211   H     0.09225   0.59600   0.57651   0.00000  Uiso   1.00
H212   H     0.15035   0.13506   0.86284   0.00000  Uiso   1.00
H213   H     0.26475   0.61633   0.39463   0.00000  Uiso   1.00
H214   H     0.02828   0.52613   0.52709   0.00000  Uiso   1.00
H215   H     0.13705   0.25124   0.46620   0.00000  Uiso   1.00
H216   H     0.13795   0.44404   0.58947   0.00000  Uiso   1.00
H217   H     0.19221   0.19803   0.36743   0.00000  Uiso   1.00
H218   H     0.08007   0.15526   0.43025   0.00000  Uiso   1.00
H219   H     0.14046   0.58898   0.74413   0.00000  Uiso   1.00
H220   H     0.25486   0.07024   0.27592   0.00000  Uiso   1.00
H221   H     0.01839   0.98006   0.40838   0.00000  Uiso   1.00
O222   O     0.14621   0.47928   0.88707   0.00000  Uiso   1.00
O223   O     0.29630   0.79871   0.27280   0.00000  Uiso   1.00
O224   O     0.98605   0.68038   0.44658   0.00000  Uiso   1.00
N225   N     0.14789   0.21543   0.81798   0.00000  Uiso   1.00
N226   N     0.25485   0.73046   0.38025   0.00000  Uiso   1.00
N227   N     0.03377   0.64611   0.50407   0.00000  Uiso   1.00
N228   N     0.14257   0.45968   0.75411   0.00000  Uiso   1.00
N229   N     0.24953   0.97471   0.31637   0.00000  Uiso   1.00
N230   N     0.02845   0.89037   0.44019   0.00000  Uiso   1.00
C231   C     0.64596   0.34253   0.57309   0.00000  Uiso   1.00
C232   C     0.64519   0.50499   0.62497   0.00000  Uiso   1.00
C233   C     0.64750   0.50553   0.70418   0.00000  Uiso   1.00
C234   C     0.64630   0.66780   0.74119   0.00000  Uiso   1.00
C235   C     0.64564   0.89633   0.82795   0.00000  Uiso   1.00
C236   C     0.67467   0.37134   0.50434   0.00000  Uiso   1.00
C237   C     0.70177   0.25950   0.48211   0.00000  Uiso   1.00
C238   C     0.72539   0.30926   0.41755   0.00000  Uiso   1.00
C239   C     0.77048   0.33024   0.31699   0.00000  Uiso   1.00
C240   C     0.61374   0.34811   0.53847   0.00000  Uiso   1.00
C241   C     0.58962   0.21671   0.54493   0.00000  Uiso   1.00
C242   C     0.56193   0.24690   0.50910   0.00000  Uiso   1.00
C243   C     0.51242   0.23180   0.46154   0.00000  Uiso   1.00
C244   C     0.63970   0.62977   0.49797   0.00000  Uiso   1.00
C245   C     0.64179   0.66100   0.58417   0.00000  Uiso   1.00
C246   C     0.64058   0.82332   0.62107   0.00000  Uiso   1.00
C247   C     0.64290   0.82410   0.70031   0.00000  Uiso   1.00
C248   C     0.67127   0.52735   0.46353   0.00000  Uiso   1.00
C249   C     0.69485   0.57729   0.39899   0.00000  Uiso   1.00
C250   C     0.72198   0.46556   0.37667   0.00000  Uiso   1.00
C251   C     0.61034   0.50413   0.49767   0.00000  Uiso   1.00
C252   C     0.58269   0.53451   0.46182   0.00000  Uiso   1.00
C253   C     0.55853   0.40319   0.46822   0.00000  Uiso   1.00
H254   H     0.64861   0.22107   0.60485   0.00000  Uiso   1.00
H255   H     0.65014   0.38476   0.73573   0.00000  Uiso   1.00
H256   H     0.70440   0.13876   0.51369   0.00000  Uiso   1.00
H257   H     0.59225   0.09600   0.57651   0.00000  Uiso   1.00
H258   H     0.65035   0.63506   0.86284   0.00000  Uiso   1.00
H259   H     0.76475   0.11633   0.39463   0.00000  Uiso   1.00
H260   H     0.52828   0.02613   0.52709   0.00000  Uiso   1.00
H261   H     0.63705   0.75124   0.46620   0.00000  Uiso   1.00
H262   H     0.63795   0.94404   0.58947   0.00000  Uiso   1.00
H263   H     0.69221   0.69803   0.36743   0.00000  Uiso   1.00
H264   H     0.58007   0.65526   0.43025   0.00000  Uiso   1.00
H265   H     0.64046   0.08898   0.74413   0.00000  Uiso   1.00
H266   H     0.75486   0.57024   0.27592   0.00000  Uiso   1.00
H267   H     0.51839   0.48006   0.40838   0.00000  Uiso   1.00
O268   O     0.64621   0.97928   0.88707   0.00000  Uiso   1.00
O269   O     0.79630   0.29871   0.27280   0.00000  Uiso   1.00
O270   O     0.48605   0.18038   0.44658   0.00000  Uiso   1.00
N271   N     0.64789   0.71543   0.81798   0.00000  Uiso   1.00
N272   N     0.75485   0.23046   0.38025   0.00000  Uiso   1.00
N273   N     0.53377   0.14611   0.50407   0.00000  Uiso   1.00
N274   N     0.64257   0.95968   0.75411   0.00000  Uiso   1.00
N275   N     0.74953   0.47471   0.31637   0.00000  Uiso   1.00
N276   N     0.52845   0.39037   0.44019   0.00000  Uiso   1.00
C277   C     0.85404   0.84253   0.92691   0.00000  Uiso   1.00
C278   C     0.85481   0.00499   0.87503   0.00000  Uiso   1.00
C279   C     0.85250   0.00553   0.79582   0.00000  Uiso   1.00
C280   C     0.85370   0.16780   0.75881   0.00000  Uiso   1.00
C281   C     0.85436   0.39633   0.67205   0.00000  Uiso   1.00
C282   C     0.82533   0.87134   0.99566   0.00000  Uiso   1.00
C283   C     0.79823   0.75950   0.01789   0.00000  Uiso   1.00
C284   C     0.77461   0.80926   0.08245   0.00000  Uiso   1.00
C285   C     0.72952   0.83024   0.18301   0.00000  Uiso   1.00
C286   C     0.88626   0.84811   0.96153   0.00000  Uiso   1.00
C287   C     0.91038   0.71671   0.95507   0.00000  Uiso   1.00
C288   C     0.93807   0.74690   0.99090   0.00000  Uiso   1.00
C289   C     0.98758   0.73180   0.03846   0.00000  Uiso   1.00
C290   C     0.86030   0.12977   0.00203   0.00000  Uiso   1.00
C291   C     0.85821   0.16100   0.91583   0.00000  Uiso   1.00
C292   C     0.85942   0.32332   0.87893   0.00000  Uiso   1.00
C293   C     0.85710   0.32410   0.79969   0.00000  Uiso   1.00
C294   C     0.82873   0.02735   0.03647   0.00000  Uiso   1.00
C295   C     0.80515   0.07729   0.10101   0.00000  Uiso   1.00
C296   C     0.77802   0.96556   0.12333   0.00000  Uiso   1.00
C297   C     0.88966   0.00413   0.00233   0.00000  Uiso   1.00
C298   C     0.91731   0.03451   0.03818   0.00000  Uiso   1.00
C299   C     0.94147   0.90319   0.03178   0.00000  Uiso   1.00
H300   H     0.85139   0.72107   0.89515   0.00000  Uiso   1.00
H301   H     0.84986   0.88476   0.76427   0.00000  Uiso   1.00
H302   H     0.79560   0.63876   0.98631   0.00000  Uiso   1.00
H303   H     0.90775   0.59600   0.92349   0.00000  Uiso   1.00
H304   H     0.84965   0.13506   0.63716   0.00000  Uiso   1.00
H305   H     0.73525   0.61633   0.10537   0.00000  Uiso   1.00
H306   H     0.97172   0.52613   0.97291   0.00000  Uiso   1.00
H307   H     0.86295   0.25124   0.03380   0.00000  Uiso   1.00
H308   H     0.86205   0.44404   0.91053   0.00000  Uiso   1.00
H309   H     0.80779   0.19803   0.13257   0.00000  Uiso   1.00
H310   H     0.91993   0.15526   0.06975   0.00000  Uiso   1.00
H311   H     0.85954   0.58898   0.75587   0.00000  Uiso   1.00
H312   H     0.74514   0.07024   0.22408   0.00000  Uiso   1.00
H313   H     0.98161   0.98006   0.09162   0.00000  Uiso   1.00
O314   O     0.85379   0.47928   0.61293   0.00000  Uiso   1.00
O315   O     0.70370   0.79871   0.22720   0.00000  Uiso   1.00
O316   O     0.01395   0.68038   0.05342   0.00000  Uiso   1.00
N317   N     0.85211   0.21543   0.68202   0.00000  Uiso   1.00
N318   N     0.74515   0.73046   0.11975   0.00000  Uiso   1.00
N319   N     0.96623   0.64611   0.99593   0.00000  Uiso   1.00
N320   N     0.85743   0.45968   0.74589   0.00000  Uiso   1.00
N321   N     0.75047   0.97471   0.18363   0.00000  Uiso   1.00
N322   N     0.97155   0.89037   0.05981   0.00000  Uiso   1.00
C323   C     0.35404   0.34253   0.92691   0.00000  Uiso   1.00
C324   C     0.35481   0.50499   0.87503   0.00000  Uiso   1.00
C325   C     0.35250   0.50553   0.79582   0.00000  Uiso   1.00
C326   C     0.35370   0.66780   0.75881   0.00000  Uiso   1.00
C327   C     0.35436   0.89633   0.67205   0.00000  Uiso   1.00
C328   C     0.32533   0.37134   0.99566   0.00000  Uiso   1.00
C329   C     0.29823   0.25950   0.01789   0.00000  Uiso   1.00
C330   C     0.27461   0.30926   0.08245   0.00000  Uiso   1.00
C331   C     0.22952   0.33024   0.18301   0.00000  Uiso   1.00
C332   C     0.38626   0.34811   0.96153   0.00000  Uiso   1.00
C333   C     0.41038   0.21671   0.95507   0.00000  Uiso   1.00
C334   C     0.43807   0.24690   0.99090   0.00000  Uiso   1.00
C335   C     0.48758   0.23180   0.03846   0.00000  Uiso   1.00
C336   C     0.36030   0.62977   0.00203   0.00000  Uiso   1.00
C337   C     0.35821   0.66100   0.91583   0.00000  Uiso   1.00
C338   C     0.35942   0.82332   0.87893   0.00000  Uiso   1.00
C339   C     0.35710   0.82410   0.79969   0.00000  Uiso   1.00
C340   C     0.32873   0.52735   0.03647   0.00000  Uiso   1.00
C341   C     0.30515   0.57729   0.10101   0.00000  Uiso   1.00
C342   C     0.27802   0.46556   0.12333   0.00000  Uiso   1.00
C343   C     0.38966   0.50413   0.00233   0.00000  Uiso   1.00
C344   C     0.41731   0.53451   0.03818   0.00000  Uiso   1.00
C345   C     0.44147   0.40319   0.03178   0.00000  Uiso   1.00
H346   H     0.35139   0.22107   0.89515   0.00000  Uiso   1.00
H347   H     0.34986   0.38476   0.76427   0.00000  Uiso   1.00
H348   H     0.29560   0.13876   0.98631   0.00000  Uiso   1.00
H349   H     0.40775   0.09600   0.92349   0.00000  Uiso   1.00
H350   H     0.34965   0.63506   0.63716   0.00000  Uiso   1.00
H351   H     0.23525   0.11633   0.10537   0.00000  Uiso   1.00
H352   H     0.47172   0.02613   0.97291   0.00000  Uiso   1.00
H353   H     0.36295   0.75124   0.03380   0.00000  Uiso   1.00
H354   H     0.36205   0.94404   0.91053   0.00000  Uiso   1.00
H355   H     0.30779   0.69803   0.13257   0.00000  Uiso   1.00
H356   H     0.41993   0.65526   0.06975   0.00000  Uiso   1.00
H357   H     0.35954   0.08898   0.75587   0.00000  Uiso   1.00
H358   H     0.24514   0.57024   0.22408   0.00000  Uiso   1.00
H359   H     0.48161   0.48006   0.09162   0.00000  Uiso   1.00
O360   O     0.35379   0.97928   0.61293   0.00000  Uiso   1.00
O361   O     0.20370   0.29871   0.22720   0.00000  Uiso   1.00
O362   O     0.51395   0.18038   0.05342   0.00000  Uiso   1.00
N363   N     0.35211   0.71543   0.68202   0.00000  Uiso   1.00
N364   N     0.24515   0.23046   0.11975   0.00000  Uiso   1.00
N365   N     0.46623   0.14611   0.99593   0.00000  Uiso   1.00
N366   N     0.35743   0.95968   0.74589   0.00000  Uiso   1.00
N367   N     0.25047   0.47471   0.18363   0.00000  Uiso   1.00
N368   N     0.47155   0.39037   0.05981   0.00000  Uiso   1.00
