data_job_06070
_audit_creation_date              2018-12-19
_audit_creation_method            'Materials Studio'
_symmetry_space_group_name_H-M    'P1'
_symmetry_Int_Tables_number       1
_symmetry_cell_setting            triclinic
loop_
_symmetry_equiv_pos_as_xyz
  x,y,z
_cell_length_a                    8.4275
_cell_length_b                    26.3576
_cell_length_c                    26.7808
_cell_angle_alpha                 118.4400
_cell_angle_beta                  83.8690
_cell_angle_gamma                 86.9101
loop_
_atom_site_label
_atom_site_type_symbol
_atom_site_fract_x
_atom_site_fract_y
_atom_site_fract_z
_atom_site_U_iso_or_equiv
_atom_site_adp_type
_atom_site_occupancy
C1     C     0.53224   0.28773   0.06790   0.00000  Uiso   1.00
C2     C     0.42210   0.24046   0.04288   0.00000  Uiso   1.00
C3     C     0.46560   0.18601   0.99509   0.00000  Uiso   1.00
C4     C     0.34735   0.14897   0.97903   0.00000  Uiso   1.00
C5     C     0.20006   0.07302   0.93550   0.00000  Uiso   1.00
C6     C     0.44981   0.34126   0.06898   0.00000  Uiso   1.00
C7     C     0.51662   0.37157   0.04314   0.00000  Uiso   1.00
C8     C     0.42171   0.41940   0.04907   0.00000  Uiso   1.00
C9     C     0.31748   0.49997   0.04609   0.00000  Uiso   1.00
C10    C     0.52788   0.30275   0.13054   0.00000  Uiso   1.00
C11    C     0.66034   0.30070   0.15647   0.00000  Uiso   1.00
C12    C     0.63116   0.31611   0.21423   0.00000  Uiso   1.00
C13    C     0.64814   0.33689   0.30684   0.00000  Uiso   1.00
C14    C     0.24489   0.31879   0.12439   0.00000  Uiso   1.00
C15    C     0.26603   0.25733   0.07356   0.00000  Uiso   1.00
C16    C     0.14769   0.22036   0.05758   0.00000  Uiso   1.00
C17    C     0.19100   0.16587   0.00977   0.00000  Uiso   1.00
C18    C     0.29374   0.35813   0.09966   0.00000  Uiso   1.00
C19    C     0.19871   0.40593   0.10564   0.00000  Uiso   1.00
C20    C     0.26535   0.43630   0.07980   0.00000  Uiso   1.00
C21    C     0.37181   0.31962   0.16123   0.00000  Uiso   1.00
C22    C     0.34242   0.33505   0.21896   0.00000  Uiso   1.00
C23    C     0.47480   0.33301   0.24497   0.00000  Uiso   1.00
H24    H     0.65374   0.27460   0.04402   0.00000  Uiso   1.00
H25    H     0.58639   0.17297   0.97135   0.00000  Uiso   1.00
H26    H     0.63741   0.35851   0.01940   0.00000  Uiso   1.00
H27    H     0.78109   0.28764   0.13271   0.00000  Uiso   1.00
H28    H     0.44287   0.06775   0.90430   0.00000  Uiso   1.00
H29    H     0.55047   0.45897   0.00564   0.00000  Uiso   1.00
H30    H     0.85346   0.30953   0.24458   0.00000  Uiso   1.00
H31    H     0.12338   0.33192   0.14828   0.00000  Uiso   1.00
H32    H     0.02692   0.23343   0.08133   0.00000  Uiso   1.00
H33    H     0.07794   0.41897   0.12938   0.00000  Uiso   1.00
H34    H     0.22163   0.34810   0.24269   0.00000  Uiso   1.00
H35    H     0.98878   0.11681   0.99357   0.00000  Uiso   1.00
H36    H     0.09638   0.50804   0.09491   0.00000  Uiso   1.00
H37    H     0.39938   0.35860   0.33384   0.00000  Uiso   1.00
O38    O     0.16193   0.02647   0.90301   0.00000  Uiso   1.00
O39    O     0.30310   0.53975   0.03597   0.00000  Uiso   1.00
O40    O     0.70063   0.34368   0.34944   0.00000  Uiso   1.00
N41    N     0.34925   0.09281   0.93451   0.00000  Uiso   1.00
N42    N     0.44983   0.45857   0.02924   0.00000  Uiso   1.00
N43    N     0.73312   0.31888   0.25264   0.00000  Uiso   1.00
N44    N     0.10491   0.11921   0.98254   0.00000  Uiso   1.00
N45    N     0.20549   0.48498   0.07728   0.00000  Uiso   1.00
N46    N     0.48878   0.34528   0.30067   0.00000  Uiso   1.00
C47    C     0.60081   0.93627   0.21953   0.00000  Uiso   1.00
C48    C     0.46792   0.95858   0.19795   0.00000  Uiso   1.00
C49    C     0.46542   0.00778   0.19143   0.00000  Uiso   1.00
C50    C     0.33305   0.02086   0.17109   0.00000  Uiso   1.00
C51    C     0.14572   0.06082   0.13963   0.00000  Uiso   1.00
C52    C     0.51937   0.93234   0.27103   0.00000  Uiso   1.00
C53    C     0.56015   0.95947   0.32596   0.00000  Uiso   1.00
C54    C     0.47111   0.95045   0.36713   0.00000  Uiso   1.00
C55    C     0.36374   0.94963   0.44912   0.00000  Uiso   1.00
C56    C     0.65708   0.87386   0.17281   0.00000  Uiso   1.00
C57    C     0.81365   0.85182   0.14516   0.00000  Uiso   1.00
C58    C     0.84055   0.79356   0.10365   0.00000  Uiso   1.00
C59    C     0.94699   0.70196   0.03313   0.00000  Uiso   1.00
C60    C     0.37017   0.87200   0.19498   0.00000  Uiso   1.00
C61    C     0.34264   0.92367   0.18461   0.00000  Uiso   1.00
C62    C     0.21024   0.93667   0.16427   0.00000  Uiso   1.00
C63    C     0.20755   0.98589   0.15773   0.00000  Uiso   1.00
C64    C     0.39410   0.89743   0.25770   0.00000  Uiso   1.00
C65    C     0.30498   0.88836   0.29879   0.00000  Uiso   1.00
C66    C     0.34560   0.91548   0.35377   0.00000  Uiso   1.00
C67    C     0.53180   0.83895   0.15947   0.00000  Uiso   1.00
C68    C     0.55847   0.78072   0.11799   0.00000  Uiso   1.00
C69    C     0.71505   0.75859   0.09029   0.00000  Uiso   1.00
H70    H     0.69834   0.96345   0.22992   0.00000  Uiso   1.00
H71    H     0.56239   0.03478   0.20176   0.00000  Uiso   1.00
H72    H     0.65711   0.98647   0.33626   0.00000  Uiso   1.00
H73    H     0.91056   0.87885   0.15549   0.00000  Uiso   1.00
H74    H     0.35638   0.09849   0.16469   0.00000  Uiso   1.00
H75    H     0.55616   0.99661   0.44828   0.00000  Uiso   1.00
H76    H     0.09061   0.76965   0.06709   0.00000  Uiso   1.00
H77    H     0.27264   0.84482   0.18460   0.00000  Uiso   1.00
H78    H     0.11332   0.90965   0.15395   0.00000  Uiso   1.00
H79    H     0.20805   0.86134   0.28846   0.00000  Uiso   1.00
H80    H     0.46150   0.75372   0.10769   0.00000  Uiso   1.00
H81    H     0.99190   0.99693   0.12589   0.00000  Uiso   1.00
H82    H     0.19168   0.89505   0.40948   0.00000  Uiso   1.00
H83    H     0.72613   0.66809   0.02829   0.00000  Uiso   1.00
O84    O     0.07699   0.09251   0.12596   0.00000  Uiso   1.00
O85    O     0.33912   0.95884   0.49803   0.00000  Uiso   1.00
O86    O     0.04030   0.66108   0.99791   0.00000  Uiso   1.00
N87    N     0.29248   0.06569   0.15975   0.00000  Uiso   1.00
N88    N     0.47924   0.97044   0.42490   0.00000  Uiso   1.00
N89    N     0.97892   0.75825   0.06853   0.00000  Uiso   1.00
N90    N     0.09636   0.01104   0.13887   0.00000  Uiso   1.00
N91    N     0.28312   0.91579   0.40402   0.00000  Uiso   1.00
N92    N     0.78280   0.70360   0.04765   0.00000  Uiso   1.00
C93    C     0.81874   0.78236   0.71544   0.00000  Uiso   1.00
C94    C     0.66566   0.79986   0.75867   0.00000  Uiso   1.00
C95    C     0.65620   0.80570   0.81325   0.00000  Uiso   1.00
C96    C     0.50497   0.82209   0.84622   0.00000  Uiso   1.00
C97    C     0.28807   0.84770   0.91650   0.00000  Uiso   1.00
C98    C     0.78797   0.72909   0.66121   0.00000  Uiso   1.00
C99    C     0.88137   0.67544   0.63384   0.00000  Uiso   1.00
C100   C     0.83311   0.63226   0.58475   0.00000  Uiso   1.00
C101   C     0.80618   0.54801   0.50371   0.00000  Uiso   1.00
C102   C     0.83005   0.83094   0.70007   0.00000  Uiso   1.00
C103   C     0.95884   0.86291   0.70536   0.00000  Uiso   1.00
C104   C     0.94602   0.90546   0.68898   0.00000  Uiso   1.00
C105   C     0.98442   0.97934   0.66827   0.00000  Uiso   1.00
C106   C     0.56699   0.80107   0.67694   0.00000  Uiso   1.00
C107   C     0.52893   0.81003   0.73775   0.00000  Uiso   1.00
C108   C     0.37767   0.82641   0.77065   0.00000  Uiso   1.00
C109   C     0.36799   0.83228   0.82527   0.00000  Uiso   1.00
C110   C     0.65124   0.73926   0.64029   0.00000  Uiso   1.00
C111   C     0.60284   0.69615   0.59124   0.00000  Uiso   1.00
C112   C     0.69613   0.64244   0.56380   0.00000  Uiso   1.00
C113   C     0.69331   0.84111   0.67915   0.00000  Uiso   1.00
C114   C     0.68030   0.88362   0.66276   0.00000  Uiso   1.00
C115   C     0.80904   0.91565   0.66803   0.00000  Uiso   1.00
H116   H     0.92519   0.77444   0.73172   0.00000  Uiso   1.00
H117   H     0.76204   0.79783   0.82942   0.00000  Uiso   1.00
H118   H     0.98718   0.66759   0.65003   0.00000  Uiso   1.00
H119   H     0.06463   0.85503   0.72154   0.00000  Uiso   1.00
H120   H     0.52085   0.82822   0.92850   0.00000  Uiso   1.00
H121   H     0.99561   0.55361   0.55024   0.00000  Uiso   1.00
H122   H     0.15893   0.94886   0.70104   0.00000  Uiso   1.00
H123   H     0.46053   0.80899   0.66065   0.00000  Uiso   1.00
H124   H     0.27188   0.83428   0.75445   0.00000  Uiso   1.00
H125   H     0.49703   0.70403   0.57506   0.00000  Uiso   1.00
H126   H     0.57447   0.89147   0.64657   0.00000  Uiso   1.00
H127   H     0.12301   0.85780   0.86765   0.00000  Uiso   1.00
H128   H     0.59778   0.58319   0.48939   0.00000  Uiso   1.00
H129   H     0.76110   0.97844   0.64019   0.00000  Uiso   1.00
O130   O     0.20621   0.85900   0.96105   0.00000  Uiso   1.00
O131   O     0.82909   0.49873   0.46478   0.00000  Uiso   1.00
O132   O     0.04336   0.01728   0.66263   0.00000  Uiso   1.00
N133   N     0.45311   0.83172   0.90131   0.00000  Uiso   1.00
N134   N     0.89697   0.57497   0.54766   0.00000  Uiso   1.00
N135   N     0.04968   0.94449   0.68863   0.00000  Uiso   1.00
N136   N     0.23904   0.84764   0.86857   0.00000  Uiso   1.00
N137   N     0.68290   0.59089   0.51492   0.00000  Uiso   1.00
N138   N     0.83561   0.96041   0.65589   0.00000  Uiso   1.00
C139   C     0.46776   0.71227   0.93210   0.00000  Uiso   1.00
C140   C     0.57790   0.75954   0.95712   0.00000  Uiso   1.00
C141   C     0.53440   0.81399   0.00491   0.00000  Uiso   1.00
C142   C     0.65265   0.85103   0.02097   0.00000  Uiso   1.00
C143   C     0.79994   0.92698   0.06450   0.00000  Uiso   1.00
C144   C     0.55019   0.65874   0.93102   0.00000  Uiso   1.00
C145   C     0.48338   0.62843   0.95686   0.00000  Uiso   1.00
C146   C     0.57829   0.58060   0.95093   0.00000  Uiso   1.00
C147   C     0.68252   0.50003   0.95391   0.00000  Uiso   1.00
C148   C     0.47212   0.69725   0.86946   0.00000  Uiso   1.00
C149   C     0.33966   0.69930   0.84353   0.00000  Uiso   1.00
C150   C     0.36885   0.68389   0.78577   0.00000  Uiso   1.00
C151   C     0.35185   0.66311   0.69316   0.00000  Uiso   1.00
C152   C     0.75511   0.68122   0.87561   0.00000  Uiso   1.00
C153   C     0.73397   0.74267   0.92644   0.00000  Uiso   1.00
C154   C     0.85231   0.77964   0.94242   0.00000  Uiso   1.00
C155   C     0.80900   0.83413   0.99023   0.00000  Uiso   1.00
C156   C     0.70626   0.64187   0.90034   0.00000  Uiso   1.00
C157   C     0.80129   0.59407   0.89436   0.00000  Uiso   1.00
C158   C     0.73465   0.56370   0.92020   0.00000  Uiso   1.00
C159   C     0.62819   0.68038   0.83877   0.00000  Uiso   1.00
C160   C     0.65758   0.66495   0.78104   0.00000  Uiso   1.00
C161   C     0.52520   0.66699   0.75503   0.00000  Uiso   1.00
H162   H     0.34626   0.72540   0.95599   0.00000  Uiso   1.00
H163   H     0.41361   0.82703   0.02865   0.00000  Uiso   1.00
H164   H     0.36259   0.64149   0.98060   0.00000  Uiso   1.00
H165   H     0.21891   0.71236   0.86729   0.00000  Uiso   1.00
H166   H     0.55713   0.93225   0.09570   0.00000  Uiso   1.00
H167   H     0.44953   0.54103   0.99436   0.00000  Uiso   1.00
H168   H     0.14654   0.69047   0.75542   0.00000  Uiso   1.00
H169   H     0.87662   0.66808   0.85172   0.00000  Uiso   1.00
H170   H     0.97308   0.76657   0.91867   0.00000  Uiso   1.00
H171   H     0.92206   0.58103   0.87062   0.00000  Uiso   1.00
H172   H     0.77837   0.65190   0.75731   0.00000  Uiso   1.00
H173   H     0.01122   0.88319   0.00643   0.00000  Uiso   1.00
H174   H     0.90362   0.49196   0.90509   0.00000  Uiso   1.00
H175   H     0.60062   0.64140   0.66616   0.00000  Uiso   1.00
O176   O     0.83807   0.97353   0.09699   0.00000  Uiso   1.00
O177   O     0.69690   0.46025   0.96403   0.00000  Uiso   1.00
O178   O     0.29937   0.65632   0.65056   0.00000  Uiso   1.00
N179   N     0.65075   0.90719   0.06549   0.00000  Uiso   1.00
N180   N     0.55017   0.54143   0.97076   0.00000  Uiso   1.00
N181   N     0.26688   0.68112   0.74736   0.00000  Uiso   1.00
N182   N     0.89509   0.88079   0.01746   0.00000  Uiso   1.00
N183   N     0.79451   0.51502   0.92272   0.00000  Uiso   1.00
N184   N     0.51122   0.65472   0.69933   0.00000  Uiso   1.00
C185   C     0.39919   0.06373   0.78047   0.00000  Uiso   1.00
C186   C     0.53208   0.04142   0.80205   0.00000  Uiso   1.00
C187   C     0.53458   0.99222   0.80857   0.00000  Uiso   1.00
C188   C     0.66695   0.97914   0.82891   0.00000  Uiso   1.00
C189   C     0.85428   0.93918   0.86037   0.00000  Uiso   1.00
C190   C     0.48063   0.06766   0.72897   0.00000  Uiso   1.00
C191   C     0.43985   0.04053   0.67404   0.00000  Uiso   1.00
C192   C     0.52889   0.04955   0.63287   0.00000  Uiso   1.00
C193   C     0.63626   0.05037   0.55088   0.00000  Uiso   1.00
C194   C     0.34292   0.12614   0.82719   0.00000  Uiso   1.00
C195   C     0.18635   0.14818   0.85484   0.00000  Uiso   1.00
C196   C     0.15945   0.20644   0.89635   0.00000  Uiso   1.00
C197   C     0.05301   0.29804   0.96687   0.00000  Uiso   1.00
C198   C     0.62983   0.12800   0.80502   0.00000  Uiso   1.00
C199   C     0.65736   0.07633   0.81539   0.00000  Uiso   1.00
C200   C     0.78975   0.06333   0.83573   0.00000  Uiso   1.00
C201   C     0.79245   0.01412   0.84227   0.00000  Uiso   1.00
C202   C     0.60590   0.10257   0.74230   0.00000  Uiso   1.00
C203   C     0.69502   0.11164   0.70121   0.00000  Uiso   1.00
C204   C     0.65439   0.08452   0.64623   0.00000  Uiso   1.00
C205   C     0.46820   0.16105   0.84053   0.00000  Uiso   1.00
C206   C     0.44153   0.21928   0.88201   0.00000  Uiso   1.00
C207   C     0.28495   0.24141   0.90971   0.00000  Uiso   1.00
H208   H     0.30166   0.03655   0.77008   0.00000  Uiso   1.00
H209   H     0.43761   0.96522   0.79824   0.00000  Uiso   1.00
H210   H     0.34289   0.01353   0.66374   0.00000  Uiso   1.00
H211   H     0.08944   0.12115   0.84451   0.00000  Uiso   1.00
H212   H     0.64362   0.90151   0.83531   0.00000  Uiso   1.00
H213   H     0.44384   0.00339   0.55172   0.00000  Uiso   1.00
H214   H     0.90939   0.23035   0.93291   0.00000  Uiso   1.00
H215   H     0.72736   0.15518   0.81540   0.00000  Uiso   1.00
H216   H     0.88668   0.09035   0.84605   0.00000  Uiso   1.00
H217   H     0.79195   0.13866   0.71154   0.00000  Uiso   1.00
H218   H     0.53850   0.24628   0.89231   0.00000  Uiso   1.00
H219   H     0.00810   0.00307   0.87411   0.00000  Uiso   1.00
H220   H     0.80832   0.10495   0.59052   0.00000  Uiso   1.00
H221   H     0.27387   0.33191   0.97171   0.00000  Uiso   1.00
O222   O     0.92301   0.90749   0.87404   0.00000  Uiso   1.00
O223   O     0.66088   0.04116   0.50197   0.00000  Uiso   1.00
O224   O     0.95970   0.33892   0.00209   0.00000  Uiso   1.00
N225   N     0.70752   0.93431   0.84025   0.00000  Uiso   1.00
N226   N     0.52076   0.02956   0.57510   0.00000  Uiso   1.00
N227   N     0.02108   0.24175   0.93147   0.00000  Uiso   1.00
N228   N     0.90364   0.98896   0.86113   0.00000  Uiso   1.00
N229   N     0.71688   0.08421   0.59598   0.00000  Uiso   1.00
N230   N     0.21720   0.29640   0.95235   0.00000  Uiso   1.00
C231   C     0.18126   0.21764   0.28456   0.00000  Uiso   1.00
C232   C     0.33434   0.20014   0.24133   0.00000  Uiso   1.00
C233   C     0.34380   0.19430   0.18675   0.00000  Uiso   1.00
C234   C     0.49503   0.17791   0.15378   0.00000  Uiso   1.00
C235   C     0.71193   0.15230   0.08350   0.00000  Uiso   1.00
C236   C     0.21203   0.27091   0.33879   0.00000  Uiso   1.00
C237   C     0.11863   0.32456   0.36616   0.00000  Uiso   1.00
C238   C     0.16689   0.36774   0.41525   0.00000  Uiso   1.00
C239   C     0.19382   0.45199   0.49629   0.00000  Uiso   1.00
C240   C     0.16995   0.16906   0.29993   0.00000  Uiso   1.00
C241   C     0.04116   0.13709   0.29464   0.00000  Uiso   1.00
C242   C     0.05398   0.09454   0.31102   0.00000  Uiso   1.00
C243   C     0.01558   0.02066   0.33173   0.00000  Uiso   1.00
C244   C     0.43301   0.19892   0.32306   0.00000  Uiso   1.00
C245   C     0.47107   0.18997   0.26225   0.00000  Uiso   1.00
C246   C     0.62233   0.17359   0.22935   0.00000  Uiso   1.00
C247   C     0.63201   0.16772   0.17473   0.00000  Uiso   1.00
C248   C     0.34876   0.26074   0.35971   0.00000  Uiso   1.00
C249   C     0.39716   0.30385   0.40876   0.00000  Uiso   1.00
C250   C     0.30387   0.35756   0.43620   0.00000  Uiso   1.00
C251   C     0.30669   0.15890   0.32085   0.00000  Uiso   1.00
C252   C     0.31970   0.11638   0.33724   0.00000  Uiso   1.00
C253   C     0.19096   0.08435   0.33197   0.00000  Uiso   1.00
H254   H     0.07481   0.22556   0.26828   0.00000  Uiso   1.00
H255   H     0.23796   0.20217   0.17058   0.00000  Uiso   1.00
H256   H     0.01282   0.33241   0.34997   0.00000  Uiso   1.00
H257   H     0.93537   0.14497   0.27846   0.00000  Uiso   1.00
H258   H     0.47915   0.17178   0.07150   0.00000  Uiso   1.00
H259   H     0.00439   0.44639   0.44976   0.00000  Uiso   1.00
H260   H     0.84107   0.05114   0.29896   0.00000  Uiso   1.00
H261   H     0.53947   0.19101   0.33935   0.00000  Uiso   1.00
H262   H     0.72812   0.16572   0.24555   0.00000  Uiso   1.00
H263   H     0.50297   0.29597   0.42494   0.00000  Uiso   1.00
H264   H     0.42553   0.10853   0.35343   0.00000  Uiso   1.00
H265   H     0.87699   0.14220   0.13235   0.00000  Uiso   1.00
H266   H     0.40222   0.41681   0.51061   0.00000  Uiso   1.00
H267   H     0.23890   0.02156   0.35981   0.00000  Uiso   1.00
O268   O     0.79379   0.14100   0.03895   0.00000  Uiso   1.00
O269   O     0.17091   0.50127   0.53522   0.00000  Uiso   1.00
O270   O     0.95664   0.98272   0.33737   0.00000  Uiso   1.00
N271   N     0.54689   0.16828   0.09869   0.00000  Uiso   1.00
N272   N     0.10303   0.42503   0.45234   0.00000  Uiso   1.00
N273   N     0.95032   0.05551   0.31137   0.00000  Uiso   1.00
N274   N     0.76096   0.15236   0.13143   0.00000  Uiso   1.00
N275   N     0.31710   0.40911   0.48508   0.00000  Uiso   1.00
N276   N     0.16439   0.03959   0.34411   0.00000  Uiso   1.00
