data_job_03491
_audit_creation_date              2018-12-19
_audit_creation_method            'Materials Studio'
_symmetry_space_group_name_H-M    'P1'
_symmetry_Int_Tables_number       1
_symmetry_cell_setting            triclinic
loop_
_symmetry_equiv_pos_as_xyz
  x,y,z
_cell_length_a                    35.4246
_cell_length_b                    11.2141
_cell_length_c                    14.0309
_cell_angle_alpha                 90.0000
_cell_angle_beta                  87.7872
_cell_angle_gamma                 90.0000
loop_
_atom_site_label
_atom_site_type_symbol
_atom_site_fract_x
_atom_site_fract_y
_atom_site_fract_z
_atom_site_U_iso_or_equiv
_atom_site_adp_type
_atom_site_occupancy
C1     C     0.87122   0.19953   0.39969   0.00000  Uiso   1.00
C2     C     0.91037   0.19643   0.44116   0.00000  Uiso   1.00
C3     C     0.92118   0.25697   0.52195   0.00000  Uiso   1.00
C4     C     0.95828   0.24254   0.54824   0.00000  Uiso   1.00
C5     C     0.01522   0.24879   0.62062   0.00000  Uiso   1.00
C6     C     0.87709   0.24069   0.29659   0.00000  Uiso   1.00
C7     C     0.85991   0.33844   0.25583   0.00000  Uiso   1.00
C8     C     0.86899   0.36125   0.16043   0.00000  Uiso   1.00
C9     C     0.87424   0.43616   0.00835   0.00000  Uiso   1.00
C10    C     0.85821   0.07014   0.39485   0.00000  Uiso   1.00
C11    C     0.82514   0.02448   0.43669   0.00000  Uiso   1.00
C12    C     0.81832   0.90371   0.42399   0.00000  Uiso   1.00
C13    C     0.79424   0.71381   0.42448   0.00000  Uiso   1.00
C14    C     0.91792   0.06623   0.30272   0.00000  Uiso   1.00
C15    C     0.93573   0.12403   0.38848   0.00000  Uiso   1.00
C16    C     0.97283   0.10949   0.41466   0.00000  Uiso   1.00
C17    C     0.98369   0.17000   0.49548   0.00000  Uiso   1.00
C18    C     0.90245   0.16829   0.24392   0.00000  Uiso   1.00
C19    C     0.91156   0.19096   0.14855   0.00000  Uiso   1.00
C20    C     0.89440   0.28872   0.10766   0.00000  Uiso   1.00
C21    C     0.88357   0.99773   0.34218   0.00000  Uiso   1.00
C22    C     0.87680   0.87700   0.32941   0.00000  Uiso   1.00
C23    C     0.84372   0.83117   0.37123   0.00000  Uiso   1.00
H24    H     0.85148   0.25590   0.44069   0.00000  Uiso   1.00
H25    H     0.90154   0.31301   0.56269   0.00000  Uiso   1.00
H26    H     0.84028   0.39444   0.29661   0.00000  Uiso   1.00
H27    H     0.80552   0.08054   0.47745   0.00000  Uiso   1.00
H28    H     0.96823   0.34442   0.67469   0.00000  Uiso   1.00
H29    H     0.83905   0.51612   0.11365   0.00000  Uiso   1.00
H30    H     0.76574   0.85419   0.49498   0.00000  Uiso   1.00
H31    H     0.93766   0.00986   0.26171   0.00000  Uiso   1.00
H32    H     0.99245   0.05346   0.37389   0.00000  Uiso   1.00
H33    H     0.93119   0.13490   0.10781   0.00000  Uiso   1.00
H34    H     0.89643   0.82100   0.28865   0.00000  Uiso   1.00
H35    H     0.04202   0.13377   0.52146   0.00000  Uiso   1.00
H36    H     0.91283   0.30546   0.96041   0.00000  Uiso   1.00
H37    H     0.83953   0.64353   0.34174   0.00000  Uiso   1.00
O38    O     0.03962   0.27225   0.67508   0.00000  Uiso   1.00
O39    O     0.87012   0.49749   0.93902   0.00000  Uiso   1.00
O40    O     0.77395   0.62906   0.43931   0.00000  Uiso   1.00
N41    N     0.97808   0.28884   0.62325   0.00000  Uiso   1.00
N42    N     0.85730   0.44938   0.09871   0.00000  Uiso   1.00
N43    N     0.78876   0.83054   0.45519   0.00000  Uiso   1.00
N44    N     0.01778   0.17549   0.54079   0.00000  Uiso   1.00
N45    N     0.89700   0.33602   0.01625   0.00000  Uiso   1.00
N46    N     0.82846   0.71718   0.37274   0.00000  Uiso   1.00
C47    C     0.37122   0.69953   0.39969   0.00000  Uiso   1.00
C48    C     0.41037   0.69643   0.44116   0.00000  Uiso   1.00
C49    C     0.42118   0.75697   0.52195   0.00000  Uiso   1.00
C50    C     0.45828   0.74254   0.54824   0.00000  Uiso   1.00
C51    C     0.51522   0.74879   0.62062   0.00000  Uiso   1.00
C52    C     0.37709   0.74069   0.29659   0.00000  Uiso   1.00
C53    C     0.35991   0.83844   0.25583   0.00000  Uiso   1.00
C54    C     0.36899   0.86125   0.16043   0.00000  Uiso   1.00
C55    C     0.37424   0.93616   0.00835   0.00000  Uiso   1.00
C56    C     0.35821   0.57014   0.39485   0.00000  Uiso   1.00
C57    C     0.32514   0.52448   0.43669   0.00000  Uiso   1.00
C58    C     0.31832   0.40371   0.42399   0.00000  Uiso   1.00
C59    C     0.29424   0.21381   0.42448   0.00000  Uiso   1.00
C60    C     0.41792   0.56623   0.30272   0.00000  Uiso   1.00
C61    C     0.43573   0.62403   0.38848   0.00000  Uiso   1.00
C62    C     0.47283   0.60949   0.41466   0.00000  Uiso   1.00
C63    C     0.48369   0.67000   0.49548   0.00000  Uiso   1.00
C64    C     0.40245   0.66829   0.24392   0.00000  Uiso   1.00
C65    C     0.41156   0.69096   0.14855   0.00000  Uiso   1.00
C66    C     0.39440   0.78872   0.10766   0.00000  Uiso   1.00
C67    C     0.38357   0.49773   0.34218   0.00000  Uiso   1.00
C68    C     0.37680   0.37700   0.32941   0.00000  Uiso   1.00
C69    C     0.34372   0.33117   0.37123   0.00000  Uiso   1.00
H70    H     0.35148   0.75590   0.44069   0.00000  Uiso   1.00
H71    H     0.40154   0.81301   0.56269   0.00000  Uiso   1.00
H72    H     0.34028   0.89444   0.29661   0.00000  Uiso   1.00
H73    H     0.30552   0.58054   0.47745   0.00000  Uiso   1.00
H74    H     0.46823   0.84442   0.67469   0.00000  Uiso   1.00
H75    H     0.33905   0.01612   0.11365   0.00000  Uiso   1.00
H76    H     0.26574   0.35419   0.49498   0.00000  Uiso   1.00
H77    H     0.43766   0.50986   0.26171   0.00000  Uiso   1.00
H78    H     0.49245   0.55346   0.37389   0.00000  Uiso   1.00
H79    H     0.43119   0.63490   0.10781   0.00000  Uiso   1.00
H80    H     0.39643   0.32100   0.28865   0.00000  Uiso   1.00
H81    H     0.54202   0.63377   0.52146   0.00000  Uiso   1.00
H82    H     0.41283   0.80546   0.96041   0.00000  Uiso   1.00
H83    H     0.33953   0.14353   0.34174   0.00000  Uiso   1.00
O84    O     0.53962   0.77225   0.67508   0.00000  Uiso   1.00
O85    O     0.37012   0.99749   0.93902   0.00000  Uiso   1.00
O86    O     0.27395   0.12906   0.43931   0.00000  Uiso   1.00
N87    N     0.47808   0.78884   0.62325   0.00000  Uiso   1.00
N88    N     0.35730   0.94938   0.09871   0.00000  Uiso   1.00
N89    N     0.28876   0.33054   0.45519   0.00000  Uiso   1.00
N90    N     0.51778   0.67549   0.54079   0.00000  Uiso   1.00
N91    N     0.39700   0.83602   0.01625   0.00000  Uiso   1.00
N92    N     0.32846   0.21718   0.37274   0.00000  Uiso   1.00
C93    C     0.12878   0.19953   0.10031   0.00000  Uiso   1.00
C94    C     0.08963   0.19643   0.05884   0.00000  Uiso   1.00
C95    C     0.07882   0.25697   0.97805   0.00000  Uiso   1.00
C96    C     0.04172   0.24254   0.95176   0.00000  Uiso   1.00
C97    C     0.98478   0.24879   0.87938   0.00000  Uiso   1.00
C98    C     0.12291   0.24069   0.20341   0.00000  Uiso   1.00
C99    C     0.14009   0.33844   0.24417   0.00000  Uiso   1.00
C100   C     0.13101   0.36125   0.33957   0.00000  Uiso   1.00
C101   C     0.12576   0.43616   0.49165   0.00000  Uiso   1.00
C102   C     0.14179   0.07014   0.10515   0.00000  Uiso   1.00
C103   C     0.17486   0.02448   0.06331   0.00000  Uiso   1.00
C104   C     0.18168   0.90371   0.07601   0.00000  Uiso   1.00
C105   C     0.20576   0.71381   0.07552   0.00000  Uiso   1.00
C106   C     0.08208   0.06623   0.19728   0.00000  Uiso   1.00
C107   C     0.06427   0.12403   0.11152   0.00000  Uiso   1.00
C108   C     0.02717   0.10949   0.08534   0.00000  Uiso   1.00
C109   C     0.01631   0.17000   0.00452   0.00000  Uiso   1.00
C110   C     0.09755   0.16829   0.25608   0.00000  Uiso   1.00
C111   C     0.08844   0.19096   0.35145   0.00000  Uiso   1.00
C112   C     0.10560   0.28872   0.39234   0.00000  Uiso   1.00
C113   C     0.11643   0.99773   0.15782   0.00000  Uiso   1.00
C114   C     0.12320   0.87700   0.17059   0.00000  Uiso   1.00
C115   C     0.15628   0.83117   0.12877   0.00000  Uiso   1.00
H116   H     0.14852   0.25590   0.05931   0.00000  Uiso   1.00
H117   H     0.09846   0.31301   0.93731   0.00000  Uiso   1.00
H118   H     0.15972   0.39444   0.20339   0.00000  Uiso   1.00
H119   H     0.19448   0.08054   0.02255   0.00000  Uiso   1.00
H120   H     0.03177   0.34442   0.82531   0.00000  Uiso   1.00
H121   H     0.16095   0.51612   0.38635   0.00000  Uiso   1.00
H122   H     0.23426   0.85419   0.00502   0.00000  Uiso   1.00
H123   H     0.06234   0.00986   0.23829   0.00000  Uiso   1.00
H124   H     0.00755   0.05346   0.12611   0.00000  Uiso   1.00
H125   H     0.06881   0.13490   0.39219   0.00000  Uiso   1.00
H126   H     0.10357   0.82100   0.21135   0.00000  Uiso   1.00
H127   H     0.95798   0.13377   0.97854   0.00000  Uiso   1.00
H128   H     0.08717   0.30546   0.53959   0.00000  Uiso   1.00
H129   H     0.16047   0.64353   0.15826   0.00000  Uiso   1.00
O130   O     0.96038   0.27225   0.82492   0.00000  Uiso   1.00
O131   O     0.12988   0.49749   0.56098   0.00000  Uiso   1.00
O132   O     0.22605   0.62906   0.06069   0.00000  Uiso   1.00
N133   N     0.02192   0.28884   0.87675   0.00000  Uiso   1.00
N134   N     0.14270   0.44938   0.40129   0.00000  Uiso   1.00
N135   N     0.21124   0.83054   0.04481   0.00000  Uiso   1.00
N136   N     0.98222   0.17549   0.95921   0.00000  Uiso   1.00
N137   N     0.10300   0.33602   0.48375   0.00000  Uiso   1.00
N138   N     0.17154   0.71718   0.12726   0.00000  Uiso   1.00
C139   C     0.62878   0.69953   0.10031   0.00000  Uiso   1.00
C140   C     0.58963   0.69643   0.05884   0.00000  Uiso   1.00
C141   C     0.57882   0.75697   0.97805   0.00000  Uiso   1.00
C142   C     0.54172   0.74254   0.95176   0.00000  Uiso   1.00
C143   C     0.48478   0.74879   0.87938   0.00000  Uiso   1.00
C144   C     0.62291   0.74069   0.20341   0.00000  Uiso   1.00
C145   C     0.64009   0.83844   0.24417   0.00000  Uiso   1.00
C146   C     0.63101   0.86125   0.33957   0.00000  Uiso   1.00
C147   C     0.62576   0.93616   0.49165   0.00000  Uiso   1.00
C148   C     0.64179   0.57014   0.10515   0.00000  Uiso   1.00
C149   C     0.67486   0.52448   0.06331   0.00000  Uiso   1.00
C150   C     0.68168   0.40371   0.07601   0.00000  Uiso   1.00
C151   C     0.70576   0.21381   0.07552   0.00000  Uiso   1.00
C152   C     0.58208   0.56623   0.19728   0.00000  Uiso   1.00
C153   C     0.56427   0.62403   0.11152   0.00000  Uiso   1.00
C154   C     0.52717   0.60949   0.08534   0.00000  Uiso   1.00
C155   C     0.51631   0.67000   0.00452   0.00000  Uiso   1.00
C156   C     0.59755   0.66829   0.25608   0.00000  Uiso   1.00
C157   C     0.58844   0.69096   0.35145   0.00000  Uiso   1.00
C158   C     0.60560   0.78872   0.39234   0.00000  Uiso   1.00
C159   C     0.61643   0.49773   0.15782   0.00000  Uiso   1.00
C160   C     0.62320   0.37700   0.17059   0.00000  Uiso   1.00
C161   C     0.65628   0.33117   0.12877   0.00000  Uiso   1.00
H162   H     0.64852   0.75590   0.05931   0.00000  Uiso   1.00
H163   H     0.59846   0.81301   0.93731   0.00000  Uiso   1.00
H164   H     0.65972   0.89444   0.20339   0.00000  Uiso   1.00
H165   H     0.69448   0.58054   0.02255   0.00000  Uiso   1.00
H166   H     0.53177   0.84442   0.82531   0.00000  Uiso   1.00
H167   H     0.66095   0.01612   0.38635   0.00000  Uiso   1.00
H168   H     0.73426   0.35419   0.00502   0.00000  Uiso   1.00
H169   H     0.56234   0.50986   0.23829   0.00000  Uiso   1.00
H170   H     0.50755   0.55346   0.12611   0.00000  Uiso   1.00
H171   H     0.56881   0.63490   0.39219   0.00000  Uiso   1.00
H172   H     0.60357   0.32100   0.21135   0.00000  Uiso   1.00
H173   H     0.45798   0.63377   0.97854   0.00000  Uiso   1.00
H174   H     0.58717   0.80546   0.53959   0.00000  Uiso   1.00
H175   H     0.66047   0.14353   0.15826   0.00000  Uiso   1.00
O176   O     0.46038   0.77225   0.82492   0.00000  Uiso   1.00
O177   O     0.62988   0.99749   0.56098   0.00000  Uiso   1.00
O178   O     0.72605   0.12906   0.06069   0.00000  Uiso   1.00
N179   N     0.52192   0.78884   0.87675   0.00000  Uiso   1.00
N180   N     0.64270   0.94938   0.40129   0.00000  Uiso   1.00
N181   N     0.71124   0.33054   0.04481   0.00000  Uiso   1.00
N182   N     0.48222   0.67549   0.95921   0.00000  Uiso   1.00
N183   N     0.60300   0.83602   0.48375   0.00000  Uiso   1.00
N184   N     0.67154   0.21718   0.12726   0.00000  Uiso   1.00
C185   C     0.12878   0.80047   0.60031   0.00000  Uiso   1.00
C186   C     0.08963   0.80357   0.55884   0.00000  Uiso   1.00
C187   C     0.07882   0.74303   0.47805   0.00000  Uiso   1.00
C188   C     0.04172   0.75746   0.45176   0.00000  Uiso   1.00
C189   C     0.98478   0.75121   0.37938   0.00000  Uiso   1.00
C190   C     0.12291   0.75931   0.70341   0.00000  Uiso   1.00
C191   C     0.14009   0.66156   0.74417   0.00000  Uiso   1.00
C192   C     0.13101   0.63875   0.83957   0.00000  Uiso   1.00
C193   C     0.12576   0.56384   0.99165   0.00000  Uiso   1.00
C194   C     0.14179   0.92986   0.60515   0.00000  Uiso   1.00
C195   C     0.17486   0.97552   0.56331   0.00000  Uiso   1.00
C196   C     0.18168   0.09629   0.57601   0.00000  Uiso   1.00
C197   C     0.20576   0.28619   0.57552   0.00000  Uiso   1.00
C198   C     0.08208   0.93377   0.69728   0.00000  Uiso   1.00
C199   C     0.06427   0.87597   0.61152   0.00000  Uiso   1.00
C200   C     0.02717   0.89051   0.58534   0.00000  Uiso   1.00
C201   C     0.01631   0.83000   0.50452   0.00000  Uiso   1.00
C202   C     0.09755   0.83171   0.75608   0.00000  Uiso   1.00
C203   C     0.08844   0.80904   0.85145   0.00000  Uiso   1.00
C204   C     0.10560   0.71128   0.89234   0.00000  Uiso   1.00
C205   C     0.11643   0.00227   0.65782   0.00000  Uiso   1.00
C206   C     0.12320   0.12300   0.67059   0.00000  Uiso   1.00
C207   C     0.15628   0.16883   0.62877   0.00000  Uiso   1.00
H208   H     0.14852   0.74410   0.55931   0.00000  Uiso   1.00
H209   H     0.09846   0.68699   0.43731   0.00000  Uiso   1.00
H210   H     0.15972   0.60556   0.70339   0.00000  Uiso   1.00
H211   H     0.19448   0.91946   0.52255   0.00000  Uiso   1.00
H212   H     0.03177   0.65558   0.32531   0.00000  Uiso   1.00
H213   H     0.16095   0.48388   0.88635   0.00000  Uiso   1.00
H214   H     0.23426   0.14581   0.50502   0.00000  Uiso   1.00
H215   H     0.06234   0.99014   0.73829   0.00000  Uiso   1.00
H216   H     0.00755   0.94654   0.62611   0.00000  Uiso   1.00
H217   H     0.06881   0.86510   0.89219   0.00000  Uiso   1.00
H218   H     0.10357   0.17900   0.71135   0.00000  Uiso   1.00
H219   H     0.95798   0.86623   0.47854   0.00000  Uiso   1.00
H220   H     0.08717   0.69454   0.03959   0.00000  Uiso   1.00
H221   H     0.16047   0.35647   0.65826   0.00000  Uiso   1.00
O222   O     0.96038   0.72775   0.32492   0.00000  Uiso   1.00
O223   O     0.12988   0.50251   0.06098   0.00000  Uiso   1.00
O224   O     0.22605   0.37094   0.56069   0.00000  Uiso   1.00
N225   N     0.02192   0.71116   0.37675   0.00000  Uiso   1.00
N226   N     0.14270   0.55062   0.90129   0.00000  Uiso   1.00
N227   N     0.21124   0.16946   0.54481   0.00000  Uiso   1.00
N228   N     0.98222   0.82451   0.45921   0.00000  Uiso   1.00
N229   N     0.10300   0.66398   0.98375   0.00000  Uiso   1.00
N230   N     0.17154   0.28282   0.62726   0.00000  Uiso   1.00
C231   C     0.62878   0.30047   0.60031   0.00000  Uiso   1.00
C232   C     0.58963   0.30357   0.55884   0.00000  Uiso   1.00
C233   C     0.57882   0.24303   0.47805   0.00000  Uiso   1.00
C234   C     0.54172   0.25746   0.45176   0.00000  Uiso   1.00
C235   C     0.48478   0.25121   0.37938   0.00000  Uiso   1.00
C236   C     0.62291   0.25931   0.70341   0.00000  Uiso   1.00
C237   C     0.64009   0.16156   0.74417   0.00000  Uiso   1.00
C238   C     0.63101   0.13875   0.83957   0.00000  Uiso   1.00
C239   C     0.62576   0.06384   0.99165   0.00000  Uiso   1.00
C240   C     0.64179   0.42986   0.60515   0.00000  Uiso   1.00
C241   C     0.67486   0.47552   0.56331   0.00000  Uiso   1.00
C242   C     0.68168   0.59629   0.57601   0.00000  Uiso   1.00
C243   C     0.70576   0.78619   0.57552   0.00000  Uiso   1.00
C244   C     0.58208   0.43377   0.69728   0.00000  Uiso   1.00
C245   C     0.56427   0.37597   0.61152   0.00000  Uiso   1.00
C246   C     0.52717   0.39051   0.58534   0.00000  Uiso   1.00
C247   C     0.51631   0.33000   0.50452   0.00000  Uiso   1.00
C248   C     0.59755   0.33171   0.75608   0.00000  Uiso   1.00
C249   C     0.58844   0.30904   0.85145   0.00000  Uiso   1.00
C250   C     0.60560   0.21128   0.89234   0.00000  Uiso   1.00
C251   C     0.61643   0.50227   0.65782   0.00000  Uiso   1.00
C252   C     0.62320   0.62300   0.67059   0.00000  Uiso   1.00
C253   C     0.65628   0.66883   0.62877   0.00000  Uiso   1.00
H254   H     0.64852   0.24410   0.55931   0.00000  Uiso   1.00
H255   H     0.59846   0.18699   0.43731   0.00000  Uiso   1.00
H256   H     0.65972   0.10556   0.70339   0.00000  Uiso   1.00
H257   H     0.69448   0.41946   0.52255   0.00000  Uiso   1.00
H258   H     0.53177   0.15558   0.32531   0.00000  Uiso   1.00
H259   H     0.66095   0.98388   0.88635   0.00000  Uiso   1.00
H260   H     0.73426   0.64581   0.50502   0.00000  Uiso   1.00
H261   H     0.56234   0.49014   0.73829   0.00000  Uiso   1.00
H262   H     0.50755   0.44654   0.62611   0.00000  Uiso   1.00
H263   H     0.56881   0.36510   0.89219   0.00000  Uiso   1.00
H264   H     0.60357   0.67900   0.71135   0.00000  Uiso   1.00
H265   H     0.45798   0.36623   0.47854   0.00000  Uiso   1.00
H266   H     0.58717   0.19454   0.03959   0.00000  Uiso   1.00
H267   H     0.66047   0.85647   0.65826   0.00000  Uiso   1.00
O268   O     0.46038   0.22775   0.32492   0.00000  Uiso   1.00
O269   O     0.62988   0.00251   0.06098   0.00000  Uiso   1.00
O270   O     0.72605   0.87094   0.56069   0.00000  Uiso   1.00
N271   N     0.52192   0.21116   0.37675   0.00000  Uiso   1.00
N272   N     0.64270   0.05062   0.90129   0.00000  Uiso   1.00
N273   N     0.71124   0.66946   0.54481   0.00000  Uiso   1.00
N274   N     0.48222   0.32451   0.45921   0.00000  Uiso   1.00
N275   N     0.60300   0.16398   0.98375   0.00000  Uiso   1.00
N276   N     0.67154   0.78282   0.62726   0.00000  Uiso   1.00
C277   C     0.87122   0.80047   0.89969   0.00000  Uiso   1.00
C278   C     0.91037   0.80357   0.94116   0.00000  Uiso   1.00
C279   C     0.92118   0.74303   0.02195   0.00000  Uiso   1.00
C280   C     0.95828   0.75746   0.04824   0.00000  Uiso   1.00
C281   C     0.01522   0.75121   0.12062   0.00000  Uiso   1.00
C282   C     0.87709   0.75931   0.79659   0.00000  Uiso   1.00
C283   C     0.85991   0.66156   0.75583   0.00000  Uiso   1.00
C284   C     0.86899   0.63875   0.66043   0.00000  Uiso   1.00
C285   C     0.87424   0.56384   0.50835   0.00000  Uiso   1.00
C286   C     0.85821   0.92986   0.89485   0.00000  Uiso   1.00
C287   C     0.82514   0.97552   0.93669   0.00000  Uiso   1.00
C288   C     0.81832   0.09629   0.92399   0.00000  Uiso   1.00
C289   C     0.79424   0.28619   0.92448   0.00000  Uiso   1.00
C290   C     0.91792   0.93377   0.80272   0.00000  Uiso   1.00
C291   C     0.93573   0.87597   0.88848   0.00000  Uiso   1.00
C292   C     0.97283   0.89051   0.91466   0.00000  Uiso   1.00
C293   C     0.98369   0.83000   0.99548   0.00000  Uiso   1.00
C294   C     0.90245   0.83171   0.74392   0.00000  Uiso   1.00
C295   C     0.91156   0.80904   0.64855   0.00000  Uiso   1.00
C296   C     0.89440   0.71128   0.60766   0.00000  Uiso   1.00
C297   C     0.88357   0.00227   0.84218   0.00000  Uiso   1.00
C298   C     0.87680   0.12300   0.82941   0.00000  Uiso   1.00
C299   C     0.84372   0.16883   0.87123   0.00000  Uiso   1.00
H300   H     0.85148   0.74410   0.94069   0.00000  Uiso   1.00
H301   H     0.90154   0.68699   0.06269   0.00000  Uiso   1.00
H302   H     0.84028   0.60556   0.79661   0.00000  Uiso   1.00
H303   H     0.80552   0.91946   0.97745   0.00000  Uiso   1.00
H304   H     0.96823   0.65558   0.17469   0.00000  Uiso   1.00
H305   H     0.83905   0.48388   0.61365   0.00000  Uiso   1.00
H306   H     0.76574   0.14581   0.99498   0.00000  Uiso   1.00
H307   H     0.93766   0.99014   0.76171   0.00000  Uiso   1.00
H308   H     0.99245   0.94654   0.87389   0.00000  Uiso   1.00
H309   H     0.93119   0.86510   0.60781   0.00000  Uiso   1.00
H310   H     0.89643   0.17900   0.78865   0.00000  Uiso   1.00
H311   H     0.04202   0.86623   0.02146   0.00000  Uiso   1.00
H312   H     0.91283   0.69454   0.46041   0.00000  Uiso   1.00
H313   H     0.83953   0.35647   0.84174   0.00000  Uiso   1.00
O314   O     0.03962   0.72775   0.17508   0.00000  Uiso   1.00
O315   O     0.87012   0.50251   0.43902   0.00000  Uiso   1.00
O316   O     0.77395   0.37094   0.93931   0.00000  Uiso   1.00
N317   N     0.97808   0.71116   0.12325   0.00000  Uiso   1.00
N318   N     0.85730   0.55062   0.59871   0.00000  Uiso   1.00
N319   N     0.78876   0.16946   0.95519   0.00000  Uiso   1.00
N320   N     0.01778   0.82451   0.04079   0.00000  Uiso   1.00
N321   N     0.89700   0.66398   0.51625   0.00000  Uiso   1.00
N322   N     0.82846   0.28282   0.87274   0.00000  Uiso   1.00
C323   C     0.37122   0.30047   0.89969   0.00000  Uiso   1.00
C324   C     0.41037   0.30357   0.94116   0.00000  Uiso   1.00
C325   C     0.42118   0.24303   0.02195   0.00000  Uiso   1.00
C326   C     0.45828   0.25746   0.04824   0.00000  Uiso   1.00
C327   C     0.51522   0.25121   0.12062   0.00000  Uiso   1.00
C328   C     0.37709   0.25931   0.79659   0.00000  Uiso   1.00
C329   C     0.35991   0.16156   0.75583   0.00000  Uiso   1.00
C330   C     0.36899   0.13875   0.66043   0.00000  Uiso   1.00
C331   C     0.37424   0.06384   0.50835   0.00000  Uiso   1.00
C332   C     0.35821   0.42986   0.89485   0.00000  Uiso   1.00
C333   C     0.32514   0.47552   0.93669   0.00000  Uiso   1.00
C334   C     0.31832   0.59629   0.92399   0.00000  Uiso   1.00
C335   C     0.29424   0.78619   0.92448   0.00000  Uiso   1.00
C336   C     0.41792   0.43377   0.80272   0.00000  Uiso   1.00
C337   C     0.43573   0.37597   0.88848   0.00000  Uiso   1.00
C338   C     0.47283   0.39051   0.91466   0.00000  Uiso   1.00
C339   C     0.48369   0.33000   0.99548   0.00000  Uiso   1.00
C340   C     0.40245   0.33171   0.74392   0.00000  Uiso   1.00
C341   C     0.41156   0.30904   0.64855   0.00000  Uiso   1.00
C342   C     0.39440   0.21128   0.60766   0.00000  Uiso   1.00
C343   C     0.38357   0.50227   0.84218   0.00000  Uiso   1.00
C344   C     0.37680   0.62300   0.82941   0.00000  Uiso   1.00
C345   C     0.34372   0.66883   0.87123   0.00000  Uiso   1.00
H346   H     0.35148   0.24410   0.94069   0.00000  Uiso   1.00
H347   H     0.40154   0.18699   0.06269   0.00000  Uiso   1.00
H348   H     0.34028   0.10556   0.79661   0.00000  Uiso   1.00
H349   H     0.30552   0.41946   0.97745   0.00000  Uiso   1.00
H350   H     0.46823   0.15558   0.17469   0.00000  Uiso   1.00
H351   H     0.33905   0.98388   0.61365   0.00000  Uiso   1.00
H352   H     0.26574   0.64581   0.99498   0.00000  Uiso   1.00
H353   H     0.43766   0.49014   0.76171   0.00000  Uiso   1.00
H354   H     0.49245   0.44654   0.87389   0.00000  Uiso   1.00
H355   H     0.43119   0.36510   0.60781   0.00000  Uiso   1.00
H356   H     0.39643   0.67900   0.78865   0.00000  Uiso   1.00
H357   H     0.54202   0.36623   0.02146   0.00000  Uiso   1.00
H358   H     0.41283   0.19454   0.46041   0.00000  Uiso   1.00
H359   H     0.33953   0.85647   0.84174   0.00000  Uiso   1.00
O360   O     0.53962   0.22775   0.17508   0.00000  Uiso   1.00
O361   O     0.37012   0.00251   0.43902   0.00000  Uiso   1.00
O362   O     0.27395   0.87094   0.93931   0.00000  Uiso   1.00
N363   N     0.47808   0.21116   0.12325   0.00000  Uiso   1.00
N364   N     0.35730   0.05062   0.59871   0.00000  Uiso   1.00
N365   N     0.28876   0.66946   0.95519   0.00000  Uiso   1.00
N366   N     0.51778   0.32451   0.04079   0.00000  Uiso   1.00
N367   N     0.39700   0.16398   0.51625   0.00000  Uiso   1.00
N368   N     0.32846   0.78282   0.87274   0.00000  Uiso   1.00
