data_job_05140
_audit_creation_date              2018-12-19
_audit_creation_method            'Materials Studio'
_symmetry_space_group_name_H-M    'P1'
_symmetry_Int_Tables_number       1
_symmetry_cell_setting            triclinic
loop_
_symmetry_equiv_pos_as_xyz
  x,y,z
_cell_length_a                    9.4202
_cell_length_b                    22.3351
_cell_length_c                    23.5866
_cell_angle_alpha                 90.0000
_cell_angle_beta                  90.0000
_cell_angle_gamma                 90.0000
loop_
_atom_site_label
_atom_site_type_symbol
_atom_site_fract_x
_atom_site_fract_y
_atom_site_fract_z
_atom_site_U_iso_or_equiv
_atom_site_adp_type
_atom_site_occupancy
C1     C     0.69285   0.41363   0.93802   0.00000  Uiso   1.00
C2     C     0.78497   0.45928   0.90708   0.00000  Uiso   1.00
C3     C     0.80120   0.51899   0.92198   0.00000  Uiso   1.00
C4     C     0.89021   0.55343   0.88825   0.00000  Uiso   1.00
C5     C     0.02252   0.62804   0.84732   0.00000  Uiso   1.00
C6     C     0.59078   0.38862   0.89378   0.00000  Uiso   1.00
C7     C     0.44375   0.38891   0.89752   0.00000  Uiso   1.00
C8     C     0.36930   0.36385   0.85260   0.00000  Uiso   1.00
C9     C     0.20014   0.32872   0.79105   0.00000  Uiso   1.00
C10    C     0.79132   0.36213   0.95399   0.00000  Uiso   1.00
C11    C     0.81289   0.34015   0.00834   0.00000  Uiso   1.00
C12    C     0.90725   0.29278   0.01411   0.00000  Uiso   1.00
C13    C     0.04946   0.21653   0.04603   0.00000  Uiso   1.00
C14    C     0.82205   0.36860   0.85161   0.00000  Uiso   1.00
C15    C     0.85514   0.43482   0.86014   0.00000  Uiso   1.00
C16    C     0.94416   0.46917   0.82637   0.00000  Uiso   1.00
C17    C     0.96052   0.52893   0.84123   0.00000  Uiso   1.00
C18    C     0.66096   0.36416   0.84684   0.00000  Uiso   1.00
C19    C     0.58670   0.33909   0.80191   0.00000  Uiso   1.00
C20    C     0.43960   0.33935   0.80557   0.00000  Uiso   1.00
C21    C     0.86151   0.33767   0.90705   0.00000  Uiso   1.00
C22    C     0.95584   0.29033   0.91273   0.00000  Uiso   1.00
C23    C     0.97755   0.26828   0.96708   0.00000  Uiso   1.00
H24    H     0.63820   0.43267   0.97456   0.00000  Uiso   1.00
H25    H     0.74686   0.53791   0.95831   0.00000  Uiso   1.00
H26    H     0.38948   0.40784   0.93385   0.00000  Uiso   1.00
H27    H     0.75856   0.35909   0.04465   0.00000  Uiso   1.00
H28    H     0.89824   0.64380   0.91958   0.00000  Uiso   1.00
H29    H     0.14467   0.36953   0.86801   0.00000  Uiso   1.00
H30    H     0.92295   0.26672   0.10166   0.00000  Uiso   1.00
H31    H     0.87669   0.34955   0.81506   0.00000  Uiso   1.00
H32    H     0.99845   0.45023   0.79005   0.00000  Uiso   1.00
H33    H     0.64105   0.32016   0.76559   0.00000  Uiso   1.00
H34    H     0.01013   0.27141   0.87640   0.00000  Uiso   1.00
H35    H     0.10243   0.57264   0.78301   0.00000  Uiso   1.00
H36    H     0.34885   0.29836   0.73145   0.00000  Uiso   1.00
H37    H     0.12714   0.19556   0.96510   0.00000  Uiso   1.00
O38    O     0.07609   0.67595   0.83771   0.00000  Uiso   1.00
O39    O     0.08744   0.31611   0.77006   0.00000  Uiso   1.00
O40    O     0.10852   0.18123   0.07661   0.00000  Uiso   1.00
N41    N     0.92961   0.61323   0.89087   0.00000  Uiso   1.00
N42    N     0.22507   0.35681   0.84266   0.00000  Uiso   1.00
N43    N     0.95266   0.26068   0.06110   0.00000  Uiso   1.00
N44    N     0.03949   0.57494   0.81739   0.00000  Uiso   1.00
N45    N     0.33494   0.31852   0.76917   0.00000  Uiso   1.00
N46    N     0.06253   0.22239   0.98762   0.00000  Uiso   1.00
C47    C     0.80715   0.08637   0.93802   0.00000  Uiso   1.00
C48    C     0.71503   0.04072   0.90708   0.00000  Uiso   1.00
C49    C     0.69880   0.98101   0.92198   0.00000  Uiso   1.00
C50    C     0.60979   0.94657   0.88825   0.00000  Uiso   1.00
C51    C     0.47748   0.87196   0.84732   0.00000  Uiso   1.00
C52    C     0.90922   0.11138   0.89378   0.00000  Uiso   1.00
C53    C     0.05625   0.11109   0.89752   0.00000  Uiso   1.00
C54    C     0.13070   0.13615   0.85260   0.00000  Uiso   1.00
C55    C     0.29986   0.17128   0.79105   0.00000  Uiso   1.00
C56    C     0.70868   0.13787   0.95399   0.00000  Uiso   1.00
C57    C     0.68711   0.15985   0.00834   0.00000  Uiso   1.00
C58    C     0.59275   0.20722   0.01411   0.00000  Uiso   1.00
C59    C     0.45054   0.28347   0.04603   0.00000  Uiso   1.00
C60    C     0.67795   0.13140   0.85161   0.00000  Uiso   1.00
C61    C     0.64486   0.06518   0.86014   0.00000  Uiso   1.00
C62    C     0.55584   0.03083   0.82637   0.00000  Uiso   1.00
C63    C     0.53948   0.97107   0.84123   0.00000  Uiso   1.00
C64    C     0.83904   0.13584   0.84684   0.00000  Uiso   1.00
C65    C     0.91330   0.16091   0.80191   0.00000  Uiso   1.00
C66    C     0.06040   0.16065   0.80557   0.00000  Uiso   1.00
C67    C     0.63849   0.16233   0.90705   0.00000  Uiso   1.00
C68    C     0.54416   0.20967   0.91273   0.00000  Uiso   1.00
C69    C     0.52245   0.23172   0.96708   0.00000  Uiso   1.00
H70    H     0.86180   0.06733   0.97456   0.00000  Uiso   1.00
H71    H     0.75314   0.96209   0.95831   0.00000  Uiso   1.00
H72    H     0.11052   0.09216   0.93385   0.00000  Uiso   1.00
H73    H     0.74144   0.14091   0.04465   0.00000  Uiso   1.00
H74    H     0.60176   0.85620   0.91958   0.00000  Uiso   1.00
H75    H     0.35533   0.13047   0.86801   0.00000  Uiso   1.00
H76    H     0.57705   0.23328   0.10166   0.00000  Uiso   1.00
H77    H     0.62331   0.15045   0.81506   0.00000  Uiso   1.00
H78    H     0.50155   0.04977   0.79005   0.00000  Uiso   1.00
H79    H     0.85895   0.17984   0.76559   0.00000  Uiso   1.00
H80    H     0.48987   0.22859   0.87640   0.00000  Uiso   1.00
H81    H     0.39757   0.92736   0.78301   0.00000  Uiso   1.00
H82    H     0.15115   0.20164   0.73145   0.00000  Uiso   1.00
H83    H     0.37286   0.30444   0.96510   0.00000  Uiso   1.00
O84    O     0.42391   0.82405   0.83771   0.00000  Uiso   1.00
O85    O     0.41256   0.18389   0.77006   0.00000  Uiso   1.00
O86    O     0.39148   0.31877   0.07661   0.00000  Uiso   1.00
N87    N     0.57039   0.88677   0.89087   0.00000  Uiso   1.00
N88    N     0.27493   0.14319   0.84266   0.00000  Uiso   1.00
N89    N     0.54734   0.23932   0.06110   0.00000  Uiso   1.00
N90    N     0.46051   0.92506   0.81739   0.00000  Uiso   1.00
N91    N     0.16506   0.18148   0.76917   0.00000  Uiso   1.00
N92    N     0.43747   0.27761   0.98762   0.00000  Uiso   1.00
C93    C     0.30715   0.91363   0.56198   0.00000  Uiso   1.00
C94    C     0.21503   0.95928   0.59292   0.00000  Uiso   1.00
C95    C     0.19880   0.01899   0.57802   0.00000  Uiso   1.00
C96    C     0.10979   0.05343   0.61175   0.00000  Uiso   1.00
C97    C     0.97748   0.12804   0.65268   0.00000  Uiso   1.00
C98    C     0.40922   0.88862   0.60622   0.00000  Uiso   1.00
C99    C     0.55625   0.88891   0.60248   0.00000  Uiso   1.00
C100   C     0.63070   0.86385   0.64740   0.00000  Uiso   1.00
C101   C     0.79986   0.82872   0.70895   0.00000  Uiso   1.00
C102   C     0.20868   0.86213   0.54601   0.00000  Uiso   1.00
C103   C     0.18711   0.84015   0.49166   0.00000  Uiso   1.00
C104   C     0.09275   0.79278   0.48589   0.00000  Uiso   1.00
C105   C     0.95054   0.71653   0.45397   0.00000  Uiso   1.00
C106   C     0.17795   0.86860   0.64839   0.00000  Uiso   1.00
C107   C     0.14486   0.93482   0.63986   0.00000  Uiso   1.00
C108   C     0.05584   0.96917   0.67363   0.00000  Uiso   1.00
C109   C     0.03948   0.02893   0.65877   0.00000  Uiso   1.00
C110   C     0.33904   0.86416   0.65316   0.00000  Uiso   1.00
C111   C     0.41330   0.83909   0.69809   0.00000  Uiso   1.00
C112   C     0.56040   0.83935   0.69443   0.00000  Uiso   1.00
C113   C     0.13849   0.83767   0.59295   0.00000  Uiso   1.00
C114   C     0.04416   0.79033   0.58727   0.00000  Uiso   1.00
C115   C     0.02245   0.76828   0.53292   0.00000  Uiso   1.00
H116   H     0.36180   0.93267   0.52544   0.00000  Uiso   1.00
H117   H     0.25314   0.03791   0.54169   0.00000  Uiso   1.00
H118   H     0.61052   0.90784   0.56615   0.00000  Uiso   1.00
H119   H     0.24144   0.85909   0.45535   0.00000  Uiso   1.00
H120   H     0.10176   0.14380   0.58042   0.00000  Uiso   1.00
H121   H     0.85533   0.86953   0.63199   0.00000  Uiso   1.00
H122   H     0.07705   0.76672   0.39834   0.00000  Uiso   1.00
H123   H     0.12331   0.84955   0.68494   0.00000  Uiso   1.00
H124   H     0.00155   0.95023   0.70995   0.00000  Uiso   1.00
H125   H     0.35895   0.82016   0.73441   0.00000  Uiso   1.00
H126   H     0.98987   0.77141   0.62360   0.00000  Uiso   1.00
H127   H     0.89757   0.07264   0.71699   0.00000  Uiso   1.00
H128   H     0.65115   0.79836   0.76855   0.00000  Uiso   1.00
H129   H     0.87286   0.69556   0.53490   0.00000  Uiso   1.00
O130   O     0.92391   0.17595   0.66229   0.00000  Uiso   1.00
O131   O     0.91256   0.81611   0.72994   0.00000  Uiso   1.00
O132   O     0.89148   0.68123   0.42339   0.00000  Uiso   1.00
N133   N     0.07039   0.11323   0.60913   0.00000  Uiso   1.00
N134   N     0.77493   0.85681   0.65734   0.00000  Uiso   1.00
N135   N     0.04734   0.76068   0.43890   0.00000  Uiso   1.00
N136   N     0.96051   0.07494   0.68261   0.00000  Uiso   1.00
N137   N     0.66506   0.81852   0.73083   0.00000  Uiso   1.00
N138   N     0.93747   0.72239   0.51238   0.00000  Uiso   1.00
C139   C     0.19285   0.58637   0.56198   0.00000  Uiso   1.00
C140   C     0.28497   0.54072   0.59292   0.00000  Uiso   1.00
C141   C     0.30120   0.48101   0.57802   0.00000  Uiso   1.00
C142   C     0.39021   0.44657   0.61175   0.00000  Uiso   1.00
C143   C     0.52252   0.37196   0.65268   0.00000  Uiso   1.00
C144   C     0.09078   0.61138   0.60622   0.00000  Uiso   1.00
C145   C     0.94375   0.61109   0.60248   0.00000  Uiso   1.00
C146   C     0.86930   0.63615   0.64740   0.00000  Uiso   1.00
C147   C     0.70014   0.67128   0.70895   0.00000  Uiso   1.00
C148   C     0.29132   0.63787   0.54601   0.00000  Uiso   1.00
C149   C     0.31289   0.65985   0.49166   0.00000  Uiso   1.00
C150   C     0.40725   0.70722   0.48589   0.00000  Uiso   1.00
C151   C     0.54946   0.78347   0.45397   0.00000  Uiso   1.00
C152   C     0.32205   0.63140   0.64839   0.00000  Uiso   1.00
C153   C     0.35514   0.56518   0.63986   0.00000  Uiso   1.00
C154   C     0.44416   0.53083   0.67363   0.00000  Uiso   1.00
C155   C     0.46052   0.47107   0.65877   0.00000  Uiso   1.00
C156   C     0.16096   0.63584   0.65316   0.00000  Uiso   1.00
C157   C     0.08670   0.66091   0.69809   0.00000  Uiso   1.00
C158   C     0.93960   0.66065   0.69443   0.00000  Uiso   1.00
C159   C     0.36151   0.66233   0.59295   0.00000  Uiso   1.00
C160   C     0.45584   0.70967   0.58727   0.00000  Uiso   1.00
C161   C     0.47755   0.73172   0.53292   0.00000  Uiso   1.00
H162   H     0.13820   0.56733   0.52544   0.00000  Uiso   1.00
H163   H     0.24686   0.46209   0.54169   0.00000  Uiso   1.00
H164   H     0.88948   0.59216   0.56615   0.00000  Uiso   1.00
H165   H     0.25856   0.64091   0.45535   0.00000  Uiso   1.00
H166   H     0.39824   0.35620   0.58042   0.00000  Uiso   1.00
H167   H     0.64467   0.63047   0.63199   0.00000  Uiso   1.00
H168   H     0.42295   0.73328   0.39834   0.00000  Uiso   1.00
H169   H     0.37669   0.65045   0.68494   0.00000  Uiso   1.00
H170   H     0.49845   0.54977   0.70995   0.00000  Uiso   1.00
H171   H     0.14105   0.67984   0.73441   0.00000  Uiso   1.00
H172   H     0.51013   0.72859   0.62360   0.00000  Uiso   1.00
H173   H     0.60243   0.42736   0.71699   0.00000  Uiso   1.00
H174   H     0.84885   0.70164   0.76855   0.00000  Uiso   1.00
H175   H     0.62714   0.80444   0.53490   0.00000  Uiso   1.00
O176   O     0.57609   0.32405   0.66229   0.00000  Uiso   1.00
O177   O     0.58744   0.68389   0.72994   0.00000  Uiso   1.00
O178   O     0.60852   0.81877   0.42339   0.00000  Uiso   1.00
N179   N     0.42961   0.38677   0.60913   0.00000  Uiso   1.00
N180   N     0.72507   0.64319   0.65734   0.00000  Uiso   1.00
N181   N     0.45266   0.73932   0.43890   0.00000  Uiso   1.00
N182   N     0.53949   0.42506   0.68261   0.00000  Uiso   1.00
N183   N     0.83494   0.68148   0.73083   0.00000  Uiso   1.00
N184   N     0.56253   0.77761   0.51238   0.00000  Uiso   1.00
C185   C     0.30715   0.58637   0.06198   0.00000  Uiso   1.00
C186   C     0.21503   0.54072   0.09292   0.00000  Uiso   1.00
C187   C     0.19880   0.48101   0.07802   0.00000  Uiso   1.00
C188   C     0.10979   0.44657   0.11175   0.00000  Uiso   1.00
C189   C     0.97748   0.37196   0.15268   0.00000  Uiso   1.00
C190   C     0.40922   0.61138   0.10622   0.00000  Uiso   1.00
C191   C     0.55625   0.61109   0.10248   0.00000  Uiso   1.00
C192   C     0.63070   0.63615   0.14740   0.00000  Uiso   1.00
C193   C     0.79986   0.67128   0.20895   0.00000  Uiso   1.00
C194   C     0.20868   0.63787   0.04601   0.00000  Uiso   1.00
C195   C     0.18711   0.65985   0.99166   0.00000  Uiso   1.00
C196   C     0.09275   0.70722   0.98589   0.00000  Uiso   1.00
C197   C     0.95054   0.78347   0.95397   0.00000  Uiso   1.00
C198   C     0.17795   0.63140   0.14839   0.00000  Uiso   1.00
C199   C     0.14486   0.56518   0.13986   0.00000  Uiso   1.00
C200   C     0.05584   0.53083   0.17363   0.00000  Uiso   1.00
C201   C     0.03948   0.47107   0.15877   0.00000  Uiso   1.00
C202   C     0.33904   0.63584   0.15316   0.00000  Uiso   1.00
C203   C     0.41330   0.66091   0.19809   0.00000  Uiso   1.00
C204   C     0.56040   0.66065   0.19443   0.00000  Uiso   1.00
C205   C     0.13849   0.66233   0.09295   0.00000  Uiso   1.00
C206   C     0.04416   0.70967   0.08727   0.00000  Uiso   1.00
C207   C     0.02245   0.73172   0.03292   0.00000  Uiso   1.00
H208   H     0.36180   0.56733   0.02544   0.00000  Uiso   1.00
H209   H     0.25314   0.46209   0.04169   0.00000  Uiso   1.00
H210   H     0.61052   0.59216   0.06615   0.00000  Uiso   1.00
H211   H     0.24144   0.64091   0.95535   0.00000  Uiso   1.00
H212   H     0.10176   0.35620   0.08042   0.00000  Uiso   1.00
H213   H     0.85533   0.63047   0.13199   0.00000  Uiso   1.00
H214   H     0.07705   0.73328   0.89834   0.00000  Uiso   1.00
H215   H     0.12331   0.65045   0.18494   0.00000  Uiso   1.00
H216   H     0.00155   0.54977   0.20995   0.00000  Uiso   1.00
H217   H     0.35895   0.67984   0.23441   0.00000  Uiso   1.00
H218   H     0.98987   0.72859   0.12360   0.00000  Uiso   1.00
H219   H     0.89757   0.42736   0.21699   0.00000  Uiso   1.00
H220   H     0.65115   0.70164   0.26855   0.00000  Uiso   1.00
H221   H     0.87286   0.80444   0.03490   0.00000  Uiso   1.00
O222   O     0.92391   0.32405   0.16229   0.00000  Uiso   1.00
O223   O     0.91256   0.68389   0.22994   0.00000  Uiso   1.00
O224   O     0.89148   0.81877   0.92339   0.00000  Uiso   1.00
N225   N     0.07039   0.38677   0.10913   0.00000  Uiso   1.00
N226   N     0.77493   0.64319   0.15734   0.00000  Uiso   1.00
N227   N     0.04734   0.73932   0.93890   0.00000  Uiso   1.00
N228   N     0.96051   0.42506   0.18261   0.00000  Uiso   1.00
N229   N     0.66506   0.68148   0.23083   0.00000  Uiso   1.00
N230   N     0.93747   0.77761   0.01238   0.00000  Uiso   1.00
C231   C     0.19285   0.91363   0.06198   0.00000  Uiso   1.00
C232   C     0.28497   0.95928   0.09292   0.00000  Uiso   1.00
C233   C     0.30120   0.01899   0.07802   0.00000  Uiso   1.00
C234   C     0.39021   0.05343   0.11175   0.00000  Uiso   1.00
C235   C     0.52252   0.12804   0.15268   0.00000  Uiso   1.00
C236   C     0.09078   0.88862   0.10622   0.00000  Uiso   1.00
C237   C     0.94375   0.88891   0.10248   0.00000  Uiso   1.00
C238   C     0.86930   0.86385   0.14740   0.00000  Uiso   1.00
C239   C     0.70014   0.82872   0.20895   0.00000  Uiso   1.00
C240   C     0.29132   0.86213   0.04601   0.00000  Uiso   1.00
C241   C     0.31289   0.84015   0.99166   0.00000  Uiso   1.00
C242   C     0.40725   0.79278   0.98589   0.00000  Uiso   1.00
C243   C     0.54946   0.71653   0.95397   0.00000  Uiso   1.00
C244   C     0.32205   0.86860   0.14839   0.00000  Uiso   1.00
C245   C     0.35514   0.93482   0.13986   0.00000  Uiso   1.00
C246   C     0.44416   0.96917   0.17363   0.00000  Uiso   1.00
C247   C     0.46052   0.02893   0.15877   0.00000  Uiso   1.00
C248   C     0.16096   0.86416   0.15316   0.00000  Uiso   1.00
C249   C     0.08670   0.83909   0.19809   0.00000  Uiso   1.00
C250   C     0.93960   0.83935   0.19443   0.00000  Uiso   1.00
C251   C     0.36151   0.83767   0.09295   0.00000  Uiso   1.00
C252   C     0.45584   0.79033   0.08727   0.00000  Uiso   1.00
C253   C     0.47755   0.76828   0.03292   0.00000  Uiso   1.00
H254   H     0.13820   0.93267   0.02544   0.00000  Uiso   1.00
H255   H     0.24686   0.03791   0.04169   0.00000  Uiso   1.00
H256   H     0.88948   0.90784   0.06615   0.00000  Uiso   1.00
H257   H     0.25856   0.85909   0.95535   0.00000  Uiso   1.00
H258   H     0.39824   0.14380   0.08042   0.00000  Uiso   1.00
H259   H     0.64467   0.86953   0.13199   0.00000  Uiso   1.00
H260   H     0.42295   0.76672   0.89834   0.00000  Uiso   1.00
H261   H     0.37669   0.84955   0.18494   0.00000  Uiso   1.00
H262   H     0.49845   0.95023   0.20995   0.00000  Uiso   1.00
H263   H     0.14105   0.82016   0.23441   0.00000  Uiso   1.00
H264   H     0.51013   0.77141   0.12360   0.00000  Uiso   1.00
H265   H     0.60243   0.07264   0.21699   0.00000  Uiso   1.00
H266   H     0.84885   0.79836   0.26855   0.00000  Uiso   1.00
H267   H     0.62714   0.69556   0.03490   0.00000  Uiso   1.00
O268   O     0.57609   0.17595   0.16229   0.00000  Uiso   1.00
O269   O     0.58744   0.81611   0.22994   0.00000  Uiso   1.00
O270   O     0.60852   0.68123   0.92339   0.00000  Uiso   1.00
N271   N     0.42961   0.11323   0.10913   0.00000  Uiso   1.00
N272   N     0.72507   0.85681   0.15734   0.00000  Uiso   1.00
N273   N     0.45266   0.76068   0.93890   0.00000  Uiso   1.00
N274   N     0.53949   0.07494   0.18261   0.00000  Uiso   1.00
N275   N     0.83494   0.81852   0.23083   0.00000  Uiso   1.00
N276   N     0.56253   0.72239   0.01238   0.00000  Uiso   1.00
C277   C     0.69285   0.08637   0.43802   0.00000  Uiso   1.00
C278   C     0.78497   0.04072   0.40708   0.00000  Uiso   1.00
C279   C     0.80120   0.98101   0.42198   0.00000  Uiso   1.00
C280   C     0.89021   0.94657   0.38825   0.00000  Uiso   1.00
C281   C     0.02252   0.87196   0.34732   0.00000  Uiso   1.00
C282   C     0.59078   0.11138   0.39378   0.00000  Uiso   1.00
C283   C     0.44375   0.11109   0.39752   0.00000  Uiso   1.00
C284   C     0.36930   0.13615   0.35260   0.00000  Uiso   1.00
C285   C     0.20014   0.17128   0.29105   0.00000  Uiso   1.00
C286   C     0.79132   0.13787   0.45399   0.00000  Uiso   1.00
C287   C     0.81289   0.15985   0.50834   0.00000  Uiso   1.00
C288   C     0.90725   0.20722   0.51411   0.00000  Uiso   1.00
C289   C     0.04946   0.28347   0.54603   0.00000  Uiso   1.00
C290   C     0.82205   0.13140   0.35161   0.00000  Uiso   1.00
C291   C     0.85514   0.06518   0.36014   0.00000  Uiso   1.00
C292   C     0.94416   0.03083   0.32637   0.00000  Uiso   1.00
C293   C     0.96052   0.97107   0.34123   0.00000  Uiso   1.00
C294   C     0.66096   0.13584   0.34684   0.00000  Uiso   1.00
C295   C     0.58670   0.16091   0.30191   0.00000  Uiso   1.00
C296   C     0.43960   0.16065   0.30557   0.00000  Uiso   1.00
C297   C     0.86151   0.16233   0.40705   0.00000  Uiso   1.00
C298   C     0.95584   0.20967   0.41273   0.00000  Uiso   1.00
C299   C     0.97755   0.23172   0.46708   0.00000  Uiso   1.00
H300   H     0.63820   0.06733   0.47456   0.00000  Uiso   1.00
H301   H     0.74686   0.96209   0.45831   0.00000  Uiso   1.00
H302   H     0.38948   0.09216   0.43385   0.00000  Uiso   1.00
H303   H     0.75856   0.14091   0.54465   0.00000  Uiso   1.00
H304   H     0.89824   0.85620   0.41958   0.00000  Uiso   1.00
H305   H     0.14467   0.13047   0.36801   0.00000  Uiso   1.00
H306   H     0.92295   0.23328   0.60166   0.00000  Uiso   1.00
H307   H     0.87669   0.15045   0.31506   0.00000  Uiso   1.00
H308   H     0.99845   0.04977   0.29005   0.00000  Uiso   1.00
H309   H     0.64105   0.17984   0.26559   0.00000  Uiso   1.00
H310   H     0.01013   0.22859   0.37640   0.00000  Uiso   1.00
H311   H     0.10243   0.92736   0.28301   0.00000  Uiso   1.00
H312   H     0.34885   0.20164   0.23145   0.00000  Uiso   1.00
H313   H     0.12714   0.30444   0.46510   0.00000  Uiso   1.00
O314   O     0.07609   0.82405   0.33771   0.00000  Uiso   1.00
O315   O     0.08744   0.18389   0.27006   0.00000  Uiso   1.00
O316   O     0.10852   0.31877   0.57661   0.00000  Uiso   1.00
N317   N     0.92961   0.88677   0.39087   0.00000  Uiso   1.00
N318   N     0.22507   0.14319   0.34266   0.00000  Uiso   1.00
N319   N     0.95266   0.23932   0.56110   0.00000  Uiso   1.00
N320   N     0.03949   0.92506   0.31739   0.00000  Uiso   1.00
N321   N     0.33494   0.18148   0.26917   0.00000  Uiso   1.00
N322   N     0.06253   0.27761   0.48762   0.00000  Uiso   1.00
C323   C     0.80715   0.41363   0.43802   0.00000  Uiso   1.00
C324   C     0.71503   0.45928   0.40708   0.00000  Uiso   1.00
C325   C     0.69880   0.51899   0.42198   0.00000  Uiso   1.00
C326   C     0.60979   0.55343   0.38825   0.00000  Uiso   1.00
C327   C     0.47748   0.62804   0.34732   0.00000  Uiso   1.00
C328   C     0.90922   0.38862   0.39378   0.00000  Uiso   1.00
C329   C     0.05625   0.38891   0.39752   0.00000  Uiso   1.00
C330   C     0.13070   0.36385   0.35260   0.00000  Uiso   1.00
C331   C     0.29986   0.32872   0.29105   0.00000  Uiso   1.00
C332   C     0.70868   0.36213   0.45399   0.00000  Uiso   1.00
C333   C     0.68711   0.34015   0.50834   0.00000  Uiso   1.00
C334   C     0.59275   0.29278   0.51411   0.00000  Uiso   1.00
C335   C     0.45054   0.21653   0.54603   0.00000  Uiso   1.00
C336   C     0.67795   0.36860   0.35161   0.00000  Uiso   1.00
C337   C     0.64486   0.43482   0.36014   0.00000  Uiso   1.00
C338   C     0.55584   0.46917   0.32637   0.00000  Uiso   1.00
C339   C     0.53948   0.52893   0.34123   0.00000  Uiso   1.00
C340   C     0.83904   0.36416   0.34684   0.00000  Uiso   1.00
C341   C     0.91330   0.33909   0.30191   0.00000  Uiso   1.00
C342   C     0.06040   0.33935   0.30557   0.00000  Uiso   1.00
C343   C     0.63849   0.33767   0.40705   0.00000  Uiso   1.00
C344   C     0.54416   0.29033   0.41273   0.00000  Uiso   1.00
C345   C     0.52245   0.26828   0.46708   0.00000  Uiso   1.00
H346   H     0.86180   0.43267   0.47456   0.00000  Uiso   1.00
H347   H     0.75314   0.53791   0.45831   0.00000  Uiso   1.00
H348   H     0.11052   0.40784   0.43385   0.00000  Uiso   1.00
H349   H     0.74144   0.35909   0.54465   0.00000  Uiso   1.00
H350   H     0.60176   0.64380   0.41958   0.00000  Uiso   1.00
H351   H     0.35533   0.36953   0.36801   0.00000  Uiso   1.00
H352   H     0.57705   0.26672   0.60166   0.00000  Uiso   1.00
H353   H     0.62331   0.34955   0.31506   0.00000  Uiso   1.00
H354   H     0.50155   0.45023   0.29005   0.00000  Uiso   1.00
H355   H     0.85895   0.32016   0.26559   0.00000  Uiso   1.00
H356   H     0.48987   0.27141   0.37640   0.00000  Uiso   1.00
H357   H     0.39757   0.57264   0.28301   0.00000  Uiso   1.00
H358   H     0.15115   0.29836   0.23145   0.00000  Uiso   1.00
H359   H     0.37286   0.19556   0.46510   0.00000  Uiso   1.00
O360   O     0.42391   0.67595   0.33771   0.00000  Uiso   1.00
O361   O     0.41256   0.31611   0.27006   0.00000  Uiso   1.00
O362   O     0.39148   0.18123   0.57661   0.00000  Uiso   1.00
N363   N     0.57039   0.61323   0.39087   0.00000  Uiso   1.00
N364   N     0.27493   0.35681   0.34266   0.00000  Uiso   1.00
N365   N     0.54734   0.26068   0.56110   0.00000  Uiso   1.00
N366   N     0.46051   0.57494   0.31739   0.00000  Uiso   1.00
N367   N     0.16506   0.31852   0.26917   0.00000  Uiso   1.00
N368   N     0.43747   0.22239   0.48762   0.00000  Uiso   1.00
