data_job_05091
_audit_creation_date              2018-12-19
_audit_creation_method            'Materials Studio'
_symmetry_space_group_name_H-M    'P1'
_symmetry_Int_Tables_number       1
_symmetry_cell_setting            triclinic
loop_
_symmetry_equiv_pos_as_xyz
  x,y,z
_cell_length_a                    18.1073
_cell_length_b                    13.4419
_cell_length_c                    12.5015
_cell_angle_alpha                 90.0000
_cell_angle_beta                  71.4581
_cell_angle_gamma                 90.0000
loop_
_atom_site_label
_atom_site_type_symbol
_atom_site_fract_x
_atom_site_fract_y
_atom_site_fract_z
_atom_site_U_iso_or_equiv
_atom_site_adp_type
_atom_site_occupancy
C1     C     0.40773   0.89308   0.51707   0.00000  Uiso   1.00
C2     C     0.47353   0.91352   0.56570   0.00000  Uiso   1.00
C3     C     0.48821   0.86038   0.65195   0.00000  Uiso   1.00
C4     C     0.55121   0.89078   0.68440   0.00000  Uiso   1.00
C5     C     0.64627   0.91028   0.76787   0.00000  Uiso   1.00
C6     C     0.36190   0.98990   0.52915   0.00000  Uiso   1.00
C7     C     0.28273   0.00098   0.58465   0.00000  Uiso   1.00
C8     C     0.25178   0.09568   0.58633   0.00000  Uiso   1.00
C9     C     0.17353   0.23375   0.61297   0.00000  Uiso   1.00
C10    C     0.44653   0.87759   0.39075   0.00000  Uiso   1.00
C11    C     0.43850   0.79423   0.32987   0.00000  Uiso   1.00
C12    C     0.47879   0.79438   0.21501   0.00000  Uiso   1.00
C13    C     0.53194   0.75806   0.02677   0.00000  Uiso   1.00
C14    C     0.49352   0.04158   0.42132   0.00000  Uiso   1.00
C15    C     0.52012   0.99418   0.51369   0.00000  Uiso   1.00
C16    C     0.58313   0.02467   0.54602   0.00000  Uiso   1.00
C17    C     0.59790   0.97158   0.63230   0.00000  Uiso   1.00
C18    C     0.40850   0.07056   0.47715   0.00000  Uiso   1.00
C19    C     0.37765   0.16527   0.47873   0.00000  Uiso   1.00
C20    C     0.29846   0.17649   0.53423   0.00000  Uiso   1.00
C21    C     0.49314   0.95824   0.33874   0.00000  Uiso   1.00
C22    C     0.53343   0.95852   0.22395   0.00000  Uiso   1.00
C23    C     0.52547   0.87518   0.16291   0.00000  Uiso   1.00
H24    H     0.37144   0.83029   0.55755   0.00000  Uiso   1.00
H25    H     0.45212   0.79797   0.69218   0.00000  Uiso   1.00
H26    H     0.24669   0.93854   0.62488   0.00000  Uiso   1.00
H27    H     0.40244   0.73183   0.37014   0.00000  Uiso   1.00
H28    H     0.56211   0.79773   0.81853   0.00000  Uiso   1.00
H29    H     0.12892   0.09413   0.67660   0.00000  Uiso   1.00
H30    H     0.45736   0.65823   0.13943   0.00000  Uiso   1.00
H31    H     0.52980   0.10438   0.38083   0.00000  Uiso   1.00
H32    H     0.61918   0.08709   0.50576   0.00000  Uiso   1.00
H33    H     0.41373   0.22767   0.43847   0.00000  Uiso   1.00
H34    H     0.56948   0.02095   0.18373   0.00000  Uiso   1.00
H35    H     0.69769   0.03239   0.66724   0.00000  Uiso   1.00
H36    H     0.26450   0.32880   0.52530   0.00000  Uiso   1.00
H37    H     0.59294   0.89290   0.98814   0.00000  Uiso   1.00
O38    O     0.68582   0.89877   0.82828   0.00000  Uiso   1.00
O39    O     0.11750   0.28763   0.64205   0.00000  Uiso   1.00
O40    O     0.54840   0.71574   0.93731   0.00000  Uiso   1.00
N41    N     0.58176   0.85531   0.76576   0.00000  Uiso   1.00
N42    N     0.17676   0.13244   0.63308   0.00000  Uiso   1.00
N43    N     0.48380   0.72492   0.13087   0.00000  Uiso   1.00
N44    N     0.65472   0.98159   0.68435   0.00000  Uiso   1.00
N45    N     0.24972   0.25871   0.55167   0.00000  Uiso   1.00
N46    N     0.55676   0.85119   0.04946   0.00000  Uiso   1.00
C47    C     0.05882   0.10389   0.95032   0.00000  Uiso   1.00
C48    C     0.99250   0.08397   0.90259   0.00000  Uiso   1.00
C49    C     0.97745   0.13741   0.81682   0.00000  Uiso   1.00
C50    C     0.91399   0.10747   0.78518   0.00000  Uiso   1.00
C51    C     0.81814   0.08876   0.70308   0.00000  Uiso   1.00
C52    C     0.10439   0.00681   0.93759   0.00000  Uiso   1.00
C53    C     0.18341   0.99537   0.88125   0.00000  Uiso   1.00
C54    C     0.21414   0.90048   0.87909   0.00000  Uiso   1.00
C55    C     0.29200   0.76199   0.85139   0.00000  Uiso   1.00
C56    C     0.02069   0.11932   0.07678   0.00000  Uiso   1.00
C57    C     0.02936   0.20248   0.13750   0.00000  Uiso   1.00
C58    C     0.98964   0.20231   0.25254   0.00000  Uiso   1.00
C59    C     0.93755   0.23851   0.44097   0.00000  Uiso   1.00
C60    C     0.97289   0.95570   0.04666   0.00000  Uiso   1.00
C61    C     0.94583   0.00348   0.95492   0.00000  Uiso   1.00
C62    C     0.88238   0.97346   0.92341   0.00000  Uiso   1.00
C63    C     0.86723   0.02684   0.83761   0.00000  Uiso   1.00
C64    C     0.05772   0.92632   0.98991   0.00000  Uiso   1.00
C65    C     0.08834   0.83142   0.98784   0.00000  Uiso   1.00
C66    C     0.16738   0.81985   0.93151   0.00000  Uiso   1.00
C67    C     0.97401   0.03883   0.12912   0.00000  Uiso   1.00
C68    C     0.93428   0.03853   0.24409   0.00000  Uiso   1.00
C69    C     0.94288   0.12167   0.30496   0.00000  Uiso   1.00
H70    H     0.09516   0.16655   0.90957   0.00000  Uiso   1.00
H71    H     0.01359   0.19969   0.77634   0.00000  Uiso   1.00
H72    H     0.21951   0.05768   0.84077   0.00000  Uiso   1.00
H73    H     0.06548   0.26475   0.09698   0.00000  Uiso   1.00
H74    H     0.90258   0.20091   0.65167   0.00000  Uiso   1.00
H75    H     0.33680   0.90148   0.78756   0.00000  Uiso   1.00
H76    H     0.01199   0.33814   0.32782   0.00000  Uiso   1.00
H77    H     0.93655   0.89303   0.08740   0.00000  Uiso   1.00
H78    H     0.84627   0.91116   0.96392   0.00000  Uiso   1.00
H79    H     0.05220   0.76915   0.02835   0.00000  Uiso   1.00
H80    H     0.89817   0.97623   0.28455   0.00000  Uiso   1.00
H81    H     0.76678   0.96673   0.80391   0.00000  Uiso   1.00
H82    H     0.20100   0.66730   0.93981   0.00000  Uiso   1.00
H83    H     0.87619   0.10396   0.48007   0.00000  Uiso   1.00
O84    O     0.77817   0.10067   0.64332   0.00000  Uiso   1.00
O85    O     0.34784   0.70783   0.82164   0.00000  Uiso   1.00
O86    O     0.92170   0.28072   0.53044   0.00000  Uiso   1.00
N87    N     0.88300   0.14332   0.70446   0.00000  Uiso   1.00
N88    N     0.28896   0.86337   0.83150   0.00000  Uiso   1.00
N89    N     0.98532   0.27160   0.33660   0.00000  Uiso   1.00
N90    N     0.80993   0.01731   0.78638   0.00000  Uiso   1.00
N91    N     0.21589   0.73736   0.91342   0.00000  Uiso   1.00
N92    N     0.91224   0.14559   0.41852   0.00000  Uiso   1.00
C93    C     0.59227   0.39308   0.48293   0.00000  Uiso   1.00
C94    C     0.52647   0.41352   0.43430   0.00000  Uiso   1.00
C95    C     0.51179   0.36038   0.34805   0.00000  Uiso   1.00
C96    C     0.44879   0.39078   0.31560   0.00000  Uiso   1.00
C97    C     0.35373   0.41028   0.23213   0.00000  Uiso   1.00
C98    C     0.63810   0.48990   0.47085   0.00000  Uiso   1.00
C99    C     0.71727   0.50098   0.41535   0.00000  Uiso   1.00
C100   C     0.74822   0.59568   0.41367   0.00000  Uiso   1.00
C101   C     0.82647   0.73375   0.38703   0.00000  Uiso   1.00
C102   C     0.55347   0.37759   0.60925   0.00000  Uiso   1.00
C103   C     0.56150   0.29423   0.67013   0.00000  Uiso   1.00
C104   C     0.52121   0.29438   0.78499   0.00000  Uiso   1.00
C105   C     0.46806   0.25806   0.97323   0.00000  Uiso   1.00
C106   C     0.50648   0.54158   0.57868   0.00000  Uiso   1.00
C107   C     0.47988   0.49418   0.48631   0.00000  Uiso   1.00
C108   C     0.41687   0.52467   0.45398   0.00000  Uiso   1.00
C109   C     0.40210   0.47158   0.36770   0.00000  Uiso   1.00
C110   C     0.59150   0.57056   0.52285   0.00000  Uiso   1.00
C111   C     0.62235   0.66527   0.52127   0.00000  Uiso   1.00
C112   C     0.70154   0.67649   0.46577   0.00000  Uiso   1.00
C113   C     0.50686   0.45824   0.66126   0.00000  Uiso   1.00
C114   C     0.46657   0.45852   0.77605   0.00000  Uiso   1.00
C115   C     0.47453   0.37518   0.83709   0.00000  Uiso   1.00
H116   H     0.62856   0.33029   0.44245   0.00000  Uiso   1.00
H117   H     0.54788   0.29797   0.30782   0.00000  Uiso   1.00
H118   H     0.75331   0.43854   0.37512   0.00000  Uiso   1.00
H119   H     0.59756   0.23183   0.62986   0.00000  Uiso   1.00
H120   H     0.43789   0.29773   0.18147   0.00000  Uiso   1.00
H121   H     0.87108   0.59413   0.32340   0.00000  Uiso   1.00
H122   H     0.54264   0.15823   0.86057   0.00000  Uiso   1.00
H123   H     0.47020   0.60438   0.61917   0.00000  Uiso   1.00
H124   H     0.38082   0.58709   0.49424   0.00000  Uiso   1.00
H125   H     0.58627   0.72767   0.56153   0.00000  Uiso   1.00
H126   H     0.43052   0.52095   0.81627   0.00000  Uiso   1.00
H127   H     0.30231   0.53239   0.33276   0.00000  Uiso   1.00
H128   H     0.73550   0.82880   0.47470   0.00000  Uiso   1.00
H129   H     0.40706   0.39290   0.01186   0.00000  Uiso   1.00
O130   O     0.31418   0.39877   0.17172   0.00000  Uiso   1.00
O131   O     0.88250   0.78763   0.35795   0.00000  Uiso   1.00
O132   O     0.45160   0.21574   0.06269   0.00000  Uiso   1.00
N133   N     0.41824   0.35531   0.23424   0.00000  Uiso   1.00
N134   N     0.82324   0.63244   0.36692   0.00000  Uiso   1.00
N135   N     0.51620   0.22492   0.86913   0.00000  Uiso   1.00
N136   N     0.34528   0.48159   0.31565   0.00000  Uiso   1.00
N137   N     0.75028   0.75871   0.44833   0.00000  Uiso   1.00
N138   N     0.44324   0.35119   0.95054   0.00000  Uiso   1.00
C139   C     0.94118   0.60389   0.04968   0.00000  Uiso   1.00
C140   C     0.00750   0.58397   0.09741   0.00000  Uiso   1.00
C141   C     0.02255   0.63741   0.18318   0.00000  Uiso   1.00
C142   C     0.08601   0.60747   0.21482   0.00000  Uiso   1.00
C143   C     0.18186   0.58876   0.29692   0.00000  Uiso   1.00
C144   C     0.89561   0.50681   0.06241   0.00000  Uiso   1.00
C145   C     0.81659   0.49537   0.11875   0.00000  Uiso   1.00
C146   C     0.78586   0.40048   0.12091   0.00000  Uiso   1.00
C147   C     0.70800   0.26199   0.14861   0.00000  Uiso   1.00
C148   C     0.97931   0.61932   0.92322   0.00000  Uiso   1.00
C149   C     0.97064   0.70248   0.86250   0.00000  Uiso   1.00
C150   C     0.01036   0.70231   0.74746   0.00000  Uiso   1.00
C151   C     0.06245   0.73851   0.55903   0.00000  Uiso   1.00
C152   C     0.02711   0.45570   0.95334   0.00000  Uiso   1.00
C153   C     0.05417   0.50348   0.04508   0.00000  Uiso   1.00
C154   C     0.11762   0.47346   0.07659   0.00000  Uiso   1.00
C155   C     0.13277   0.52684   0.16239   0.00000  Uiso   1.00
C156   C     0.94228   0.42632   0.01009   0.00000  Uiso   1.00
C157   C     0.91166   0.33142   0.01216   0.00000  Uiso   1.00
C158   C     0.83262   0.31985   0.06849   0.00000  Uiso   1.00
C159   C     0.02599   0.53883   0.87088   0.00000  Uiso   1.00
C160   C     0.06572   0.53853   0.75591   0.00000  Uiso   1.00
C161   C     0.05712   0.62167   0.69504   0.00000  Uiso   1.00
H162   H     0.90484   0.66655   0.09043   0.00000  Uiso   1.00
H163   H     0.98641   0.69969   0.22366   0.00000  Uiso   1.00
H164   H     0.78049   0.55768   0.15923   0.00000  Uiso   1.00
H165   H     0.93452   0.76475   0.90302   0.00000  Uiso   1.00
H166   H     0.09742   0.70091   0.34833   0.00000  Uiso   1.00
H167   H     0.66320   0.40148   0.21244   0.00000  Uiso   1.00
H168   H     0.98801   0.83814   0.67218   0.00000  Uiso   1.00
H169   H     0.06345   0.39303   0.91260   0.00000  Uiso   1.00
H170   H     0.15373   0.41116   0.03608   0.00000  Uiso   1.00
H171   H     0.94780   0.26915   0.97165   0.00000  Uiso   1.00
H172   H     0.10183   0.47623   0.71545   0.00000  Uiso   1.00
H173   H     0.23322   0.46673   0.19609   0.00000  Uiso   1.00
H174   H     0.79900   0.16730   0.06019   0.00000  Uiso   1.00
H175   H     0.12381   0.60396   0.51993   0.00000  Uiso   1.00
O176   O     0.22183   0.60067   0.35668   0.00000  Uiso   1.00
O177   O     0.65216   0.20783   0.17836   0.00000  Uiso   1.00
O178   O     0.07830   0.78072   0.46956   0.00000  Uiso   1.00
N179   N     0.11700   0.64332   0.29554   0.00000  Uiso   1.00
N180   N     0.71104   0.36337   0.16850   0.00000  Uiso   1.00
N181   N     0.01468   0.77160   0.66340   0.00000  Uiso   1.00
N182   N     0.19007   0.51731   0.21362   0.00000  Uiso   1.00
N183   N     0.78411   0.23736   0.08658   0.00000  Uiso   1.00
N184   N     0.08776   0.64559   0.58148   0.00000  Uiso   1.00
