data_job_00900
_audit_creation_date              2018-12-19
_audit_creation_method            'Materials Studio'
_symmetry_space_group_name_H-M    'P1'
_symmetry_Int_Tables_number       1
_symmetry_cell_setting            triclinic
loop_
_symmetry_equiv_pos_as_xyz
  x,y,z
_cell_length_a                    27.3993
_cell_length_b                    14.2040
_cell_length_c                    23.9246
_cell_angle_alpha                 90.0000
_cell_angle_beta                  125.7700
_cell_angle_gamma                 90.0000
loop_
_atom_site_label
_atom_site_type_symbol
_atom_site_fract_x
_atom_site_fract_y
_atom_site_fract_z
_atom_site_U_iso_or_equiv
_atom_site_adp_type
_atom_site_occupancy
C1     C     0.69927   0.71376   0.81606   0.00000  Uiso   1.00
C2     C     0.67133   0.67136   0.84984   0.00000  Uiso   1.00
C3     C     0.64790   0.72168   0.87885   0.00000  Uiso   1.00
C4     C     0.62437   0.66987   0.90719   0.00000  Uiso   1.00
C5     C     0.58101   0.61904   0.95977   0.00000  Uiso   1.00
C6     C     0.76238   0.67226   0.85412   0.00000  Uiso   1.00
C7     C     0.81550   0.72335   0.88672   0.00000  Uiso   1.00
C8     C     0.86861   0.67230   0.91865   0.00000  Uiso   1.00
C9     C     0.96661   0.62286   0.97783   0.00000  Uiso   1.00
C10    C     0.66404   0.67326   0.74336   0.00000  Uiso   1.00
C11    C     0.63449   0.72519   0.68282   0.00000  Uiso   1.00
C12    C     0.60482   0.67498   0.62150   0.00000  Uiso   1.00
C13    C     0.55013   0.62711   0.50871   0.00000  Uiso   1.00
C14    C     0.69915   0.53225   0.81478   0.00000  Uiso   1.00
C15    C     0.67126   0.57277   0.84915   0.00000  Uiso   1.00
C16    C     0.64776   0.52087   0.87744   0.00000  Uiso   1.00
C17    C     0.62430   0.57111   0.90649   0.00000  Uiso   1.00
C18    C     0.76231   0.57368   0.85343   0.00000  Uiso   1.00
C19    C     0.81536   0.52253   0.88531   0.00000  Uiso   1.00
C20    C     0.86855   0.57353   0.91795   0.00000  Uiso   1.00
C21    C     0.66397   0.57468   0.74266   0.00000  Uiso   1.00
C22    C     0.63435   0.52438   0.68142   0.00000  Uiso   1.00
C23    C     0.60475   0.57622   0.62081   0.00000  Uiso   1.00
H24    H     0.69933   0.79051   0.81660   0.00000  Uiso   1.00
H25    H     0.64796   0.79798   0.87938   0.00000  Uiso   1.00
H26    H     0.81553   0.79964   0.88724   0.00000  Uiso   1.00
H27    H     0.63455   0.80148   0.68338   0.00000  Uiso   1.00
H28    H     0.59100   0.76278   0.94871   0.00000  Uiso   1.00
H29    H     0.94433   0.76629   0.96526   0.00000  Uiso   1.00
H30    H     0.56269   0.77018   0.53538   0.00000  Uiso   1.00
H31    H     0.69910   0.45549   0.81424   0.00000  Uiso   1.00
H32    H     0.64772   0.44457   0.87690   0.00000  Uiso   1.00
H33    H     0.81529   0.44624   0.88476   0.00000  Uiso   1.00
H34    H     0.63431   0.44808   0.68090   0.00000  Uiso   1.00
H35    H     0.59081   0.47595   0.94669   0.00000  Uiso   1.00
H36    H     0.94414   0.47946   0.96324   0.00000  Uiso   1.00
H37    H     0.56250   0.48334   0.53336   0.00000  Uiso   1.00
O38    O     0.55713   0.61823   0.98898   0.00000  Uiso   1.00
O39    O     0.02068   0.62284   0.01068   0.00000  Uiso   1.00
O40    O     0.51998   0.62793   0.44669   0.00000  Uiso   1.00
N41    N     0.59800   0.69677   0.93962   0.00000  Uiso   1.00
N42    N     0.92834   0.70006   0.95510   0.00000  Uiso   1.00
N43    N     0.57155   0.70369   0.55320   0.00000  Uiso   1.00
N44    N     0.59789   0.54243   0.93854   0.00000  Uiso   1.00
N45    N     0.92824   0.54571   0.95402   0.00000  Uiso   1.00
N46    N     0.57145   0.54934   0.55212   0.00000  Uiso   1.00
C47    C     0.19927   0.21376   0.81606   0.00000  Uiso   1.00
C48    C     0.17133   0.17136   0.84984   0.00000  Uiso   1.00
C49    C     0.14790   0.22168   0.87885   0.00000  Uiso   1.00
C50    C     0.12437   0.16987   0.90719   0.00000  Uiso   1.00
C51    C     0.08101   0.11904   0.95977   0.00000  Uiso   1.00
C52    C     0.26238   0.17226   0.85412   0.00000  Uiso   1.00
C53    C     0.31550   0.22335   0.88672   0.00000  Uiso   1.00
C54    C     0.36861   0.17230   0.91865   0.00000  Uiso   1.00
C55    C     0.46661   0.12286   0.97783   0.00000  Uiso   1.00
C56    C     0.16404   0.17326   0.74336   0.00000  Uiso   1.00
C57    C     0.13449   0.22519   0.68282   0.00000  Uiso   1.00
C58    C     0.10482   0.17498   0.62150   0.00000  Uiso   1.00
C59    C     0.05013   0.12711   0.50871   0.00000  Uiso   1.00
C60    C     0.19915   0.03225   0.81478   0.00000  Uiso   1.00
C61    C     0.17126   0.07277   0.84915   0.00000  Uiso   1.00
C62    C     0.14776   0.02087   0.87744   0.00000  Uiso   1.00
C63    C     0.12430   0.07111   0.90649   0.00000  Uiso   1.00
C64    C     0.26231   0.07368   0.85343   0.00000  Uiso   1.00
C65    C     0.31536   0.02253   0.88531   0.00000  Uiso   1.00
C66    C     0.36855   0.07353   0.91795   0.00000  Uiso   1.00
C67    C     0.16397   0.07468   0.74266   0.00000  Uiso   1.00
C68    C     0.13435   0.02438   0.68142   0.00000  Uiso   1.00
C69    C     0.10475   0.07622   0.62081   0.00000  Uiso   1.00
H70    H     0.19933   0.29051   0.81660   0.00000  Uiso   1.00
H71    H     0.14796   0.29798   0.87938   0.00000  Uiso   1.00
H72    H     0.31553   0.29964   0.88724   0.00000  Uiso   1.00
H73    H     0.13455   0.30148   0.68338   0.00000  Uiso   1.00
H74    H     0.09100   0.26278   0.94871   0.00000  Uiso   1.00
H75    H     0.44433   0.26629   0.96526   0.00000  Uiso   1.00
H76    H     0.06269   0.27018   0.53538   0.00000  Uiso   1.00
H77    H     0.19910   0.95549   0.81424   0.00000  Uiso   1.00
H78    H     0.14772   0.94457   0.87690   0.00000  Uiso   1.00
H79    H     0.31529   0.94624   0.88476   0.00000  Uiso   1.00
H80    H     0.13431   0.94808   0.68090   0.00000  Uiso   1.00
H81    H     0.09081   0.97595   0.94669   0.00000  Uiso   1.00
H82    H     0.44414   0.97946   0.96324   0.00000  Uiso   1.00
H83    H     0.06250   0.98334   0.53336   0.00000  Uiso   1.00
O84    O     0.05713   0.11823   0.98898   0.00000  Uiso   1.00
O85    O     0.52068   0.12284   0.01068   0.00000  Uiso   1.00
O86    O     0.01998   0.12793   0.44669   0.00000  Uiso   1.00
N87    N     0.09800   0.19677   0.93962   0.00000  Uiso   1.00
N88    N     0.42834   0.20006   0.95510   0.00000  Uiso   1.00
N89    N     0.07155   0.20369   0.55320   0.00000  Uiso   1.00
N90    N     0.09789   0.04243   0.93854   0.00000  Uiso   1.00
N91    N     0.42824   0.04571   0.95402   0.00000  Uiso   1.00
N92    N     0.07145   0.04934   0.55212   0.00000  Uiso   1.00
C93    C     0.30073   0.71376   0.68394   0.00000  Uiso   1.00
C94    C     0.32867   0.67136   0.65016   0.00000  Uiso   1.00
C95    C     0.35210   0.72168   0.62115   0.00000  Uiso   1.00
C96    C     0.37563   0.66987   0.59281   0.00000  Uiso   1.00
C97    C     0.41899   0.61904   0.54023   0.00000  Uiso   1.00
C98    C     0.23762   0.67226   0.64588   0.00000  Uiso   1.00
C99    C     0.18450   0.72335   0.61328   0.00000  Uiso   1.00
C100   C     0.13139   0.67230   0.58135   0.00000  Uiso   1.00
C101   C     0.03339   0.62286   0.52217   0.00000  Uiso   1.00
C102   C     0.33596   0.67326   0.75664   0.00000  Uiso   1.00
C103   C     0.36551   0.72519   0.81718   0.00000  Uiso   1.00
C104   C     0.39518   0.67498   0.87850   0.00000  Uiso   1.00
C105   C     0.44987   0.62711   0.99129   0.00000  Uiso   1.00
C106   C     0.30085   0.53225   0.68522   0.00000  Uiso   1.00
C107   C     0.32874   0.57277   0.65085   0.00000  Uiso   1.00
C108   C     0.35224   0.52087   0.62256   0.00000  Uiso   1.00
C109   C     0.37570   0.57111   0.59351   0.00000  Uiso   1.00
C110   C     0.23769   0.57368   0.64657   0.00000  Uiso   1.00
C111   C     0.18464   0.52253   0.61469   0.00000  Uiso   1.00
C112   C     0.13145   0.57353   0.58205   0.00000  Uiso   1.00
C113   C     0.33603   0.57468   0.75734   0.00000  Uiso   1.00
C114   C     0.36565   0.52438   0.81858   0.00000  Uiso   1.00
C115   C     0.39525   0.57622   0.87919   0.00000  Uiso   1.00
H116   H     0.30067   0.79051   0.68340   0.00000  Uiso   1.00
H117   H     0.35204   0.79798   0.62062   0.00000  Uiso   1.00
H118   H     0.18447   0.79964   0.61276   0.00000  Uiso   1.00
H119   H     0.36545   0.80148   0.81662   0.00000  Uiso   1.00
H120   H     0.40900   0.76278   0.55129   0.00000  Uiso   1.00
H121   H     0.05567   0.76629   0.53474   0.00000  Uiso   1.00
H122   H     0.43731   0.77018   0.96462   0.00000  Uiso   1.00
H123   H     0.30090   0.45549   0.68576   0.00000  Uiso   1.00
H124   H     0.35228   0.44457   0.62310   0.00000  Uiso   1.00
H125   H     0.18471   0.44624   0.61524   0.00000  Uiso   1.00
H126   H     0.36569   0.44808   0.81910   0.00000  Uiso   1.00
H127   H     0.40919   0.47595   0.55331   0.00000  Uiso   1.00
H128   H     0.05586   0.47946   0.53676   0.00000  Uiso   1.00
H129   H     0.43750   0.48334   0.96664   0.00000  Uiso   1.00
O130   O     0.44287   0.61823   0.51102   0.00000  Uiso   1.00
O131   O     0.97932   0.62284   0.48932   0.00000  Uiso   1.00
O132   O     0.48002   0.62793   0.05331   0.00000  Uiso   1.00
N133   N     0.40200   0.69677   0.56038   0.00000  Uiso   1.00
N134   N     0.07166   0.70006   0.54490   0.00000  Uiso   1.00
N135   N     0.42845   0.70369   0.94680   0.00000  Uiso   1.00
N136   N     0.40211   0.54243   0.56146   0.00000  Uiso   1.00
N137   N     0.07176   0.54571   0.54598   0.00000  Uiso   1.00
N138   N     0.42855   0.54934   0.94788   0.00000  Uiso   1.00
C139   C     0.80073   0.21376   0.68394   0.00000  Uiso   1.00
C140   C     0.82867   0.17136   0.65016   0.00000  Uiso   1.00
C141   C     0.85210   0.22168   0.62115   0.00000  Uiso   1.00
C142   C     0.87563   0.16987   0.59281   0.00000  Uiso   1.00
C143   C     0.91899   0.11904   0.54023   0.00000  Uiso   1.00
C144   C     0.73762   0.17226   0.64588   0.00000  Uiso   1.00
C145   C     0.68450   0.22335   0.61328   0.00000  Uiso   1.00
C146   C     0.63139   0.17230   0.58135   0.00000  Uiso   1.00
C147   C     0.53339   0.12286   0.52217   0.00000  Uiso   1.00
C148   C     0.83596   0.17326   0.75664   0.00000  Uiso   1.00
C149   C     0.86551   0.22519   0.81718   0.00000  Uiso   1.00
C150   C     0.89518   0.17498   0.87850   0.00000  Uiso   1.00
C151   C     0.94987   0.12711   0.99129   0.00000  Uiso   1.00
C152   C     0.80085   0.03225   0.68522   0.00000  Uiso   1.00
C153   C     0.82874   0.07277   0.65085   0.00000  Uiso   1.00
C154   C     0.85224   0.02087   0.62256   0.00000  Uiso   1.00
C155   C     0.87570   0.07111   0.59351   0.00000  Uiso   1.00
C156   C     0.73769   0.07368   0.64657   0.00000  Uiso   1.00
C157   C     0.68464   0.02253   0.61469   0.00000  Uiso   1.00
C158   C     0.63145   0.07353   0.58205   0.00000  Uiso   1.00
C159   C     0.83603   0.07468   0.75734   0.00000  Uiso   1.00
C160   C     0.86565   0.02438   0.81858   0.00000  Uiso   1.00
C161   C     0.89525   0.07622   0.87919   0.00000  Uiso   1.00
H162   H     0.80067   0.29051   0.68340   0.00000  Uiso   1.00
H163   H     0.85204   0.29798   0.62062   0.00000  Uiso   1.00
H164   H     0.68447   0.29964   0.61276   0.00000  Uiso   1.00
H165   H     0.86545   0.30148   0.81662   0.00000  Uiso   1.00
H166   H     0.90900   0.26278   0.55129   0.00000  Uiso   1.00
H167   H     0.55567   0.26629   0.53474   0.00000  Uiso   1.00
H168   H     0.93731   0.27018   0.96462   0.00000  Uiso   1.00
H169   H     0.80090   0.95549   0.68576   0.00000  Uiso   1.00
H170   H     0.85228   0.94457   0.62310   0.00000  Uiso   1.00
H171   H     0.68471   0.94624   0.61524   0.00000  Uiso   1.00
H172   H     0.86569   0.94808   0.81910   0.00000  Uiso   1.00
H173   H     0.90919   0.97595   0.55331   0.00000  Uiso   1.00
H174   H     0.55586   0.97946   0.53676   0.00000  Uiso   1.00
H175   H     0.93750   0.98334   0.96664   0.00000  Uiso   1.00
O176   O     0.94287   0.11823   0.51102   0.00000  Uiso   1.00
O177   O     0.47932   0.12284   0.48932   0.00000  Uiso   1.00
O178   O     0.98002   0.12793   0.05331   0.00000  Uiso   1.00
N179   N     0.90200   0.19677   0.56038   0.00000  Uiso   1.00
N180   N     0.57166   0.20006   0.54490   0.00000  Uiso   1.00
N181   N     0.92845   0.20369   0.94680   0.00000  Uiso   1.00
N182   N     0.90211   0.04243   0.56146   0.00000  Uiso   1.00
N183   N     0.57176   0.04571   0.54598   0.00000  Uiso   1.00
N184   N     0.92855   0.04934   0.94788   0.00000  Uiso   1.00
C185   C     0.30073   0.28624   0.18394   0.00000  Uiso   1.00
C186   C     0.32867   0.32864   0.15016   0.00000  Uiso   1.00
C187   C     0.35210   0.27832   0.12115   0.00000  Uiso   1.00
C188   C     0.37563   0.33013   0.09281   0.00000  Uiso   1.00
C189   C     0.41899   0.38096   0.04023   0.00000  Uiso   1.00
C190   C     0.23762   0.32774   0.14588   0.00000  Uiso   1.00
C191   C     0.18450   0.27665   0.11328   0.00000  Uiso   1.00
C192   C     0.13139   0.32770   0.08135   0.00000  Uiso   1.00
C193   C     0.03339   0.37714   0.02217   0.00000  Uiso   1.00
C194   C     0.33596   0.32674   0.25664   0.00000  Uiso   1.00
C195   C     0.36551   0.27481   0.31718   0.00000  Uiso   1.00
C196   C     0.39518   0.32502   0.37850   0.00000  Uiso   1.00
C197   C     0.44987   0.37289   0.49129   0.00000  Uiso   1.00
C198   C     0.30085   0.46775   0.18522   0.00000  Uiso   1.00
C199   C     0.32874   0.42723   0.15085   0.00000  Uiso   1.00
C200   C     0.35224   0.47913   0.12256   0.00000  Uiso   1.00
C201   C     0.37570   0.42889   0.09351   0.00000  Uiso   1.00
C202   C     0.23769   0.42632   0.14657   0.00000  Uiso   1.00
C203   C     0.18464   0.47747   0.11469   0.00000  Uiso   1.00
C204   C     0.13145   0.42647   0.08205   0.00000  Uiso   1.00
C205   C     0.33603   0.42532   0.25734   0.00000  Uiso   1.00
C206   C     0.36565   0.47562   0.31858   0.00000  Uiso   1.00
C207   C     0.39525   0.42378   0.37919   0.00000  Uiso   1.00
H208   H     0.30067   0.20949   0.18340   0.00000  Uiso   1.00
H209   H     0.35204   0.20202   0.12062   0.00000  Uiso   1.00
H210   H     0.18447   0.20036   0.11276   0.00000  Uiso   1.00
H211   H     0.36545   0.19852   0.31662   0.00000  Uiso   1.00
H212   H     0.40900   0.23722   0.05129   0.00000  Uiso   1.00
H213   H     0.05567   0.23371   0.03474   0.00000  Uiso   1.00
H214   H     0.43731   0.22982   0.46462   0.00000  Uiso   1.00
H215   H     0.30090   0.54451   0.18576   0.00000  Uiso   1.00
H216   H     0.35228   0.55543   0.12310   0.00000  Uiso   1.00
H217   H     0.18471   0.55376   0.11524   0.00000  Uiso   1.00
H218   H     0.36569   0.55192   0.31910   0.00000  Uiso   1.00
H219   H     0.40919   0.52405   0.05331   0.00000  Uiso   1.00
H220   H     0.05586   0.52054   0.03676   0.00000  Uiso   1.00
H221   H     0.43750   0.51666   0.46664   0.00000  Uiso   1.00
O222   O     0.44287   0.38177   0.01102   0.00000  Uiso   1.00
O223   O     0.97932   0.37716   0.98932   0.00000  Uiso   1.00
O224   O     0.48002   0.37207   0.55331   0.00000  Uiso   1.00
N225   N     0.40200   0.30323   0.06038   0.00000  Uiso   1.00
N226   N     0.07166   0.29994   0.04490   0.00000  Uiso   1.00
N227   N     0.42845   0.29631   0.44680   0.00000  Uiso   1.00
N228   N     0.40211   0.45757   0.06146   0.00000  Uiso   1.00
N229   N     0.07176   0.45429   0.04598   0.00000  Uiso   1.00
N230   N     0.42855   0.45066   0.44788   0.00000  Uiso   1.00
C231   C     0.80073   0.78624   0.18394   0.00000  Uiso   1.00
C232   C     0.82867   0.82864   0.15016   0.00000  Uiso   1.00
C233   C     0.85210   0.77832   0.12115   0.00000  Uiso   1.00
C234   C     0.87563   0.83013   0.09281   0.00000  Uiso   1.00
C235   C     0.91899   0.88096   0.04023   0.00000  Uiso   1.00
C236   C     0.73762   0.82774   0.14588   0.00000  Uiso   1.00
C237   C     0.68450   0.77665   0.11328   0.00000  Uiso   1.00
C238   C     0.63139   0.82770   0.08135   0.00000  Uiso   1.00
C239   C     0.53339   0.87714   0.02217   0.00000  Uiso   1.00
C240   C     0.83596   0.82674   0.25664   0.00000  Uiso   1.00
C241   C     0.86551   0.77481   0.31718   0.00000  Uiso   1.00
C242   C     0.89518   0.82502   0.37850   0.00000  Uiso   1.00
C243   C     0.94987   0.87289   0.49129   0.00000  Uiso   1.00
C244   C     0.80085   0.96775   0.18522   0.00000  Uiso   1.00
C245   C     0.82874   0.92723   0.15085   0.00000  Uiso   1.00
C246   C     0.85224   0.97913   0.12256   0.00000  Uiso   1.00
C247   C     0.87570   0.92889   0.09351   0.00000  Uiso   1.00
C248   C     0.73769   0.92632   0.14657   0.00000  Uiso   1.00
C249   C     0.68464   0.97747   0.11469   0.00000  Uiso   1.00
C250   C     0.63145   0.92647   0.08205   0.00000  Uiso   1.00
C251   C     0.83603   0.92532   0.25734   0.00000  Uiso   1.00
C252   C     0.86565   0.97562   0.31858   0.00000  Uiso   1.00
C253   C     0.89525   0.92378   0.37919   0.00000  Uiso   1.00
H254   H     0.80067   0.70949   0.18340   0.00000  Uiso   1.00
H255   H     0.85204   0.70202   0.12062   0.00000  Uiso   1.00
H256   H     0.68447   0.70036   0.11276   0.00000  Uiso   1.00
H257   H     0.86545   0.69852   0.31662   0.00000  Uiso   1.00
H258   H     0.90900   0.73722   0.05129   0.00000  Uiso   1.00
H259   H     0.55567   0.73371   0.03474   0.00000  Uiso   1.00
H260   H     0.93731   0.72982   0.46462   0.00000  Uiso   1.00
H261   H     0.80090   0.04451   0.18576   0.00000  Uiso   1.00
H262   H     0.85228   0.05543   0.12310   0.00000  Uiso   1.00
H263   H     0.68471   0.05376   0.11524   0.00000  Uiso   1.00
H264   H     0.86569   0.05192   0.31910   0.00000  Uiso   1.00
H265   H     0.90919   0.02405   0.05331   0.00000  Uiso   1.00
H266   H     0.55586   0.02054   0.03676   0.00000  Uiso   1.00
H267   H     0.93750   0.01666   0.46664   0.00000  Uiso   1.00
O268   O     0.94287   0.88177   0.01102   0.00000  Uiso   1.00
O269   O     0.47932   0.87716   0.98932   0.00000  Uiso   1.00
O270   O     0.98002   0.87207   0.55331   0.00000  Uiso   1.00
N271   N     0.90200   0.80323   0.06038   0.00000  Uiso   1.00
N272   N     0.57166   0.79994   0.04490   0.00000  Uiso   1.00
N273   N     0.92845   0.79631   0.44680   0.00000  Uiso   1.00
N274   N     0.90211   0.95757   0.06146   0.00000  Uiso   1.00
N275   N     0.57176   0.95429   0.04598   0.00000  Uiso   1.00
N276   N     0.92855   0.95066   0.44788   0.00000  Uiso   1.00
C277   C     0.69927   0.28624   0.31606   0.00000  Uiso   1.00
C278   C     0.67133   0.32864   0.34984   0.00000  Uiso   1.00
C279   C     0.64790   0.27832   0.37885   0.00000  Uiso   1.00
C280   C     0.62437   0.33013   0.40719   0.00000  Uiso   1.00
C281   C     0.58101   0.38096   0.45977   0.00000  Uiso   1.00
C282   C     0.76238   0.32774   0.35412   0.00000  Uiso   1.00
C283   C     0.81550   0.27665   0.38672   0.00000  Uiso   1.00
C284   C     0.86861   0.32770   0.41865   0.00000  Uiso   1.00
C285   C     0.96661   0.37714   0.47783   0.00000  Uiso   1.00
C286   C     0.66404   0.32674   0.24336   0.00000  Uiso   1.00
C287   C     0.63449   0.27481   0.18282   0.00000  Uiso   1.00
C288   C     0.60482   0.32502   0.12150   0.00000  Uiso   1.00
C289   C     0.55013   0.37289   0.00871   0.00000  Uiso   1.00
C290   C     0.69915   0.46775   0.31478   0.00000  Uiso   1.00
C291   C     0.67126   0.42723   0.34915   0.00000  Uiso   1.00
C292   C     0.64776   0.47913   0.37744   0.00000  Uiso   1.00
C293   C     0.62430   0.42889   0.40649   0.00000  Uiso   1.00
C294   C     0.76231   0.42632   0.35343   0.00000  Uiso   1.00
C295   C     0.81536   0.47747   0.38531   0.00000  Uiso   1.00
C296   C     0.86855   0.42647   0.41795   0.00000  Uiso   1.00
C297   C     0.66397   0.42532   0.24266   0.00000  Uiso   1.00
C298   C     0.63435   0.47562   0.18142   0.00000  Uiso   1.00
C299   C     0.60475   0.42378   0.12081   0.00000  Uiso   1.00
H300   H     0.69933   0.20949   0.31660   0.00000  Uiso   1.00
H301   H     0.64796   0.20202   0.37938   0.00000  Uiso   1.00
H302   H     0.81553   0.20036   0.38724   0.00000  Uiso   1.00
H303   H     0.63455   0.19852   0.18338   0.00000  Uiso   1.00
H304   H     0.59100   0.23722   0.44871   0.00000  Uiso   1.00
H305   H     0.94433   0.23371   0.46526   0.00000  Uiso   1.00
H306   H     0.56269   0.22982   0.03538   0.00000  Uiso   1.00
H307   H     0.69910   0.54451   0.31424   0.00000  Uiso   1.00
H308   H     0.64772   0.55543   0.37690   0.00000  Uiso   1.00
H309   H     0.81529   0.55376   0.38476   0.00000  Uiso   1.00
H310   H     0.63431   0.55192   0.18090   0.00000  Uiso   1.00
H311   H     0.59081   0.52405   0.44669   0.00000  Uiso   1.00
H312   H     0.94414   0.52054   0.46324   0.00000  Uiso   1.00
H313   H     0.56250   0.51666   0.03336   0.00000  Uiso   1.00
O314   O     0.55713   0.38177   0.48898   0.00000  Uiso   1.00
O315   O     0.02068   0.37716   0.51068   0.00000  Uiso   1.00
O316   O     0.51998   0.37207   0.94669   0.00000  Uiso   1.00
N317   N     0.59800   0.30323   0.43962   0.00000  Uiso   1.00
N318   N     0.92834   0.29994   0.45510   0.00000  Uiso   1.00
N319   N     0.57155   0.29631   0.05320   0.00000  Uiso   1.00
N320   N     0.59789   0.45757   0.43854   0.00000  Uiso   1.00
N321   N     0.92824   0.45429   0.45402   0.00000  Uiso   1.00
N322   N     0.57145   0.45066   0.05212   0.00000  Uiso   1.00
C323   C     0.19927   0.78624   0.31606   0.00000  Uiso   1.00
C324   C     0.17133   0.82864   0.34984   0.00000  Uiso   1.00
C325   C     0.14790   0.77832   0.37885   0.00000  Uiso   1.00
C326   C     0.12437   0.83013   0.40719   0.00000  Uiso   1.00
C327   C     0.08101   0.88096   0.45977   0.00000  Uiso   1.00
C328   C     0.26238   0.82774   0.35412   0.00000  Uiso   1.00
C329   C     0.31550   0.77665   0.38672   0.00000  Uiso   1.00
C330   C     0.36861   0.82770   0.41865   0.00000  Uiso   1.00
C331   C     0.46661   0.87714   0.47783   0.00000  Uiso   1.00
C332   C     0.16404   0.82674   0.24336   0.00000  Uiso   1.00
C333   C     0.13449   0.77481   0.18282   0.00000  Uiso   1.00
C334   C     0.10482   0.82502   0.12150   0.00000  Uiso   1.00
C335   C     0.05013   0.87289   0.00871   0.00000  Uiso   1.00
C336   C     0.19915   0.96775   0.31478   0.00000  Uiso   1.00
C337   C     0.17126   0.92723   0.34915   0.00000  Uiso   1.00
C338   C     0.14776   0.97913   0.37744   0.00000  Uiso   1.00
C339   C     0.12430   0.92889   0.40649   0.00000  Uiso   1.00
C340   C     0.26231   0.92632   0.35343   0.00000  Uiso   1.00
C341   C     0.31536   0.97747   0.38531   0.00000  Uiso   1.00
C342   C     0.36855   0.92647   0.41795   0.00000  Uiso   1.00
C343   C     0.16397   0.92532   0.24266   0.00000  Uiso   1.00
C344   C     0.13435   0.97562   0.18142   0.00000  Uiso   1.00
C345   C     0.10475   0.92378   0.12081   0.00000  Uiso   1.00
H346   H     0.19933   0.70949   0.31660   0.00000  Uiso   1.00
H347   H     0.14796   0.70202   0.37938   0.00000  Uiso   1.00
H348   H     0.31553   0.70036   0.38724   0.00000  Uiso   1.00
H349   H     0.13455   0.69852   0.18338   0.00000  Uiso   1.00
H350   H     0.09100   0.73722   0.44871   0.00000  Uiso   1.00
H351   H     0.44433   0.73371   0.46526   0.00000  Uiso   1.00
H352   H     0.06269   0.72982   0.03538   0.00000  Uiso   1.00
H353   H     0.19910   0.04451   0.31424   0.00000  Uiso   1.00
H354   H     0.14772   0.05543   0.37690   0.00000  Uiso   1.00
H355   H     0.31529   0.05376   0.38476   0.00000  Uiso   1.00
H356   H     0.13431   0.05192   0.18090   0.00000  Uiso   1.00
H357   H     0.09081   0.02405   0.44669   0.00000  Uiso   1.00
H358   H     0.44414   0.02054   0.46324   0.00000  Uiso   1.00
H359   H     0.06250   0.01666   0.03336   0.00000  Uiso   1.00
O360   O     0.05713   0.88177   0.48898   0.00000  Uiso   1.00
O361   O     0.52068   0.87716   0.51068   0.00000  Uiso   1.00
O362   O     0.01998   0.87207   0.94669   0.00000  Uiso   1.00
N363   N     0.09800   0.80323   0.43962   0.00000  Uiso   1.00
N364   N     0.42834   0.79994   0.45510   0.00000  Uiso   1.00
N365   N     0.07155   0.79631   0.05320   0.00000  Uiso   1.00
N366   N     0.09789   0.95757   0.43854   0.00000  Uiso   1.00
N367   N     0.42824   0.95429   0.45402   0.00000  Uiso   1.00
N368   N     0.07145   0.95066   0.05212   0.00000  Uiso   1.00
