data_job_01407
_audit_creation_date              2018-12-19
_audit_creation_method            'Materials Studio'
_symmetry_space_group_name_H-M    'P1'
_symmetry_Int_Tables_number       1
_symmetry_cell_setting            triclinic
loop_
_symmetry_equiv_pos_as_xyz
  x,y,z
_cell_length_a                    15.5076
_cell_length_b                    26.1233
_cell_length_c                    10.2107
_cell_angle_alpha                 90.0000
_cell_angle_beta                  143.2186
_cell_angle_gamma                 90.0000
loop_
_atom_site_label
_atom_site_type_symbol
_atom_site_fract_x
_atom_site_fract_y
_atom_site_fract_z
_atom_site_U_iso_or_equiv
_atom_site_adp_type
_atom_site_occupancy
C1     C     0.47373   0.34490   0.03789   0.00000  Uiso   1.00
C2     C     0.52220   0.38873   0.00859   0.00000  Uiso   1.00
C3     C     0.66367   0.40043   0.14866   0.00000  Uiso   1.00
C4     C     0.68560   0.44204   0.09314   0.00000  Uiso   1.00
C5     C     0.77844   0.50572   0.07643   0.00000  Uiso   1.00
C6     C     0.38419   0.36933   0.03748   0.00000  Uiso   1.00
C7     C     0.40962   0.36471   0.20182   0.00000  Uiso   1.00
C8     C     0.31536   0.38999   0.17060   0.00000  Uiso   1.00
C9     C     0.19388   0.42351   0.19866   0.00000  Uiso   1.00
C10    C     0.36908   0.31304   0.82935   0.00000  Uiso   1.00
C11    C     0.38177   0.26110   0.81870   0.00000  Uiso   1.00
C12    C     0.27476   0.23898   0.61224   0.00000  Uiso   1.00
C13    C     0.12981   0.18512   0.31715   0.00000  Uiso   1.00
C14    C     0.26111   0.39799   0.69020   0.00000  Uiso   1.00
C15    C     0.40671   0.41756   0.81974   0.00000  Uiso   1.00
C16    C     0.42843   0.45916   0.76398   0.00000  Uiso   1.00
C17    C     0.56991   0.47093   0.90394   0.00000  Uiso   1.00
C18    C     0.26871   0.39816   0.84863   0.00000  Uiso   1.00
C19    C     0.17438   0.42344   0.81715   0.00000  Uiso   1.00
C20    C     0.19966   0.41887   0.98141   0.00000  Uiso   1.00
C21    C     0.25359   0.34187   0.64049   0.00000  Uiso   1.00
C22    C     0.14654   0.31983   0.43401   0.00000  Uiso   1.00
C23    C     0.15907   0.26787   0.42305   0.00000  Uiso   1.00
H24    H     0.56363   0.32246   0.18492   0.00000  Uiso   1.00
H25    H     0.75302   0.37811   0.29481   0.00000  Uiso   1.00
H26    H     0.49899   0.34239   0.34794   0.00000  Uiso   1.00
H27    H     0.47115   0.23880   0.96487   0.00000  Uiso   1.00
H28    H     0.91205   0.45254   0.33339   0.00000  Uiso   1.00
H29    H     0.37640   0.37721   0.44540   0.00000  Uiso   1.00
H30    H     0.31770   0.15876   0.63763   0.00000  Uiso   1.00
H31    H     0.17119   0.42044   0.54316   0.00000  Uiso   1.00
H32    H     0.33904   0.48147   0.61782   0.00000  Uiso   1.00
H33    H     0.08502   0.44575   0.67097   0.00000  Uiso   1.00
H34    H     0.05718   0.34216   0.28791   0.00000  Uiso   1.00
H35    H     0.57606   0.53643   0.78393   0.00000  Uiso   1.00
H36    H     0.04041   0.46110   0.89595   0.00000  Uiso   1.00
H37    H     0.98170   0.24265   0.08817   0.00000  Uiso   1.00
O38    O     0.86156   0.53288   0.11939   0.00000  Uiso   1.00
O39    O     0.15879   0.43404   0.26633   0.00000  Uiso   1.00
O40    O     0.08178   0.14744   0.20656   0.00000  Uiso   1.00
N41    N     0.80994   0.46390   0.19380   0.00000  Uiso   1.00
N42    N     0.30915   0.39348   0.29855   0.00000  Uiso   1.00
N43    N     0.25425   0.18924   0.54335   0.00000  Uiso   1.00
N44    N     0.62914   0.50904   0.89814   0.00000  Uiso   1.00
N45    N     0.12836   0.43862   0.00289   0.00000  Uiso   1.00
N46    N     0.07345   0.23439   0.24769   0.00000  Uiso   1.00
C47    C     0.97373   0.84490   0.03789   0.00000  Uiso   1.00
C48    C     0.02220   0.88873   0.00859   0.00000  Uiso   1.00
C49    C     0.16367   0.90043   0.14866   0.00000  Uiso   1.00
C50    C     0.18560   0.94204   0.09314   0.00000  Uiso   1.00
C51    C     0.27844   0.00572   0.07643   0.00000  Uiso   1.00
C52    C     0.88419   0.86933   0.03748   0.00000  Uiso   1.00
C53    C     0.90962   0.86471   0.20182   0.00000  Uiso   1.00
C54    C     0.81536   0.88999   0.17060   0.00000  Uiso   1.00
C55    C     0.69388   0.92351   0.19866   0.00000  Uiso   1.00
C56    C     0.86908   0.81304   0.82935   0.00000  Uiso   1.00
C57    C     0.88177   0.76110   0.81870   0.00000  Uiso   1.00
C58    C     0.77476   0.73898   0.61224   0.00000  Uiso   1.00
C59    C     0.62981   0.68512   0.31715   0.00000  Uiso   1.00
C60    C     0.76111   0.89799   0.69020   0.00000  Uiso   1.00
C61    C     0.90671   0.91756   0.81974   0.00000  Uiso   1.00
C62    C     0.92843   0.95916   0.76398   0.00000  Uiso   1.00
C63    C     0.06991   0.97093   0.90394   0.00000  Uiso   1.00
C64    C     0.76871   0.89816   0.84863   0.00000  Uiso   1.00
C65    C     0.67438   0.92344   0.81715   0.00000  Uiso   1.00
C66    C     0.69966   0.91887   0.98141   0.00000  Uiso   1.00
C67    C     0.75359   0.84187   0.64049   0.00000  Uiso   1.00
C68    C     0.64654   0.81983   0.43401   0.00000  Uiso   1.00
C69    C     0.65907   0.76787   0.42305   0.00000  Uiso   1.00
H70    H     0.06363   0.82246   0.18492   0.00000  Uiso   1.00
H71    H     0.25302   0.87811   0.29481   0.00000  Uiso   1.00
H72    H     0.99899   0.84239   0.34794   0.00000  Uiso   1.00
H73    H     0.97115   0.73880   0.96487   0.00000  Uiso   1.00
H74    H     0.41205   0.95254   0.33339   0.00000  Uiso   1.00
H75    H     0.87640   0.87721   0.44540   0.00000  Uiso   1.00
H76    H     0.81770   0.65876   0.63763   0.00000  Uiso   1.00
H77    H     0.67119   0.92044   0.54316   0.00000  Uiso   1.00
H78    H     0.83904   0.98147   0.61782   0.00000  Uiso   1.00
H79    H     0.58502   0.94575   0.67097   0.00000  Uiso   1.00
H80    H     0.55718   0.84216   0.28791   0.00000  Uiso   1.00
H81    H     0.07606   0.03643   0.78393   0.00000  Uiso   1.00
H82    H     0.54041   0.96110   0.89595   0.00000  Uiso   1.00
H83    H     0.48170   0.74265   0.08817   0.00000  Uiso   1.00
O84    O     0.36156   0.03288   0.11939   0.00000  Uiso   1.00
O85    O     0.65879   0.93404   0.26633   0.00000  Uiso   1.00
O86    O     0.58178   0.64744   0.20656   0.00000  Uiso   1.00
N87    N     0.30994   0.96390   0.19380   0.00000  Uiso   1.00
N88    N     0.80915   0.89348   0.29855   0.00000  Uiso   1.00
N89    N     0.75425   0.68924   0.54335   0.00000  Uiso   1.00
N90    N     0.12914   0.00904   0.89814   0.00000  Uiso   1.00
N91    N     0.62836   0.93862   0.00289   0.00000  Uiso   1.00
N92    N     0.57345   0.73439   0.24769   0.00000  Uiso   1.00
C93    C     0.47373   0.65510   0.53789   0.00000  Uiso   1.00
C94    C     0.52220   0.61127   0.50859   0.00000  Uiso   1.00
C95    C     0.66367   0.59957   0.64866   0.00000  Uiso   1.00
C96    C     0.68560   0.55796   0.59314   0.00000  Uiso   1.00
C97    C     0.77844   0.49428   0.57643   0.00000  Uiso   1.00
C98    C     0.38419   0.63067   0.53748   0.00000  Uiso   1.00
C99    C     0.40962   0.63529   0.70182   0.00000  Uiso   1.00
C100   C     0.31536   0.61001   0.67060   0.00000  Uiso   1.00
C101   C     0.19388   0.57649   0.69866   0.00000  Uiso   1.00
C102   C     0.36908   0.68696   0.32935   0.00000  Uiso   1.00
C103   C     0.38177   0.73890   0.31870   0.00000  Uiso   1.00
C104   C     0.27476   0.76102   0.11224   0.00000  Uiso   1.00
C105   C     0.12981   0.81488   0.81715   0.00000  Uiso   1.00
C106   C     0.26111   0.60201   0.19020   0.00000  Uiso   1.00
C107   C     0.40671   0.58244   0.31974   0.00000  Uiso   1.00
C108   C     0.42843   0.54084   0.26398   0.00000  Uiso   1.00
C109   C     0.56991   0.52907   0.40394   0.00000  Uiso   1.00
C110   C     0.26871   0.60184   0.34863   0.00000  Uiso   1.00
C111   C     0.17438   0.57656   0.31715   0.00000  Uiso   1.00
C112   C     0.19966   0.58113   0.48141   0.00000  Uiso   1.00
C113   C     0.25359   0.65813   0.14049   0.00000  Uiso   1.00
C114   C     0.14654   0.68017   0.93401   0.00000  Uiso   1.00
C115   C     0.15907   0.73213   0.92305   0.00000  Uiso   1.00
H116   H     0.56363   0.67754   0.68492   0.00000  Uiso   1.00
H117   H     0.75302   0.62189   0.79481   0.00000  Uiso   1.00
H118   H     0.49899   0.65761   0.84794   0.00000  Uiso   1.00
H119   H     0.47115   0.76120   0.46487   0.00000  Uiso   1.00
H120   H     0.91205   0.54746   0.83339   0.00000  Uiso   1.00
H121   H     0.37640   0.62279   0.94540   0.00000  Uiso   1.00
H122   H     0.31770   0.84124   0.13763   0.00000  Uiso   1.00
H123   H     0.17119   0.57956   0.04316   0.00000  Uiso   1.00
H124   H     0.33904   0.51853   0.11782   0.00000  Uiso   1.00
H125   H     0.08502   0.55425   0.17097   0.00000  Uiso   1.00
H126   H     0.05718   0.65784   0.78791   0.00000  Uiso   1.00
H127   H     0.57606   0.46357   0.28393   0.00000  Uiso   1.00
H128   H     0.04041   0.53890   0.39595   0.00000  Uiso   1.00
H129   H     0.98170   0.75735   0.58817   0.00000  Uiso   1.00
O130   O     0.86156   0.46712   0.61939   0.00000  Uiso   1.00
O131   O     0.15879   0.56596   0.76633   0.00000  Uiso   1.00
O132   O     0.08178   0.85256   0.70656   0.00000  Uiso   1.00
N133   N     0.80994   0.53610   0.69380   0.00000  Uiso   1.00
N134   N     0.30915   0.60652   0.79855   0.00000  Uiso   1.00
N135   N     0.25425   0.81076   0.04335   0.00000  Uiso   1.00
N136   N     0.62914   0.49096   0.39814   0.00000  Uiso   1.00
N137   N     0.12836   0.56138   0.50289   0.00000  Uiso   1.00
N138   N     0.07345   0.76561   0.74769   0.00000  Uiso   1.00
C139   C     0.97373   0.15510   0.53789   0.00000  Uiso   1.00
C140   C     0.02220   0.11127   0.50859   0.00000  Uiso   1.00
C141   C     0.16367   0.09957   0.64866   0.00000  Uiso   1.00
C142   C     0.18560   0.05796   0.59314   0.00000  Uiso   1.00
C143   C     0.27844   0.99428   0.57643   0.00000  Uiso   1.00
C144   C     0.88419   0.13067   0.53748   0.00000  Uiso   1.00
C145   C     0.90962   0.13529   0.70182   0.00000  Uiso   1.00
C146   C     0.81536   0.11001   0.67060   0.00000  Uiso   1.00
C147   C     0.69388   0.07649   0.69866   0.00000  Uiso   1.00
C148   C     0.86908   0.18696   0.32935   0.00000  Uiso   1.00
C149   C     0.88177   0.23890   0.31870   0.00000  Uiso   1.00
C150   C     0.77476   0.26102   0.11224   0.00000  Uiso   1.00
C151   C     0.62981   0.31488   0.81715   0.00000  Uiso   1.00
C152   C     0.76111   0.10201   0.19020   0.00000  Uiso   1.00
C153   C     0.90671   0.08244   0.31974   0.00000  Uiso   1.00
C154   C     0.92843   0.04084   0.26398   0.00000  Uiso   1.00
C155   C     0.06991   0.02907   0.40394   0.00000  Uiso   1.00
C156   C     0.76871   0.10184   0.34863   0.00000  Uiso   1.00
C157   C     0.67438   0.07656   0.31715   0.00000  Uiso   1.00
C158   C     0.69966   0.08113   0.48141   0.00000  Uiso   1.00
C159   C     0.75359   0.15813   0.14049   0.00000  Uiso   1.00
C160   C     0.64654   0.18017   0.93401   0.00000  Uiso   1.00
C161   C     0.65907   0.23213   0.92305   0.00000  Uiso   1.00
H162   H     0.06363   0.17754   0.68492   0.00000  Uiso   1.00
H163   H     0.25302   0.12189   0.79481   0.00000  Uiso   1.00
H164   H     0.99899   0.15761   0.84794   0.00000  Uiso   1.00
H165   H     0.97115   0.26120   0.46487   0.00000  Uiso   1.00
H166   H     0.41205   0.04746   0.83339   0.00000  Uiso   1.00
H167   H     0.87640   0.12279   0.94540   0.00000  Uiso   1.00
H168   H     0.81770   0.34124   0.13763   0.00000  Uiso   1.00
H169   H     0.67119   0.07956   0.04316   0.00000  Uiso   1.00
H170   H     0.83904   0.01853   0.11782   0.00000  Uiso   1.00
H171   H     0.58502   0.05425   0.17097   0.00000  Uiso   1.00
H172   H     0.55718   0.15784   0.78791   0.00000  Uiso   1.00
H173   H     0.07606   0.96357   0.28393   0.00000  Uiso   1.00
H174   H     0.54041   0.03890   0.39595   0.00000  Uiso   1.00
H175   H     0.48170   0.25735   0.58817   0.00000  Uiso   1.00
O176   O     0.36156   0.96712   0.61939   0.00000  Uiso   1.00
O177   O     0.65879   0.06596   0.76633   0.00000  Uiso   1.00
O178   O     0.58178   0.35256   0.70656   0.00000  Uiso   1.00
N179   N     0.30994   0.03610   0.69380   0.00000  Uiso   1.00
N180   N     0.80915   0.10652   0.79855   0.00000  Uiso   1.00
N181   N     0.75425   0.31076   0.04335   0.00000  Uiso   1.00
N182   N     0.12914   0.99096   0.39814   0.00000  Uiso   1.00
N183   N     0.62836   0.06138   0.50289   0.00000  Uiso   1.00
N184   N     0.57345   0.26561   0.74769   0.00000  Uiso   1.00
