data_job_00217
_audit_creation_date              2018-12-19
_audit_creation_method            'Materials Studio'
_symmetry_space_group_name_H-M    'P1'
_symmetry_Int_Tables_number       1
_symmetry_cell_setting            triclinic
loop_
_symmetry_equiv_pos_as_xyz
  x,y,z
_cell_length_a                    12.8353
_cell_length_b                    11.8841
_cell_length_c                    38.3233
_cell_angle_alpha                 90.0000
_cell_angle_beta                  90.0000
_cell_angle_gamma                 90.0000
loop_
_atom_site_label
_atom_site_type_symbol
_atom_site_fract_x
_atom_site_fract_y
_atom_site_fract_z
_atom_site_U_iso_or_equiv
_atom_site_adp_type
_atom_site_occupancy
C1     C     0.39590   0.28042   0.14098   0.00000  Uiso   1.00
C2     C     0.29188   0.22173   0.14718   0.00000  Uiso   1.00
C3     C     0.26011   0.17240   0.17823   0.00000  Uiso   1.00
C4     C     0.16210   0.12297   0.17860   0.00000  Uiso   1.00
C5     C     0.01032   0.03180   0.19272   0.00000  Uiso   1.00
C6     C     0.44579   0.22071   0.10997   0.00000  Uiso   1.00
C7     C     0.54343   0.17055   0.10974   0.00000  Uiso   1.00
C8     C     0.57499   0.12027   0.07879   0.00000  Uiso   1.00
C9     C     0.66218   0.02760   0.03515   0.00000  Uiso   1.00
C10    C     0.36948   0.39876   0.12840   0.00000  Uiso   1.00
C11    C     0.40298   0.49830   0.14366   0.00000  Uiso   1.00
C12    C     0.37031   0.59793   0.12822   0.00000  Uiso   1.00
C13    C     0.33902   0.78169   0.11319   0.00000  Uiso   1.00
C14    C     0.27834   0.28036   0.08642   0.00000  Uiso   1.00
C15    C     0.22803   0.22170   0.11754   0.00000  Uiso   1.00
C16    C     0.13004   0.17234   0.11787   0.00000  Uiso   1.00
C17    C     0.09813   0.12295   0.14891   0.00000  Uiso   1.00
C18    C     0.38194   0.22068   0.08034   0.00000  Uiso   1.00
C19    C     0.41337   0.17048   0.04938   0.00000  Uiso   1.00
C20    C     0.51102   0.12024   0.04911   0.00000  Uiso   1.00
C21    C     0.30562   0.39873   0.09877   0.00000  Uiso   1.00
C22    C     0.27291   0.49823   0.08330   0.00000  Uiso   1.00
C23    C     0.30634   0.59790   0.09853   0.00000  Uiso   1.00
H24    H     0.44562   0.28044   0.16405   0.00000  Uiso   1.00
H25    H     0.30955   0.17244   0.20115   0.00000  Uiso   1.00
H26    H     0.59283   0.17059   0.13268   0.00000  Uiso   1.00
H27    H     0.45239   0.49829   0.16659   0.00000  Uiso   1.00
H28    H     0.13055   0.05264   0.22922   0.00000  Uiso   1.00
H29    H     0.72787   0.04879   0.08483   0.00000  Uiso   1.00
H30    H     0.43174   0.73980   0.15634   0.00000  Uiso   1.00
H31    H     0.22863   0.28033   0.06335   0.00000  Uiso   1.00
H32    H     0.08065   0.17232   0.09493   0.00000  Uiso   1.00
H33    H     0.36393   0.17048   0.02646   0.00000  Uiso   1.00
H34    H     0.22350   0.49817   0.06037   0.00000  Uiso   1.00
H35    H     0.94477   0.05255   0.14301   0.00000  Uiso   1.00
H36    H     0.54210   0.04869   0.99862   0.00000  Uiso   1.00
H37    H     0.24596   0.73970   0.07013   0.00000  Uiso   1.00
O38    O     0.94424   0.98151   0.20870   0.00000  Uiso   1.00
O39    O     0.72792   0.97647   0.01927   0.00000  Uiso   1.00
O40    O     0.33939   0.88306   0.11309   0.00000  Uiso   1.00
N41    N     0.10712   0.06746   0.20459   0.00000  Uiso   1.00
N42    N     0.66558   0.06384   0.06960   0.00000  Uiso   1.00
N43    N     0.38874   0.70988   0.13645   0.00000  Uiso   1.00
N44    N     0.00716   0.06741   0.15821   0.00000  Uiso   1.00
N45    N     0.56561   0.06379   0.02321   0.00000  Uiso   1.00
N46    N     0.28878   0.70983   0.09006   0.00000  Uiso   1.00
C47    C     0.36306   0.27770   0.83390   0.00000  Uiso   1.00
C48    C     0.46662   0.21779   0.82797   0.00000  Uiso   1.00
C49    C     0.49812   0.16696   0.79713   0.00000  Uiso   1.00
C50    C     0.59572   0.11659   0.79699   0.00000  Uiso   1.00
C51    C     0.74682   0.02343   0.78329   0.00000  Uiso   1.00
C52    C     0.31255   0.21968   0.86510   0.00000  Uiso   1.00
C53    C     0.21450   0.17045   0.86546   0.00000  Uiso   1.00
C54    C     0.18239   0.12169   0.89658   0.00000  Uiso   1.00
C55    C     0.09425   0.03154   0.94052   0.00000  Uiso   1.00
C56    C     0.39039   0.39626   0.84605   0.00000  Uiso   1.00
C57    C     0.35777   0.49551   0.83041   0.00000  Uiso   1.00
C58    C     0.39119   0.59542   0.84549   0.00000  Uiso   1.00
C59    C     0.42391   0.77945   0.85985   0.00000  Uiso   1.00
C60    C     0.48037   0.27863   0.88851   0.00000  Uiso   1.00
C61    C     0.53034   0.21829   0.85764   0.00000  Uiso   1.00
C62    C     0.62792   0.16799   0.85755   0.00000  Uiso   1.00
C63    C     0.65956   0.11710   0.82671   0.00000  Uiso   1.00
C64    C     0.37626   0.22018   0.89476   0.00000  Uiso   1.00
C65    C     0.34429   0.17149   0.92589   0.00000  Uiso   1.00
C66    C     0.24623   0.12219   0.92630   0.00000  Uiso   1.00
C67    C     0.45411   0.39677   0.87571   0.00000  Uiso   1.00
C68    C     0.48757   0.49654   0.89083   0.00000  Uiso   1.00
C69    C     0.45502   0.59593   0.87521   0.00000  Uiso   1.00
H70    H     0.31344   0.27730   0.81081   0.00000  Uiso   1.00
H71    H     0.44878   0.16657   0.77418   0.00000  Uiso   1.00
H72    H     0.16520   0.17008   0.84251   0.00000  Uiso   1.00
H73    H     0.30846   0.49509   0.80745   0.00000  Uiso   1.00
H74    H     0.62692   0.04400   0.74666   0.00000  Uiso   1.00
H75    H     0.02896   0.05143   0.89073   0.00000  Uiso   1.00
H76    H     0.33104   0.73677   0.81681   0.00000  Uiso   1.00
H77    H     0.52998   0.27903   0.91161   0.00000  Uiso   1.00
H78    H     0.67721   0.16840   0.88051   0.00000  Uiso   1.00
H79    H     0.39362   0.17190   0.94884   0.00000  Uiso   1.00
H80    H     0.53688   0.49691   0.91378   0.00000  Uiso   1.00
H81    H     0.81231   0.04548   0.83296   0.00000  Uiso   1.00
H82    H     0.21434   0.05291   0.97703   0.00000  Uiso   1.00
H83    H     0.51644   0.73825   0.90311   0.00000  Uiso   1.00
O84    O     0.81255   0.97190   0.76753   0.00000  Uiso   1.00
O85    O     0.02803   0.98166   0.95656   0.00000  Uiso   1.00
O86    O     0.42437   0.88081   0.85957   0.00000  Uiso   1.00
N87    N     0.65036   0.05955   0.77123   0.00000  Uiso   1.00
N88    N     0.09130   0.06648   0.90593   0.00000  Uiso   1.00
N89    N     0.37371   0.70722   0.83683   0.00000  Uiso   1.00
N90    N     0.75012   0.06035   0.81767   0.00000  Uiso   1.00
N91    N     0.19106   0.06727   0.95237   0.00000  Uiso   1.00
N92    N     0.47346   0.70801   0.88327   0.00000  Uiso   1.00
C93    C     0.60410   0.71958   0.64098   0.00000  Uiso   1.00
C94    C     0.70812   0.77827   0.64718   0.00000  Uiso   1.00
C95    C     0.73989   0.82760   0.67823   0.00000  Uiso   1.00
C96    C     0.83790   0.87703   0.67860   0.00000  Uiso   1.00
C97    C     0.98968   0.96820   0.69272   0.00000  Uiso   1.00
C98    C     0.55421   0.77929   0.60997   0.00000  Uiso   1.00
C99    C     0.45657   0.82945   0.60974   0.00000  Uiso   1.00
C100   C     0.42501   0.87973   0.57879   0.00000  Uiso   1.00
C101   C     0.33782   0.97240   0.53515   0.00000  Uiso   1.00
C102   C     0.63052   0.60124   0.62840   0.00000  Uiso   1.00
C103   C     0.59702   0.50170   0.64366   0.00000  Uiso   1.00
C104   C     0.62969   0.40207   0.62822   0.00000  Uiso   1.00
C105   C     0.66098   0.21831   0.61319   0.00000  Uiso   1.00
C106   C     0.72166   0.71964   0.58642   0.00000  Uiso   1.00
C107   C     0.77197   0.77830   0.61754   0.00000  Uiso   1.00
C108   C     0.86996   0.82766   0.61787   0.00000  Uiso   1.00
C109   C     0.90187   0.87705   0.64891   0.00000  Uiso   1.00
C110   C     0.61806   0.77932   0.58034   0.00000  Uiso   1.00
C111   C     0.58663   0.82952   0.54938   0.00000  Uiso   1.00
C112   C     0.48898   0.87976   0.54911   0.00000  Uiso   1.00
C113   C     0.69438   0.60127   0.59877   0.00000  Uiso   1.00
C114   C     0.72709   0.50177   0.58330   0.00000  Uiso   1.00
C115   C     0.69366   0.40210   0.59853   0.00000  Uiso   1.00
H116   H     0.55438   0.71956   0.66405   0.00000  Uiso   1.00
H117   H     0.69045   0.82756   0.70115   0.00000  Uiso   1.00
H118   H     0.40717   0.82941   0.63268   0.00000  Uiso   1.00
H119   H     0.54761   0.50171   0.66659   0.00000  Uiso   1.00
H120   H     0.86945   0.94736   0.72922   0.00000  Uiso   1.00
H121   H     0.27213   0.95121   0.58483   0.00000  Uiso   1.00
H122   H     0.56826   0.26020   0.65634   0.00000  Uiso   1.00
H123   H     0.77137   0.71967   0.56335   0.00000  Uiso   1.00
H124   H     0.91935   0.82768   0.59493   0.00000  Uiso   1.00
H125   H     0.63607   0.82952   0.52646   0.00000  Uiso   1.00
H126   H     0.77650   0.50183   0.56037   0.00000  Uiso   1.00
H127   H     0.05523   0.94745   0.64301   0.00000  Uiso   1.00
H128   H     0.45790   0.95131   0.49862   0.00000  Uiso   1.00
H129   H     0.75404   0.26030   0.57013   0.00000  Uiso   1.00
O130   O     0.05576   0.01849   0.70870   0.00000  Uiso   1.00
O131   O     0.27208   0.02353   0.51927   0.00000  Uiso   1.00
O132   O     0.66061   0.11694   0.61309   0.00000  Uiso   1.00
N133   N     0.89288   0.93254   0.70459   0.00000  Uiso   1.00
N134   N     0.33442   0.93616   0.56960   0.00000  Uiso   1.00
N135   N     0.61126   0.29012   0.63645   0.00000  Uiso   1.00
N136   N     0.99284   0.93259   0.65821   0.00000  Uiso   1.00
N137   N     0.43439   0.93621   0.52321   0.00000  Uiso   1.00
N138   N     0.71122   0.29017   0.59006   0.00000  Uiso   1.00
C139   C     0.63694   0.72230   0.33390   0.00000  Uiso   1.00
C140   C     0.53338   0.78221   0.32797   0.00000  Uiso   1.00
C141   C     0.50188   0.83304   0.29713   0.00000  Uiso   1.00
C142   C     0.40428   0.88341   0.29699   0.00000  Uiso   1.00
C143   C     0.25318   0.97657   0.28329   0.00000  Uiso   1.00
C144   C     0.68745   0.78032   0.36510   0.00000  Uiso   1.00
C145   C     0.78550   0.82955   0.36546   0.00000  Uiso   1.00
C146   C     0.81761   0.87831   0.39658   0.00000  Uiso   1.00
C147   C     0.90575   0.96846   0.44052   0.00000  Uiso   1.00
C148   C     0.60961   0.60374   0.34605   0.00000  Uiso   1.00
C149   C     0.64223   0.50449   0.33041   0.00000  Uiso   1.00
C150   C     0.60881   0.40458   0.34549   0.00000  Uiso   1.00
C151   C     0.57609   0.22055   0.35985   0.00000  Uiso   1.00
C152   C     0.51963   0.72137   0.38851   0.00000  Uiso   1.00
C153   C     0.46966   0.78171   0.35764   0.00000  Uiso   1.00
C154   C     0.37208   0.83201   0.35755   0.00000  Uiso   1.00
C155   C     0.34044   0.88290   0.32671   0.00000  Uiso   1.00
C156   C     0.62374   0.77982   0.39476   0.00000  Uiso   1.00
C157   C     0.65571   0.82851   0.42589   0.00000  Uiso   1.00
C158   C     0.75377   0.87781   0.42630   0.00000  Uiso   1.00
C159   C     0.54589   0.60323   0.37571   0.00000  Uiso   1.00
C160   C     0.51243   0.50346   0.39083   0.00000  Uiso   1.00
C161   C     0.54498   0.40407   0.37521   0.00000  Uiso   1.00
H162   H     0.68656   0.72270   0.31081   0.00000  Uiso   1.00
H163   H     0.55122   0.83343   0.27418   0.00000  Uiso   1.00
H164   H     0.83480   0.82992   0.34251   0.00000  Uiso   1.00
H165   H     0.69154   0.50491   0.30745   0.00000  Uiso   1.00
H166   H     0.37308   0.95600   0.24666   0.00000  Uiso   1.00
H167   H     0.97104   0.94857   0.39073   0.00000  Uiso   1.00
H168   H     0.66896   0.26323   0.31681   0.00000  Uiso   1.00
H169   H     0.47002   0.72097   0.41161   0.00000  Uiso   1.00
H170   H     0.32279   0.83160   0.38051   0.00000  Uiso   1.00
H171   H     0.60638   0.82810   0.44884   0.00000  Uiso   1.00
H172   H     0.46312   0.50309   0.41378   0.00000  Uiso   1.00
H173   H     0.18769   0.95452   0.33296   0.00000  Uiso   1.00
H174   H     0.78566   0.94709   0.47703   0.00000  Uiso   1.00
H175   H     0.48356   0.26175   0.40311   0.00000  Uiso   1.00
O176   O     0.18745   0.02810   0.26753   0.00000  Uiso   1.00
O177   O     0.97197   0.01834   0.45656   0.00000  Uiso   1.00
O178   O     0.57563   0.11919   0.35957   0.00000  Uiso   1.00
N179   N     0.34964   0.94045   0.27123   0.00000  Uiso   1.00
N180   N     0.90870   0.93352   0.40593   0.00000  Uiso   1.00
N181   N     0.62629   0.29278   0.33683   0.00000  Uiso   1.00
N182   N     0.24988   0.93965   0.31767   0.00000  Uiso   1.00
N183   N     0.80894   0.93273   0.45237   0.00000  Uiso   1.00
N184   N     0.52654   0.29199   0.38327   0.00000  Uiso   1.00
C185   C     0.89590   0.71958   0.14098   0.00000  Uiso   1.00
C186   C     0.79188   0.77827   0.14718   0.00000  Uiso   1.00
C187   C     0.76011   0.82760   0.17823   0.00000  Uiso   1.00
C188   C     0.66210   0.87703   0.17860   0.00000  Uiso   1.00
C189   C     0.51032   0.96820   0.19272   0.00000  Uiso   1.00
C190   C     0.94579   0.77929   0.10997   0.00000  Uiso   1.00
C191   C     0.04343   0.82945   0.10974   0.00000  Uiso   1.00
C192   C     0.07499   0.87973   0.07879   0.00000  Uiso   1.00
C193   C     0.16218   0.97240   0.03515   0.00000  Uiso   1.00
C194   C     0.86948   0.60124   0.12840   0.00000  Uiso   1.00
C195   C     0.90298   0.50170   0.14366   0.00000  Uiso   1.00
C196   C     0.87031   0.40207   0.12822   0.00000  Uiso   1.00
C197   C     0.83902   0.21831   0.11319   0.00000  Uiso   1.00
C198   C     0.77834   0.71964   0.08642   0.00000  Uiso   1.00
C199   C     0.72803   0.77830   0.11754   0.00000  Uiso   1.00
C200   C     0.63004   0.82766   0.11787   0.00000  Uiso   1.00
C201   C     0.59813   0.87705   0.14891   0.00000  Uiso   1.00
C202   C     0.88194   0.77932   0.08034   0.00000  Uiso   1.00
C203   C     0.91337   0.82952   0.04938   0.00000  Uiso   1.00
C204   C     0.01102   0.87976   0.04911   0.00000  Uiso   1.00
C205   C     0.80562   0.60127   0.09877   0.00000  Uiso   1.00
C206   C     0.77291   0.50177   0.08330   0.00000  Uiso   1.00
C207   C     0.80634   0.40210   0.09853   0.00000  Uiso   1.00
H208   H     0.94562   0.71956   0.16405   0.00000  Uiso   1.00
H209   H     0.80955   0.82756   0.20115   0.00000  Uiso   1.00
H210   H     0.09283   0.82941   0.13268   0.00000  Uiso   1.00
H211   H     0.95239   0.50171   0.16659   0.00000  Uiso   1.00
H212   H     0.63055   0.94736   0.22922   0.00000  Uiso   1.00
H213   H     0.22787   0.95121   0.08483   0.00000  Uiso   1.00
H214   H     0.93174   0.26020   0.15634   0.00000  Uiso   1.00
H215   H     0.72863   0.71967   0.06335   0.00000  Uiso   1.00
H216   H     0.58065   0.82768   0.09493   0.00000  Uiso   1.00
H217   H     0.86393   0.82952   0.02646   0.00000  Uiso   1.00
H218   H     0.72350   0.50183   0.06037   0.00000  Uiso   1.00
H219   H     0.44477   0.94745   0.14301   0.00000  Uiso   1.00
H220   H     0.04210   0.95131   0.99862   0.00000  Uiso   1.00
H221   H     0.74596   0.26030   0.07013   0.00000  Uiso   1.00
O222   O     0.44424   0.01849   0.20870   0.00000  Uiso   1.00
O223   O     0.22792   0.02353   0.01927   0.00000  Uiso   1.00
O224   O     0.83939   0.11694   0.11309   0.00000  Uiso   1.00
N225   N     0.60712   0.93254   0.20459   0.00000  Uiso   1.00
N226   N     0.16558   0.93616   0.06960   0.00000  Uiso   1.00
N227   N     0.88874   0.29012   0.13645   0.00000  Uiso   1.00
N228   N     0.50716   0.93259   0.15821   0.00000  Uiso   1.00
N229   N     0.06561   0.93621   0.02321   0.00000  Uiso   1.00
N230   N     0.78878   0.29017   0.09006   0.00000  Uiso   1.00
C231   C     0.86306   0.72230   0.83390   0.00000  Uiso   1.00
C232   C     0.96662   0.78221   0.82797   0.00000  Uiso   1.00
C233   C     0.99812   0.83304   0.79713   0.00000  Uiso   1.00
C234   C     0.09572   0.88341   0.79699   0.00000  Uiso   1.00
C235   C     0.24682   0.97657   0.78329   0.00000  Uiso   1.00
C236   C     0.81255   0.78032   0.86510   0.00000  Uiso   1.00
C237   C     0.71450   0.82955   0.86546   0.00000  Uiso   1.00
C238   C     0.68239   0.87831   0.89658   0.00000  Uiso   1.00
C239   C     0.59425   0.96846   0.94052   0.00000  Uiso   1.00
C240   C     0.89039   0.60374   0.84605   0.00000  Uiso   1.00
C241   C     0.85777   0.50449   0.83041   0.00000  Uiso   1.00
C242   C     0.89119   0.40458   0.84549   0.00000  Uiso   1.00
C243   C     0.92391   0.22055   0.85985   0.00000  Uiso   1.00
C244   C     0.98037   0.72137   0.88851   0.00000  Uiso   1.00
C245   C     0.03034   0.78171   0.85764   0.00000  Uiso   1.00
C246   C     0.12792   0.83201   0.85755   0.00000  Uiso   1.00
C247   C     0.15956   0.88290   0.82671   0.00000  Uiso   1.00
C248   C     0.87626   0.77982   0.89476   0.00000  Uiso   1.00
C249   C     0.84429   0.82851   0.92589   0.00000  Uiso   1.00
C250   C     0.74623   0.87781   0.92630   0.00000  Uiso   1.00
C251   C     0.95411   0.60323   0.87571   0.00000  Uiso   1.00
C252   C     0.98757   0.50346   0.89083   0.00000  Uiso   1.00
C253   C     0.95502   0.40407   0.87521   0.00000  Uiso   1.00
H254   H     0.81344   0.72270   0.81081   0.00000  Uiso   1.00
H255   H     0.94878   0.83343   0.77418   0.00000  Uiso   1.00
H256   H     0.66520   0.82992   0.84251   0.00000  Uiso   1.00
H257   H     0.80846   0.50491   0.80745   0.00000  Uiso   1.00
H258   H     0.12692   0.95600   0.74666   0.00000  Uiso   1.00
H259   H     0.52896   0.94857   0.89073   0.00000  Uiso   1.00
H260   H     0.83104   0.26323   0.81681   0.00000  Uiso   1.00
H261   H     0.02998   0.72097   0.91161   0.00000  Uiso   1.00
H262   H     0.17721   0.83160   0.88051   0.00000  Uiso   1.00
H263   H     0.89362   0.82810   0.94884   0.00000  Uiso   1.00
H264   H     0.03688   0.50309   0.91378   0.00000  Uiso   1.00
H265   H     0.31231   0.95452   0.83296   0.00000  Uiso   1.00
H266   H     0.71434   0.94709   0.97703   0.00000  Uiso   1.00
H267   H     0.01644   0.26175   0.90311   0.00000  Uiso   1.00
O268   O     0.31255   0.02810   0.76753   0.00000  Uiso   1.00
O269   O     0.52803   0.01834   0.95656   0.00000  Uiso   1.00
O270   O     0.92437   0.11919   0.85957   0.00000  Uiso   1.00
N271   N     0.15036   0.94045   0.77123   0.00000  Uiso   1.00
N272   N     0.59130   0.93352   0.90593   0.00000  Uiso   1.00
N273   N     0.87371   0.29278   0.83683   0.00000  Uiso   1.00
N274   N     0.25012   0.93965   0.81767   0.00000  Uiso   1.00
N275   N     0.69106   0.93273   0.95237   0.00000  Uiso   1.00
N276   N     0.97346   0.29199   0.88327   0.00000  Uiso   1.00
C277   C     0.10410   0.28042   0.64098   0.00000  Uiso   1.00
C278   C     0.20812   0.22173   0.64718   0.00000  Uiso   1.00
C279   C     0.23989   0.17240   0.67823   0.00000  Uiso   1.00
C280   C     0.33790   0.12297   0.67860   0.00000  Uiso   1.00
C281   C     0.48968   0.03180   0.69272   0.00000  Uiso   1.00
C282   C     0.05421   0.22071   0.60997   0.00000  Uiso   1.00
C283   C     0.95657   0.17055   0.60974   0.00000  Uiso   1.00
C284   C     0.92501   0.12027   0.57879   0.00000  Uiso   1.00
C285   C     0.83782   0.02760   0.53515   0.00000  Uiso   1.00
C286   C     0.13052   0.39876   0.62840   0.00000  Uiso   1.00
C287   C     0.09702   0.49830   0.64366   0.00000  Uiso   1.00
C288   C     0.12969   0.59793   0.62822   0.00000  Uiso   1.00
C289   C     0.16098   0.78169   0.61319   0.00000  Uiso   1.00
C290   C     0.22166   0.28036   0.58642   0.00000  Uiso   1.00
C291   C     0.27197   0.22170   0.61754   0.00000  Uiso   1.00
C292   C     0.36996   0.17234   0.61787   0.00000  Uiso   1.00
C293   C     0.40187   0.12295   0.64891   0.00000  Uiso   1.00
C294   C     0.11806   0.22068   0.58034   0.00000  Uiso   1.00
C295   C     0.08663   0.17048   0.54938   0.00000  Uiso   1.00
C296   C     0.98898   0.12024   0.54911   0.00000  Uiso   1.00
C297   C     0.19438   0.39873   0.59877   0.00000  Uiso   1.00
C298   C     0.22709   0.49823   0.58330   0.00000  Uiso   1.00
C299   C     0.19366   0.59790   0.59853   0.00000  Uiso   1.00
H300   H     0.05438   0.28044   0.66405   0.00000  Uiso   1.00
H301   H     0.19045   0.17244   0.70115   0.00000  Uiso   1.00
H302   H     0.90717   0.17059   0.63268   0.00000  Uiso   1.00
H303   H     0.04761   0.49829   0.66659   0.00000  Uiso   1.00
H304   H     0.36945   0.05264   0.72922   0.00000  Uiso   1.00
H305   H     0.77213   0.04879   0.58483   0.00000  Uiso   1.00
H306   H     0.06826   0.73980   0.65634   0.00000  Uiso   1.00
H307   H     0.27137   0.28033   0.56335   0.00000  Uiso   1.00
H308   H     0.41935   0.17232   0.59493   0.00000  Uiso   1.00
H309   H     0.13607   0.17048   0.52646   0.00000  Uiso   1.00
H310   H     0.27650   0.49817   0.56037   0.00000  Uiso   1.00
H311   H     0.55523   0.05255   0.64301   0.00000  Uiso   1.00
H312   H     0.95790   0.04869   0.49862   0.00000  Uiso   1.00
H313   H     0.25404   0.73970   0.57013   0.00000  Uiso   1.00
O314   O     0.55576   0.98151   0.70870   0.00000  Uiso   1.00
O315   O     0.77208   0.97647   0.51927   0.00000  Uiso   1.00
O316   O     0.16061   0.88306   0.61309   0.00000  Uiso   1.00
N317   N     0.39288   0.06746   0.70459   0.00000  Uiso   1.00
N318   N     0.83442   0.06384   0.56960   0.00000  Uiso   1.00
N319   N     0.11126   0.70988   0.63645   0.00000  Uiso   1.00
N320   N     0.49284   0.06741   0.65821   0.00000  Uiso   1.00
N321   N     0.93439   0.06379   0.52321   0.00000  Uiso   1.00
N322   N     0.21122   0.70983   0.59006   0.00000  Uiso   1.00
C323   C     0.13694   0.27770   0.33390   0.00000  Uiso   1.00
C324   C     0.03338   0.21779   0.32797   0.00000  Uiso   1.00
C325   C     0.00188   0.16696   0.29713   0.00000  Uiso   1.00
C326   C     0.90428   0.11659   0.29699   0.00000  Uiso   1.00
C327   C     0.75318   0.02343   0.28329   0.00000  Uiso   1.00
C328   C     0.18745   0.21968   0.36510   0.00000  Uiso   1.00
C329   C     0.28550   0.17045   0.36546   0.00000  Uiso   1.00
C330   C     0.31761   0.12169   0.39658   0.00000  Uiso   1.00
C331   C     0.40575   0.03154   0.44052   0.00000  Uiso   1.00
C332   C     0.10961   0.39626   0.34605   0.00000  Uiso   1.00
C333   C     0.14223   0.49551   0.33041   0.00000  Uiso   1.00
C334   C     0.10881   0.59542   0.34549   0.00000  Uiso   1.00
C335   C     0.07609   0.77945   0.35985   0.00000  Uiso   1.00
C336   C     0.01963   0.27863   0.38851   0.00000  Uiso   1.00
C337   C     0.96966   0.21829   0.35764   0.00000  Uiso   1.00
C338   C     0.87208   0.16799   0.35755   0.00000  Uiso   1.00
C339   C     0.84044   0.11710   0.32671   0.00000  Uiso   1.00
C340   C     0.12374   0.22018   0.39476   0.00000  Uiso   1.00
C341   C     0.15571   0.17149   0.42589   0.00000  Uiso   1.00
C342   C     0.25377   0.12219   0.42630   0.00000  Uiso   1.00
C343   C     0.04589   0.39677   0.37571   0.00000  Uiso   1.00
C344   C     0.01243   0.49654   0.39083   0.00000  Uiso   1.00
C345   C     0.04498   0.59593   0.37521   0.00000  Uiso   1.00
H346   H     0.18656   0.27730   0.31081   0.00000  Uiso   1.00
H347   H     0.05122   0.16657   0.27418   0.00000  Uiso   1.00
H348   H     0.33480   0.17008   0.34251   0.00000  Uiso   1.00
H349   H     0.19154   0.49509   0.30745   0.00000  Uiso   1.00
H350   H     0.87308   0.04400   0.24666   0.00000  Uiso   1.00
H351   H     0.47104   0.05143   0.39073   0.00000  Uiso   1.00
H352   H     0.16896   0.73677   0.31681   0.00000  Uiso   1.00
H353   H     0.97002   0.27903   0.41161   0.00000  Uiso   1.00
H354   H     0.82279   0.16840   0.38051   0.00000  Uiso   1.00
H355   H     0.10638   0.17190   0.44884   0.00000  Uiso   1.00
H356   H     0.96312   0.49691   0.41378   0.00000  Uiso   1.00
H357   H     0.68769   0.04548   0.33296   0.00000  Uiso   1.00
H358   H     0.28566   0.05291   0.47703   0.00000  Uiso   1.00
H359   H     0.98356   0.73825   0.40311   0.00000  Uiso   1.00
O360   O     0.68745   0.97190   0.26753   0.00000  Uiso   1.00
O361   O     0.47197   0.98166   0.45656   0.00000  Uiso   1.00
O362   O     0.07563   0.88081   0.35957   0.00000  Uiso   1.00
N363   N     0.84964   0.05955   0.27123   0.00000  Uiso   1.00
N364   N     0.40870   0.06648   0.40593   0.00000  Uiso   1.00
N365   N     0.12629   0.70722   0.33683   0.00000  Uiso   1.00
N366   N     0.74988   0.06035   0.31767   0.00000  Uiso   1.00
N367   N     0.30894   0.06727   0.45237   0.00000  Uiso   1.00
N368   N     0.02654   0.70801   0.38327   0.00000  Uiso   1.00
