data_job_05752
_audit_creation_date              2018-12-19
_audit_creation_method            'Materials Studio'
_symmetry_space_group_name_H-M    'P1'
_symmetry_Int_Tables_number       1
_symmetry_cell_setting            triclinic
loop_
_symmetry_equiv_pos_as_xyz
  x,y,z
_cell_length_a                    26.3736
_cell_length_b                    10.9492
_cell_length_c                    39.2071
_cell_angle_alpha                 90.0000
_cell_angle_beta                  149.6756
_cell_angle_gamma                 90.0000
loop_
_atom_site_label
_atom_site_type_symbol
_atom_site_fract_x
_atom_site_fract_y
_atom_site_fract_z
_atom_site_U_iso_or_equiv
_atom_site_adp_type
_atom_site_occupancy
C1     C     0.65486   0.35190   0.07213   0.00000  Uiso   1.00
C2     C     0.71152   0.36552   0.13861   0.00000  Uiso   1.00
C3     C     0.67530   0.42201   0.14678   0.00000  Uiso   1.00
C4     C     0.73872   0.42501   0.21170   0.00000  Uiso   1.00
C5     C     0.81205   0.45397   0.30661   0.00000  Uiso   1.00
C6     C     0.65289   0.21543   0.06324   0.00000  Uiso   1.00
C7     C     0.56737   0.14574   0.00804   0.00000  Uiso   1.00
C8     C     0.58144   0.02241   0.00951   0.00000  Uiso   1.00
C9     C     0.56375   0.81837   0.98737   0.00000  Uiso   1.00
C10    C     0.72147   0.40954   0.08357   0.00000  Uiso   1.00
C11    C     0.69362   0.50304   0.04545   0.00000  Uiso   1.00
C12    C     0.76543   0.54310   0.06403   0.00000  Uiso   1.00
C13    C     0.85423   0.64045   0.07347   0.00000  Uiso   1.00
C14    C     0.83188   0.25677   0.17288   0.00000  Uiso   1.00
C15    C     0.80767   0.31384   0.19334   0.00000  Uiso   1.00
C16    C     0.87116   0.31676   0.25826   0.00000  Uiso   1.00
C17    C     0.83504   0.37326   0.26653   0.00000  Uiso   1.00
C18    C     0.74903   0.16376   0.11797   0.00000  Uiso   1.00
C19    C     0.76323   0.04050   0.11952   0.00000  Uiso   1.00
C20    C     0.67776   0.97064   0.06433   0.00000  Uiso   1.00
C21    C     0.81763   0.35787   0.13830   0.00000  Uiso   1.00
C22    C     0.88948   0.39779   0.15694   0.00000  Uiso   1.00
C23    C     0.86175   0.49134   0.11886   0.00000  Uiso   1.00
H24    H     0.58000   0.39211   0.02952   0.00000  Uiso   1.00
H25    H     0.60088   0.46198   0.10442   0.00000  Uiso   1.00
H26    H     0.49298   0.18576   0.96569   0.00000  Uiso   1.00
H27    H     0.61921   0.54300   0.00311   0.00000  Uiso   1.00
H28    H     0.66643   0.51661   0.21159   0.00000  Uiso   1.00
H29    H     0.43890   0.93419   0.91907   0.00000  Uiso   1.00
H30    H     0.70509   0.68750   0.99796   0.00000  Uiso   1.00
H31    H     0.90674   0.21654   0.21549   0.00000  Uiso   1.00
H32    H     0.94556   0.27677   0.30060   0.00000  Uiso   1.00
H33    H     0.83765   0.00055   0.16187   0.00000  Uiso   1.00
H34    H     0.96388   0.35779   0.19929   0.00000  Uiso   1.00
H35    H     0.94618   0.36628   0.37082   0.00000  Uiso   1.00
H36    H     0.71865   0.78386   0.07829   0.00000  Uiso   1.00
H37    H     0.98484   0.53717   0.15719   0.00000  Uiso   1.00
O38    O     0.82594   0.48420   0.34383   0.00000  Uiso   1.00
O39    O     0.52742   0.72010   0.96005   0.00000  Uiso   1.00
O40    O     0.87665   0.70843   0.06356   0.00000  Uiso   1.00
N41    N     0.72695   0.47298   0.23739   0.00000  Uiso   1.00
N42    N     0.51422   0.92845   0.96390   0.00000  Uiso   1.00
N43    N     0.76307   0.63271   0.03765   0.00000  Uiso   1.00
N44    N     0.87748   0.39210   0.32307   0.00000  Uiso   1.00
N45    N     0.66475   0.84757   0.04958   0.00000  Uiso   1.00
N46    N     0.91360   0.55183   0.12333   0.00000  Uiso   1.00
C47    C     0.15486   0.85190   0.07213   0.00000  Uiso   1.00
C48    C     0.21152   0.86552   0.13861   0.00000  Uiso   1.00
C49    C     0.17530   0.92201   0.14678   0.00000  Uiso   1.00
C50    C     0.23872   0.92501   0.21170   0.00000  Uiso   1.00
C51    C     0.31205   0.95397   0.30661   0.00000  Uiso   1.00
C52    C     0.15289   0.71543   0.06324   0.00000  Uiso   1.00
C53    C     0.06737   0.64574   0.00804   0.00000  Uiso   1.00
C54    C     0.08144   0.52241   0.00951   0.00000  Uiso   1.00
C55    C     0.06375   0.31837   0.98737   0.00000  Uiso   1.00
C56    C     0.22147   0.90954   0.08357   0.00000  Uiso   1.00
C57    C     0.19362   0.00304   0.04545   0.00000  Uiso   1.00
C58    C     0.26543   0.04310   0.06403   0.00000  Uiso   1.00
C59    C     0.35423   0.14045   0.07347   0.00000  Uiso   1.00
C60    C     0.33188   0.75677   0.17288   0.00000  Uiso   1.00
C61    C     0.30767   0.81384   0.19334   0.00000  Uiso   1.00
C62    C     0.37116   0.81676   0.25826   0.00000  Uiso   1.00
C63    C     0.33504   0.87326   0.26653   0.00000  Uiso   1.00
C64    C     0.24903   0.66376   0.11797   0.00000  Uiso   1.00
C65    C     0.26323   0.54050   0.11952   0.00000  Uiso   1.00
C66    C     0.17776   0.47064   0.06433   0.00000  Uiso   1.00
C67    C     0.31763   0.85787   0.13830   0.00000  Uiso   1.00
C68    C     0.38948   0.89779   0.15694   0.00000  Uiso   1.00
C69    C     0.36175   0.99134   0.11886   0.00000  Uiso   1.00
H70    H     0.08000   0.89211   0.02952   0.00000  Uiso   1.00
H71    H     0.10088   0.96198   0.10442   0.00000  Uiso   1.00
H72    H     0.99298   0.68576   0.96569   0.00000  Uiso   1.00
H73    H     0.11921   0.04300   0.00311   0.00000  Uiso   1.00
H74    H     0.16643   0.01661   0.21159   0.00000  Uiso   1.00
H75    H     0.93890   0.43419   0.91907   0.00000  Uiso   1.00
H76    H     0.20509   0.18750   0.99796   0.00000  Uiso   1.00
H77    H     0.40674   0.71654   0.21549   0.00000  Uiso   1.00
H78    H     0.44556   0.77677   0.30060   0.00000  Uiso   1.00
H79    H     0.33765   0.50055   0.16187   0.00000  Uiso   1.00
H80    H     0.46388   0.85779   0.19929   0.00000  Uiso   1.00
H81    H     0.44618   0.86628   0.37082   0.00000  Uiso   1.00
H82    H     0.21865   0.28386   0.07829   0.00000  Uiso   1.00
H83    H     0.48484   0.03717   0.15719   0.00000  Uiso   1.00
O84    O     0.32594   0.98420   0.34383   0.00000  Uiso   1.00
O85    O     0.02742   0.22010   0.96005   0.00000  Uiso   1.00
O86    O     0.37665   0.20843   0.06356   0.00000  Uiso   1.00
N87    N     0.22695   0.97298   0.23739   0.00000  Uiso   1.00
N88    N     0.01422   0.42845   0.96390   0.00000  Uiso   1.00
N89    N     0.26307   0.13271   0.03765   0.00000  Uiso   1.00
N90    N     0.37748   0.89210   0.32307   0.00000  Uiso   1.00
N91    N     0.16475   0.34757   0.04958   0.00000  Uiso   1.00
N92    N     0.41360   0.05183   0.12333   0.00000  Uiso   1.00
C93    C     0.34514   0.35190   0.42787   0.00000  Uiso   1.00
C94    C     0.28848   0.36552   0.36139   0.00000  Uiso   1.00
C95    C     0.32470   0.42201   0.35322   0.00000  Uiso   1.00
C96    C     0.26128   0.42501   0.28830   0.00000  Uiso   1.00
C97    C     0.18795   0.45397   0.19339   0.00000  Uiso   1.00
C98    C     0.34711   0.21543   0.43676   0.00000  Uiso   1.00
C99    C     0.43263   0.14574   0.49196   0.00000  Uiso   1.00
C100   C     0.41856   0.02241   0.49049   0.00000  Uiso   1.00
C101   C     0.43625   0.81837   0.51263   0.00000  Uiso   1.00
C102   C     0.27853   0.40954   0.41643   0.00000  Uiso   1.00
C103   C     0.30638   0.50304   0.45455   0.00000  Uiso   1.00
C104   C     0.23457   0.54310   0.43597   0.00000  Uiso   1.00
C105   C     0.14577   0.64045   0.42653   0.00000  Uiso   1.00
C106   C     0.16812   0.25677   0.32712   0.00000  Uiso   1.00
C107   C     0.19233   0.31384   0.30666   0.00000  Uiso   1.00
C108   C     0.12884   0.31676   0.24174   0.00000  Uiso   1.00
C109   C     0.16496   0.37326   0.23347   0.00000  Uiso   1.00
C110   C     0.25097   0.16376   0.38203   0.00000  Uiso   1.00
C111   C     0.23677   0.04050   0.38048   0.00000  Uiso   1.00
C112   C     0.32224   0.97064   0.43567   0.00000  Uiso   1.00
C113   C     0.18237   0.35787   0.36170   0.00000  Uiso   1.00
C114   C     0.11052   0.39779   0.34306   0.00000  Uiso   1.00
C115   C     0.13825   0.49134   0.38114   0.00000  Uiso   1.00
H116   H     0.42000   0.39211   0.47048   0.00000  Uiso   1.00
H117   H     0.39912   0.46198   0.39558   0.00000  Uiso   1.00
H118   H     0.50702   0.18576   0.53431   0.00000  Uiso   1.00
H119   H     0.38079   0.54300   0.49689   0.00000  Uiso   1.00
H120   H     0.33357   0.51661   0.28841   0.00000  Uiso   1.00
H121   H     0.56110   0.93419   0.58093   0.00000  Uiso   1.00
H122   H     0.29491   0.68750   0.50204   0.00000  Uiso   1.00
H123   H     0.09326   0.21654   0.28451   0.00000  Uiso   1.00
H124   H     0.05444   0.27677   0.19940   0.00000  Uiso   1.00
H125   H     0.16235   0.00055   0.33813   0.00000  Uiso   1.00
H126   H     0.03612   0.35779   0.30071   0.00000  Uiso   1.00
H127   H     0.05382   0.36628   0.12918   0.00000  Uiso   1.00
H128   H     0.28135   0.78386   0.42171   0.00000  Uiso   1.00
H129   H     0.01516   0.53717   0.34281   0.00000  Uiso   1.00
O130   O     0.17406   0.48420   0.15617   0.00000  Uiso   1.00
O131   O     0.47258   0.72010   0.53995   0.00000  Uiso   1.00
O132   O     0.12335   0.70843   0.43644   0.00000  Uiso   1.00
N133   N     0.27305   0.47298   0.26261   0.00000  Uiso   1.00
N134   N     0.48578   0.92845   0.53610   0.00000  Uiso   1.00
N135   N     0.23693   0.63271   0.46235   0.00000  Uiso   1.00
N136   N     0.12252   0.39210   0.17693   0.00000  Uiso   1.00
N137   N     0.33525   0.84757   0.45042   0.00000  Uiso   1.00
N138   N     0.08640   0.55183   0.37667   0.00000  Uiso   1.00
C139   C     0.84514   0.85190   0.42787   0.00000  Uiso   1.00
C140   C     0.78848   0.86552   0.36139   0.00000  Uiso   1.00
C141   C     0.82470   0.92201   0.35322   0.00000  Uiso   1.00
C142   C     0.76128   0.92501   0.28830   0.00000  Uiso   1.00
C143   C     0.68795   0.95397   0.19339   0.00000  Uiso   1.00
C144   C     0.84711   0.71543   0.43676   0.00000  Uiso   1.00
C145   C     0.93263   0.64574   0.49196   0.00000  Uiso   1.00
C146   C     0.91856   0.52241   0.49049   0.00000  Uiso   1.00
C147   C     0.93625   0.31837   0.51263   0.00000  Uiso   1.00
C148   C     0.77853   0.90954   0.41643   0.00000  Uiso   1.00
C149   C     0.80638   0.00304   0.45455   0.00000  Uiso   1.00
C150   C     0.73457   0.04310   0.43597   0.00000  Uiso   1.00
C151   C     0.64577   0.14045   0.42653   0.00000  Uiso   1.00
C152   C     0.66812   0.75677   0.32712   0.00000  Uiso   1.00
C153   C     0.69233   0.81384   0.30666   0.00000  Uiso   1.00
C154   C     0.62884   0.81676   0.24174   0.00000  Uiso   1.00
C155   C     0.66496   0.87326   0.23347   0.00000  Uiso   1.00
C156   C     0.75097   0.66376   0.38203   0.00000  Uiso   1.00
C157   C     0.73677   0.54050   0.38048   0.00000  Uiso   1.00
C158   C     0.82224   0.47064   0.43567   0.00000  Uiso   1.00
C159   C     0.68237   0.85787   0.36170   0.00000  Uiso   1.00
C160   C     0.61052   0.89779   0.34306   0.00000  Uiso   1.00
C161   C     0.63825   0.99134   0.38114   0.00000  Uiso   1.00
H162   H     0.92000   0.89211   0.47048   0.00000  Uiso   1.00
H163   H     0.89912   0.96198   0.39558   0.00000  Uiso   1.00
H164   H     0.00702   0.68576   0.53431   0.00000  Uiso   1.00
H165   H     0.88079   0.04300   0.49689   0.00000  Uiso   1.00
H166   H     0.83357   0.01661   0.28841   0.00000  Uiso   1.00
H167   H     0.06110   0.43419   0.58093   0.00000  Uiso   1.00
H168   H     0.79491   0.18750   0.50204   0.00000  Uiso   1.00
H169   H     0.59326   0.71654   0.28451   0.00000  Uiso   1.00
H170   H     0.55444   0.77677   0.19940   0.00000  Uiso   1.00
H171   H     0.66235   0.50055   0.33813   0.00000  Uiso   1.00
H172   H     0.53612   0.85779   0.30071   0.00000  Uiso   1.00
H173   H     0.55382   0.86628   0.12918   0.00000  Uiso   1.00
H174   H     0.78135   0.28386   0.42171   0.00000  Uiso   1.00
H175   H     0.51516   0.03717   0.34281   0.00000  Uiso   1.00
O176   O     0.67406   0.98420   0.15617   0.00000  Uiso   1.00
O177   O     0.97258   0.22010   0.53995   0.00000  Uiso   1.00
O178   O     0.62335   0.20843   0.43644   0.00000  Uiso   1.00
N179   N     0.77305   0.97298   0.26261   0.00000  Uiso   1.00
N180   N     0.98578   0.42845   0.53610   0.00000  Uiso   1.00
N181   N     0.73693   0.13271   0.46235   0.00000  Uiso   1.00
N182   N     0.62252   0.89210   0.17693   0.00000  Uiso   1.00
N183   N     0.83525   0.34757   0.45042   0.00000  Uiso   1.00
N184   N     0.58640   0.05183   0.37667   0.00000  Uiso   1.00
C185   C     0.34514   0.64810   0.92787   0.00000  Uiso   1.00
C186   C     0.28848   0.63448   0.86139   0.00000  Uiso   1.00
C187   C     0.32470   0.57799   0.85322   0.00000  Uiso   1.00
C188   C     0.26128   0.57499   0.78830   0.00000  Uiso   1.00
C189   C     0.18795   0.54603   0.69339   0.00000  Uiso   1.00
C190   C     0.34711   0.78457   0.93676   0.00000  Uiso   1.00
C191   C     0.43263   0.85426   0.99196   0.00000  Uiso   1.00
C192   C     0.41856   0.97759   0.99049   0.00000  Uiso   1.00
C193   C     0.43625   0.18163   0.01263   0.00000  Uiso   1.00
C194   C     0.27853   0.59046   0.91643   0.00000  Uiso   1.00
C195   C     0.30638   0.49696   0.95455   0.00000  Uiso   1.00
C196   C     0.23457   0.45690   0.93597   0.00000  Uiso   1.00
C197   C     0.14577   0.35955   0.92653   0.00000  Uiso   1.00
C198   C     0.16812   0.74323   0.82712   0.00000  Uiso   1.00
C199   C     0.19233   0.68616   0.80666   0.00000  Uiso   1.00
C200   C     0.12884   0.68324   0.74174   0.00000  Uiso   1.00
C201   C     0.16496   0.62674   0.73347   0.00000  Uiso   1.00
C202   C     0.25097   0.83624   0.88203   0.00000  Uiso   1.00
C203   C     0.23677   0.95950   0.88048   0.00000  Uiso   1.00
C204   C     0.32224   0.02936   0.93567   0.00000  Uiso   1.00
C205   C     0.18237   0.64213   0.86170   0.00000  Uiso   1.00
C206   C     0.11052   0.60221   0.84306   0.00000  Uiso   1.00
C207   C     0.13825   0.50866   0.88114   0.00000  Uiso   1.00
H208   H     0.42000   0.60789   0.97048   0.00000  Uiso   1.00
H209   H     0.39912   0.53802   0.89558   0.00000  Uiso   1.00
H210   H     0.50702   0.81424   0.03431   0.00000  Uiso   1.00
H211   H     0.38079   0.45700   0.99689   0.00000  Uiso   1.00
H212   H     0.33357   0.48339   0.78841   0.00000  Uiso   1.00
H213   H     0.56110   0.06581   0.08093   0.00000  Uiso   1.00
H214   H     0.29491   0.31250   0.00204   0.00000  Uiso   1.00
H215   H     0.09326   0.78346   0.78451   0.00000  Uiso   1.00
H216   H     0.05444   0.72323   0.69940   0.00000  Uiso   1.00
H217   H     0.16235   0.99945   0.83813   0.00000  Uiso   1.00
H218   H     0.03612   0.64221   0.80071   0.00000  Uiso   1.00
H219   H     0.05382   0.63372   0.62918   0.00000  Uiso   1.00
H220   H     0.28135   0.21614   0.92171   0.00000  Uiso   1.00
H221   H     0.01516   0.46283   0.84281   0.00000  Uiso   1.00
O222   O     0.17406   0.51580   0.65617   0.00000  Uiso   1.00
O223   O     0.47258   0.27990   0.03995   0.00000  Uiso   1.00
O224   O     0.12335   0.29157   0.93644   0.00000  Uiso   1.00
N225   N     0.27305   0.52702   0.76261   0.00000  Uiso   1.00
N226   N     0.48578   0.07155   0.03610   0.00000  Uiso   1.00
N227   N     0.23693   0.36729   0.96235   0.00000  Uiso   1.00
N228   N     0.12252   0.60790   0.67693   0.00000  Uiso   1.00
N229   N     0.33525   0.15243   0.95042   0.00000  Uiso   1.00
N230   N     0.08640   0.44817   0.87667   0.00000  Uiso   1.00
C231   C     0.84514   0.14810   0.92787   0.00000  Uiso   1.00
C232   C     0.78848   0.13448   0.86139   0.00000  Uiso   1.00
C233   C     0.82470   0.07799   0.85322   0.00000  Uiso   1.00
C234   C     0.76128   0.07499   0.78830   0.00000  Uiso   1.00
C235   C     0.68795   0.04603   0.69339   0.00000  Uiso   1.00
C236   C     0.84711   0.28457   0.93676   0.00000  Uiso   1.00
C237   C     0.93263   0.35426   0.99196   0.00000  Uiso   1.00
C238   C     0.91856   0.47759   0.99049   0.00000  Uiso   1.00
C239   C     0.93625   0.68163   0.01263   0.00000  Uiso   1.00
C240   C     0.77853   0.09046   0.91643   0.00000  Uiso   1.00
C241   C     0.80638   0.99696   0.95455   0.00000  Uiso   1.00
C242   C     0.73457   0.95690   0.93597   0.00000  Uiso   1.00
C243   C     0.64577   0.85955   0.92653   0.00000  Uiso   1.00
C244   C     0.66812   0.24323   0.82712   0.00000  Uiso   1.00
C245   C     0.69233   0.18616   0.80666   0.00000  Uiso   1.00
C246   C     0.62884   0.18324   0.74174   0.00000  Uiso   1.00
C247   C     0.66496   0.12674   0.73347   0.00000  Uiso   1.00
C248   C     0.75097   0.33624   0.88203   0.00000  Uiso   1.00
C249   C     0.73677   0.45950   0.88048   0.00000  Uiso   1.00
C250   C     0.82224   0.52936   0.93567   0.00000  Uiso   1.00
C251   C     0.68237   0.14213   0.86170   0.00000  Uiso   1.00
C252   C     0.61052   0.10221   0.84306   0.00000  Uiso   1.00
C253   C     0.63825   0.00866   0.88114   0.00000  Uiso   1.00
H254   H     0.92000   0.10789   0.97048   0.00000  Uiso   1.00
H255   H     0.89912   0.03802   0.89558   0.00000  Uiso   1.00
H256   H     0.00702   0.31424   0.03431   0.00000  Uiso   1.00
H257   H     0.88079   0.95700   0.99689   0.00000  Uiso   1.00
H258   H     0.83357   0.98339   0.78841   0.00000  Uiso   1.00
H259   H     0.06110   0.56581   0.08093   0.00000  Uiso   1.00
H260   H     0.79491   0.81250   0.00204   0.00000  Uiso   1.00
H261   H     0.59326   0.28346   0.78451   0.00000  Uiso   1.00
H262   H     0.55444   0.22323   0.69940   0.00000  Uiso   1.00
H263   H     0.66235   0.49945   0.83813   0.00000  Uiso   1.00
H264   H     0.53612   0.14221   0.80071   0.00000  Uiso   1.00
H265   H     0.55382   0.13372   0.62918   0.00000  Uiso   1.00
H266   H     0.78135   0.71614   0.92171   0.00000  Uiso   1.00
H267   H     0.51516   0.96283   0.84281   0.00000  Uiso   1.00
O268   O     0.67406   0.01580   0.65617   0.00000  Uiso   1.00
O269   O     0.97258   0.77990   0.03995   0.00000  Uiso   1.00
O270   O     0.62335   0.79157   0.93644   0.00000  Uiso   1.00
N271   N     0.77305   0.02702   0.76261   0.00000  Uiso   1.00
N272   N     0.98578   0.57155   0.03610   0.00000  Uiso   1.00
N273   N     0.73693   0.86729   0.96235   0.00000  Uiso   1.00
N274   N     0.62252   0.10790   0.67693   0.00000  Uiso   1.00
N275   N     0.83525   0.65243   0.95042   0.00000  Uiso   1.00
N276   N     0.58640   0.94817   0.87667   0.00000  Uiso   1.00
C277   C     0.65486   0.64810   0.57213   0.00000  Uiso   1.00
C278   C     0.71152   0.63448   0.63861   0.00000  Uiso   1.00
C279   C     0.67530   0.57799   0.64678   0.00000  Uiso   1.00
C280   C     0.73872   0.57499   0.71170   0.00000  Uiso   1.00
C281   C     0.81205   0.54603   0.80661   0.00000  Uiso   1.00
C282   C     0.65289   0.78457   0.56324   0.00000  Uiso   1.00
C283   C     0.56737   0.85426   0.50804   0.00000  Uiso   1.00
C284   C     0.58144   0.97759   0.50951   0.00000  Uiso   1.00
C285   C     0.56375   0.18163   0.48737   0.00000  Uiso   1.00
C286   C     0.72147   0.59046   0.58357   0.00000  Uiso   1.00
C287   C     0.69362   0.49696   0.54545   0.00000  Uiso   1.00
C288   C     0.76543   0.45690   0.56403   0.00000  Uiso   1.00
C289   C     0.85423   0.35955   0.57347   0.00000  Uiso   1.00
C290   C     0.83188   0.74323   0.67288   0.00000  Uiso   1.00
C291   C     0.80767   0.68616   0.69334   0.00000  Uiso   1.00
C292   C     0.87116   0.68324   0.75826   0.00000  Uiso   1.00
C293   C     0.83504   0.62674   0.76653   0.00000  Uiso   1.00
C294   C     0.74903   0.83624   0.61797   0.00000  Uiso   1.00
C295   C     0.76323   0.95950   0.61952   0.00000  Uiso   1.00
C296   C     0.67776   0.02936   0.56433   0.00000  Uiso   1.00
C297   C     0.81763   0.64213   0.63830   0.00000  Uiso   1.00
C298   C     0.88948   0.60221   0.65694   0.00000  Uiso   1.00
C299   C     0.86175   0.50866   0.61886   0.00000  Uiso   1.00
H300   H     0.58000   0.60789   0.52952   0.00000  Uiso   1.00
H301   H     0.60088   0.53802   0.60442   0.00000  Uiso   1.00
H302   H     0.49298   0.81424   0.46569   0.00000  Uiso   1.00
H303   H     0.61921   0.45700   0.50311   0.00000  Uiso   1.00
H304   H     0.66643   0.48339   0.71159   0.00000  Uiso   1.00
H305   H     0.43890   0.06581   0.41907   0.00000  Uiso   1.00
H306   H     0.70509   0.31250   0.49796   0.00000  Uiso   1.00
H307   H     0.90674   0.78346   0.71549   0.00000  Uiso   1.00
H308   H     0.94556   0.72323   0.80060   0.00000  Uiso   1.00
H309   H     0.83765   0.99945   0.66187   0.00000  Uiso   1.00
H310   H     0.96388   0.64221   0.69929   0.00000  Uiso   1.00
H311   H     0.94618   0.63372   0.87082   0.00000  Uiso   1.00
H312   H     0.71865   0.21614   0.57829   0.00000  Uiso   1.00
H313   H     0.98484   0.46283   0.65719   0.00000  Uiso   1.00
O314   O     0.82594   0.51580   0.84383   0.00000  Uiso   1.00
O315   O     0.52742   0.27990   0.46005   0.00000  Uiso   1.00
O316   O     0.87665   0.29157   0.56356   0.00000  Uiso   1.00
N317   N     0.72695   0.52702   0.73739   0.00000  Uiso   1.00
N318   N     0.51422   0.07155   0.46390   0.00000  Uiso   1.00
N319   N     0.76307   0.36729   0.53765   0.00000  Uiso   1.00
N320   N     0.87748   0.60790   0.82307   0.00000  Uiso   1.00
N321   N     0.66475   0.15243   0.54958   0.00000  Uiso   1.00
N322   N     0.91360   0.44817   0.62333   0.00000  Uiso   1.00
C323   C     0.15486   0.14810   0.57213   0.00000  Uiso   1.00
C324   C     0.21152   0.13448   0.63861   0.00000  Uiso   1.00
C325   C     0.17530   0.07799   0.64678   0.00000  Uiso   1.00
C326   C     0.23872   0.07499   0.71170   0.00000  Uiso   1.00
C327   C     0.31205   0.04603   0.80661   0.00000  Uiso   1.00
C328   C     0.15289   0.28457   0.56324   0.00000  Uiso   1.00
C329   C     0.06737   0.35426   0.50804   0.00000  Uiso   1.00
C330   C     0.08144   0.47759   0.50951   0.00000  Uiso   1.00
C331   C     0.06375   0.68163   0.48737   0.00000  Uiso   1.00
C332   C     0.22147   0.09046   0.58357   0.00000  Uiso   1.00
C333   C     0.19362   0.99696   0.54545   0.00000  Uiso   1.00
C334   C     0.26543   0.95690   0.56403   0.00000  Uiso   1.00
C335   C     0.35423   0.85955   0.57347   0.00000  Uiso   1.00
C336   C     0.33188   0.24323   0.67288   0.00000  Uiso   1.00
C337   C     0.30767   0.18616   0.69334   0.00000  Uiso   1.00
C338   C     0.37116   0.18324   0.75826   0.00000  Uiso   1.00
C339   C     0.33504   0.12674   0.76653   0.00000  Uiso   1.00
C340   C     0.24903   0.33624   0.61797   0.00000  Uiso   1.00
C341   C     0.26323   0.45950   0.61952   0.00000  Uiso   1.00
C342   C     0.17776   0.52936   0.56433   0.00000  Uiso   1.00
C343   C     0.31763   0.14213   0.63830   0.00000  Uiso   1.00
C344   C     0.38948   0.10221   0.65694   0.00000  Uiso   1.00
C345   C     0.36175   0.00866   0.61886   0.00000  Uiso   1.00
H346   H     0.08000   0.10789   0.52952   0.00000  Uiso   1.00
H347   H     0.10088   0.03802   0.60442   0.00000  Uiso   1.00
H348   H     0.99298   0.31424   0.46569   0.00000  Uiso   1.00
H349   H     0.11921   0.95700   0.50311   0.00000  Uiso   1.00
H350   H     0.16643   0.98339   0.71159   0.00000  Uiso   1.00
H351   H     0.93890   0.56581   0.41907   0.00000  Uiso   1.00
H352   H     0.20509   0.81250   0.49796   0.00000  Uiso   1.00
H353   H     0.40674   0.28346   0.71549   0.00000  Uiso   1.00
H354   H     0.44556   0.22323   0.80060   0.00000  Uiso   1.00
H355   H     0.33765   0.49945   0.66187   0.00000  Uiso   1.00
H356   H     0.46388   0.14221   0.69929   0.00000  Uiso   1.00
H357   H     0.44618   0.13372   0.87082   0.00000  Uiso   1.00
H358   H     0.21865   0.71614   0.57829   0.00000  Uiso   1.00
H359   H     0.48484   0.96283   0.65719   0.00000  Uiso   1.00
O360   O     0.32594   0.01580   0.84383   0.00000  Uiso   1.00
O361   O     0.02742   0.77990   0.46005   0.00000  Uiso   1.00
O362   O     0.37665   0.79157   0.56356   0.00000  Uiso   1.00
N363   N     0.22695   0.02702   0.73739   0.00000  Uiso   1.00
N364   N     0.01422   0.57155   0.46390   0.00000  Uiso   1.00
N365   N     0.26307   0.86729   0.53765   0.00000  Uiso   1.00
N366   N     0.37748   0.10790   0.82307   0.00000  Uiso   1.00
N367   N     0.16475   0.65243   0.54958   0.00000  Uiso   1.00
N368   N     0.41360   0.94817   0.62333   0.00000  Uiso   1.00
