data_job_03041
_audit_creation_date              2018-12-19
_audit_creation_method            'Materials Studio'
_symmetry_space_group_name_H-M    'P1'
_symmetry_Int_Tables_number       1
_symmetry_cell_setting            triclinic
loop_
_symmetry_equiv_pos_as_xyz
  x,y,z
_cell_length_a                    12.2757
_cell_length_b                    23.3887
_cell_length_c                    11.0547
_cell_angle_alpha                 90.0000
_cell_angle_beta                  103.8680
_cell_angle_gamma                 90.0000
loop_
_atom_site_label
_atom_site_type_symbol
_atom_site_fract_x
_atom_site_fract_y
_atom_site_fract_z
_atom_site_U_iso_or_equiv
_atom_site_adp_type
_atom_site_occupancy
C1     C     0.75107   0.40949   0.47727   0.00000  Uiso   1.00
C2     C     0.73124   0.45281   0.57283   0.00000  Uiso   1.00
C3     C     0.69435   0.50861   0.54755   0.00000  Uiso   1.00
C4     C     0.68146   0.54146   0.64781   0.00000  Uiso   1.00
C5     C     0.64718   0.61212   0.77777   0.00000  Uiso   1.00
C6     C     0.87249   0.38990   0.52290   0.00000  Uiso   1.00
C7     C     0.95436   0.39280   0.45562   0.00000  Uiso   1.00
C8     C     0.06038   0.37269   0.51383   0.00000  Uiso   1.00
C9     C     0.24539   0.34564   0.56623   0.00000  Uiso   1.00
C10    C     0.67876   0.35772   0.48892   0.00000  Uiso   1.00
C11    C     0.59776   0.33355   0.39306   0.00000  Uiso   1.00
C12    C     0.54069   0.28632   0.42267   0.00000  Uiso   1.00
C13    C     0.42490   0.20931   0.42231   0.00000  Uiso   1.00
C14    C     0.79377   0.36859   0.70028   0.00000  Uiso   1.00
C15    C     0.75444   0.43060   0.69396   0.00000  Uiso   1.00
C16    C     0.74159   0.46337   0.79428   0.00000  Uiso   1.00
C17    C     0.70469   0.51921   0.76915   0.00000  Uiso   1.00
C18    C     0.89569   0.36769   0.64402   0.00000  Uiso   1.00
C19    C     0.00161   0.34756   0.70235   0.00000  Uiso   1.00
C20    C     0.08362   0.35043   0.63518   0.00000  Uiso   1.00
C21    C     0.70195   0.33550   0.61005   0.00000  Uiso   1.00
C22    C     0.64500   0.28830   0.63980   0.00000  Uiso   1.00
C23    C     0.56393   0.26407   0.54401   0.00000  Uiso   1.00
H24    H     0.73302   0.42678   0.38297   0.00000  Uiso   1.00
H25    H     0.67642   0.52579   0.45380   0.00000  Uiso   1.00
H26    H     0.93639   0.40999   0.36188   0.00000  Uiso   1.00
H27    H     0.57984   0.35075   0.29934   0.00000  Uiso   1.00
H28    H     0.62393   0.62577   0.58575   0.00000  Uiso   1.00
H29    H     0.17208   0.38159   0.39191   0.00000  Uiso   1.00
H30    H     0.42023   0.25666   0.26003   0.00000  Uiso   1.00
H31    H     0.81184   0.35129   0.79459   0.00000  Uiso   1.00
H32    H     0.75955   0.44617   0.88801   0.00000  Uiso   1.00
H33    H     0.01952   0.33037   0.79608   0.00000  Uiso   1.00
H34    H     0.66297   0.27112   0.73354   0.00000  Uiso   1.00
H35    H     0.69141   0.56115   0.93817   0.00000  Uiso   1.00
H36    H     0.23956   0.31696   0.74432   0.00000  Uiso   1.00
H37    H     0.48771   0.19203   0.61245   0.00000  Uiso   1.00
O38    O     0.62189   0.65724   0.81600   0.00000  Uiso   1.00
O39    O     0.34103   0.33687   0.56167   0.00000  Uiso   1.00
O40    O     0.35462   0.17297   0.38866   0.00000  Uiso   1.00
N41    N     0.64696   0.59754   0.65587   0.00000  Uiso   1.00
N42    N     0.15946   0.36925   0.47465   0.00000  Uiso   1.00
N43    N     0.45656   0.25244   0.35135   0.00000  Uiso   1.00
N44    N     0.68327   0.56277   0.84550   0.00000  Uiso   1.00
N45    N     0.19576   0.33448   0.66428   0.00000  Uiso   1.00
N46    N     0.49287   0.21767   0.54098   0.00000  Uiso   1.00
C47    C     0.24893   0.90949   0.02273   0.00000  Uiso   1.00
C48    C     0.26876   0.95281   0.92717   0.00000  Uiso   1.00
C49    C     0.30565   0.00861   0.95245   0.00000  Uiso   1.00
C50    C     0.31854   0.04146   0.85219   0.00000  Uiso   1.00
C51    C     0.35282   0.11212   0.72223   0.00000  Uiso   1.00
C52    C     0.12751   0.88990   0.97710   0.00000  Uiso   1.00
C53    C     0.04564   0.89280   0.04438   0.00000  Uiso   1.00
C54    C     0.93962   0.87269   0.98617   0.00000  Uiso   1.00
C55    C     0.75461   0.84564   0.93377   0.00000  Uiso   1.00
C56    C     0.32124   0.85772   0.01108   0.00000  Uiso   1.00
C57    C     0.40224   0.83355   0.10694   0.00000  Uiso   1.00
C58    C     0.45931   0.78632   0.07733   0.00000  Uiso   1.00
C59    C     0.57510   0.70931   0.07769   0.00000  Uiso   1.00
C60    C     0.20623   0.86859   0.79972   0.00000  Uiso   1.00
C61    C     0.24556   0.93060   0.80604   0.00000  Uiso   1.00
C62    C     0.25841   0.96337   0.70572   0.00000  Uiso   1.00
C63    C     0.29531   0.01921   0.73085   0.00000  Uiso   1.00
C64    C     0.10431   0.86769   0.85598   0.00000  Uiso   1.00
C65    C     0.99839   0.84756   0.79765   0.00000  Uiso   1.00
C66    C     0.91638   0.85043   0.86482   0.00000  Uiso   1.00
C67    C     0.29805   0.83550   0.88995   0.00000  Uiso   1.00
C68    C     0.35500   0.78830   0.86020   0.00000  Uiso   1.00
C69    C     0.43607   0.76407   0.95599   0.00000  Uiso   1.00
H70    H     0.26698   0.92678   0.11703   0.00000  Uiso   1.00
H71    H     0.32358   0.02579   0.04620   0.00000  Uiso   1.00
H72    H     0.06361   0.90999   0.13812   0.00000  Uiso   1.00
H73    H     0.42016   0.85075   0.20066   0.00000  Uiso   1.00
H74    H     0.37607   0.12577   0.91425   0.00000  Uiso   1.00
H75    H     0.82792   0.88159   0.10809   0.00000  Uiso   1.00
H76    H     0.57977   0.75666   0.23997   0.00000  Uiso   1.00
H77    H     0.18816   0.85129   0.70541   0.00000  Uiso   1.00
H78    H     0.24045   0.94617   0.61199   0.00000  Uiso   1.00
H79    H     0.98048   0.83037   0.70392   0.00000  Uiso   1.00
H80    H     0.33703   0.77112   0.76646   0.00000  Uiso   1.00
H81    H     0.30859   0.06115   0.56183   0.00000  Uiso   1.00
H82    H     0.76044   0.81696   0.75568   0.00000  Uiso   1.00
H83    H     0.51229   0.69203   0.88755   0.00000  Uiso   1.00
O84    O     0.37811   0.15724   0.68400   0.00000  Uiso   1.00
O85    O     0.65897   0.83687   0.93833   0.00000  Uiso   1.00
O86    O     0.64538   0.67297   0.11134   0.00000  Uiso   1.00
N87    N     0.35304   0.09754   0.84413   0.00000  Uiso   1.00
N88    N     0.84054   0.86925   0.02535   0.00000  Uiso   1.00
N89    N     0.54344   0.75244   0.14865   0.00000  Uiso   1.00
N90    N     0.31673   0.06277   0.65450   0.00000  Uiso   1.00
N91    N     0.80424   0.83448   0.83572   0.00000  Uiso   1.00
N92    N     0.50713   0.71767   0.95902   0.00000  Uiso   1.00
C93    C     0.24893   0.59051   0.52273   0.00000  Uiso   1.00
C94    C     0.26876   0.54719   0.42717   0.00000  Uiso   1.00
C95    C     0.30565   0.49139   0.45245   0.00000  Uiso   1.00
C96    C     0.31854   0.45854   0.35219   0.00000  Uiso   1.00
C97    C     0.35282   0.38788   0.22223   0.00000  Uiso   1.00
C98    C     0.12751   0.61010   0.47710   0.00000  Uiso   1.00
C99    C     0.04564   0.60720   0.54438   0.00000  Uiso   1.00
C100   C     0.93962   0.62731   0.48617   0.00000  Uiso   1.00
C101   C     0.75461   0.65436   0.43377   0.00000  Uiso   1.00
C102   C     0.32124   0.64228   0.51108   0.00000  Uiso   1.00
C103   C     0.40224   0.66645   0.60694   0.00000  Uiso   1.00
C104   C     0.45931   0.71368   0.57733   0.00000  Uiso   1.00
C105   C     0.57510   0.79069   0.57769   0.00000  Uiso   1.00
C106   C     0.20623   0.63141   0.29972   0.00000  Uiso   1.00
C107   C     0.24556   0.56940   0.30604   0.00000  Uiso   1.00
C108   C     0.25841   0.53663   0.20572   0.00000  Uiso   1.00
C109   C     0.29531   0.48079   0.23085   0.00000  Uiso   1.00
C110   C     0.10431   0.63231   0.35598   0.00000  Uiso   1.00
C111   C     0.99839   0.65244   0.29765   0.00000  Uiso   1.00
C112   C     0.91638   0.64957   0.36482   0.00000  Uiso   1.00
C113   C     0.29805   0.66450   0.38995   0.00000  Uiso   1.00
C114   C     0.35500   0.71170   0.36020   0.00000  Uiso   1.00
C115   C     0.43607   0.73593   0.45599   0.00000  Uiso   1.00
H116   H     0.26698   0.57322   0.61703   0.00000  Uiso   1.00
H117   H     0.32358   0.47421   0.54620   0.00000  Uiso   1.00
H118   H     0.06361   0.59001   0.63812   0.00000  Uiso   1.00
H119   H     0.42016   0.64925   0.70066   0.00000  Uiso   1.00
H120   H     0.37607   0.37423   0.41425   0.00000  Uiso   1.00
H121   H     0.82792   0.61841   0.60809   0.00000  Uiso   1.00
H122   H     0.57977   0.74334   0.73997   0.00000  Uiso   1.00
H123   H     0.18816   0.64871   0.20541   0.00000  Uiso   1.00
H124   H     0.24045   0.55383   0.11199   0.00000  Uiso   1.00
H125   H     0.98048   0.66963   0.20392   0.00000  Uiso   1.00
H126   H     0.33703   0.72888   0.26646   0.00000  Uiso   1.00
H127   H     0.30859   0.43885   0.06183   0.00000  Uiso   1.00
H128   H     0.76044   0.68304   0.25568   0.00000  Uiso   1.00
H129   H     0.51229   0.80797   0.38755   0.00000  Uiso   1.00
O130   O     0.37811   0.34276   0.18400   0.00000  Uiso   1.00
O131   O     0.65897   0.66313   0.43833   0.00000  Uiso   1.00
O132   O     0.64538   0.82703   0.61134   0.00000  Uiso   1.00
N133   N     0.35304   0.40246   0.34413   0.00000  Uiso   1.00
N134   N     0.84054   0.63075   0.52535   0.00000  Uiso   1.00
N135   N     0.54344   0.74756   0.64865   0.00000  Uiso   1.00
N136   N     0.31673   0.43723   0.15450   0.00000  Uiso   1.00
N137   N     0.80424   0.66552   0.33572   0.00000  Uiso   1.00
N138   N     0.50713   0.78233   0.45902   0.00000  Uiso   1.00
C139   C     0.75107   0.09051   0.97727   0.00000  Uiso   1.00
C140   C     0.73124   0.04719   0.07283   0.00000  Uiso   1.00
C141   C     0.69435   0.99139   0.04755   0.00000  Uiso   1.00
C142   C     0.68146   0.95854   0.14781   0.00000  Uiso   1.00
C143   C     0.64718   0.88788   0.27777   0.00000  Uiso   1.00
C144   C     0.87249   0.11010   0.02290   0.00000  Uiso   1.00
C145   C     0.95436   0.10720   0.95562   0.00000  Uiso   1.00
C146   C     0.06038   0.12731   0.01383   0.00000  Uiso   1.00
C147   C     0.24539   0.15436   0.06623   0.00000  Uiso   1.00
C148   C     0.67876   0.14228   0.98892   0.00000  Uiso   1.00
C149   C     0.59776   0.16645   0.89306   0.00000  Uiso   1.00
C150   C     0.54069   0.21368   0.92267   0.00000  Uiso   1.00
C151   C     0.42490   0.29069   0.92231   0.00000  Uiso   1.00
C152   C     0.79377   0.13141   0.20028   0.00000  Uiso   1.00
C153   C     0.75444   0.06940   0.19396   0.00000  Uiso   1.00
C154   C     0.74159   0.03663   0.29428   0.00000  Uiso   1.00
C155   C     0.70469   0.98079   0.26915   0.00000  Uiso   1.00
C156   C     0.89569   0.13231   0.14402   0.00000  Uiso   1.00
C157   C     0.00161   0.15244   0.20235   0.00000  Uiso   1.00
C158   C     0.08362   0.14957   0.13518   0.00000  Uiso   1.00
C159   C     0.70195   0.16450   0.11005   0.00000  Uiso   1.00
C160   C     0.64500   0.21170   0.13980   0.00000  Uiso   1.00
C161   C     0.56393   0.23593   0.04401   0.00000  Uiso   1.00
H162   H     0.73302   0.07322   0.88297   0.00000  Uiso   1.00
H163   H     0.67642   0.97421   0.95380   0.00000  Uiso   1.00
H164   H     0.93639   0.09001   0.86188   0.00000  Uiso   1.00
H165   H     0.57984   0.14925   0.79934   0.00000  Uiso   1.00
H166   H     0.62393   0.87423   0.08575   0.00000  Uiso   1.00
H167   H     0.17208   0.11841   0.89191   0.00000  Uiso   1.00
H168   H     0.42023   0.24334   0.76003   0.00000  Uiso   1.00
H169   H     0.81184   0.14871   0.29459   0.00000  Uiso   1.00
H170   H     0.75955   0.05383   0.38801   0.00000  Uiso   1.00
H171   H     0.01952   0.16963   0.29608   0.00000  Uiso   1.00
H172   H     0.66297   0.22888   0.23354   0.00000  Uiso   1.00
H173   H     0.69141   0.93885   0.43817   0.00000  Uiso   1.00
H174   H     0.23956   0.18304   0.24432   0.00000  Uiso   1.00
H175   H     0.48771   0.30797   0.11245   0.00000  Uiso   1.00
O176   O     0.62189   0.84276   0.31600   0.00000  Uiso   1.00
O177   O     0.34103   0.16313   0.06167   0.00000  Uiso   1.00
O178   O     0.35462   0.32703   0.88866   0.00000  Uiso   1.00
N179   N     0.64696   0.90246   0.15587   0.00000  Uiso   1.00
N180   N     0.15946   0.13075   0.97465   0.00000  Uiso   1.00
N181   N     0.45656   0.24756   0.85135   0.00000  Uiso   1.00
N182   N     0.68327   0.93723   0.34550   0.00000  Uiso   1.00
N183   N     0.19576   0.16552   0.16428   0.00000  Uiso   1.00
N184   N     0.49287   0.28233   0.04098   0.00000  Uiso   1.00
