data_job_04178
_audit_creation_date              2018-12-19
_audit_creation_method            'Materials Studio'
_symmetry_space_group_name_H-M    'P1'
_symmetry_Int_Tables_number       1
_symmetry_cell_setting            triclinic
loop_
_symmetry_equiv_pos_as_xyz
  x,y,z
_cell_length_a                    24.4888
_cell_length_b                    8.1490
_cell_length_c                    13.8340
_cell_angle_alpha                 90.0000
_cell_angle_beta                  90.0000
_cell_angle_gamma                 90.0000
loop_
_atom_site_label
_atom_site_type_symbol
_atom_site_fract_x
_atom_site_fract_y
_atom_site_fract_z
_atom_site_U_iso_or_equiv
_atom_site_adp_type
_atom_site_occupancy
C1     C     0.89719   0.48516   0.12376   0.00000  Uiso   1.00
C2     C     0.88778   0.32072   0.07386   0.00000  Uiso   1.00
C3     C     0.86624   0.29903   0.98196   0.00000  Uiso   1.00
C4     C     0.86087   0.13874   0.94932   0.00000  Uiso   1.00
C5     C     0.84386   0.90373   0.86314   0.00000  Uiso   1.00
C6     C     0.86594   0.47683   0.21899   0.00000  Uiso   1.00
C7     C     0.82604   0.58643   0.24911   0.00000  Uiso   1.00
C8     C     0.80229   0.55756   0.33865   0.00000  Uiso   1.00
C9     C     0.75141   0.56499   0.47781   0.00000  Uiso   1.00
C10    C     0.95755   0.48927   0.15071   0.00000  Uiso   1.00
C11    C     0.99467   0.60934   0.12344   0.00000  Uiso   1.00
C12    C     0.04805   0.59095   0.15551   0.00000  Uiso   1.00
C13    C     0.13940   0.61769   0.18866   0.00000  Uiso   1.00
C14    C     0.92597   0.23903   0.22921   0.00000  Uiso   1.00
C15    C     0.90341   0.18703   0.13114   0.00000  Uiso   1.00
C16    C     0.89808   0.02672   0.09863   0.00000  Uiso   1.00
C17    C     0.87653   0.00481   0.00669   0.00000  Uiso   1.00
C18    C     0.88157   0.34315   0.27626   0.00000  Uiso   1.00
C19    C     0.85788   0.31412   0.36578   0.00000  Uiso   1.00
C20    C     0.81795   0.42363   0.39603   0.00000  Uiso   1.00
C21    C     0.97318   0.35558   0.20798   0.00000  Uiso   1.00
C22    C     0.02651   0.33702   0.24010   0.00000  Uiso   1.00
C23    C     0.06371   0.45703   0.21289   0.00000  Uiso   1.00
H24    H     0.88501   0.58924   0.07918   0.00000  Uiso   1.00
H25    H     0.85414   0.40252   0.93766   0.00000  Uiso   1.00
H26    H     0.81396   0.68988   0.20478   0.00000  Uiso   1.00
H27    H     0.98256   0.71277   0.07912   0.00000  Uiso   1.00
H28    H     0.82678   0.13655   0.80604   0.00000  Uiso   1.00
H29    H     0.74207   0.74249   0.36928   0.00000  Uiso   1.00
H30    H     0.09760   0.79078   0.10431   0.00000  Uiso   1.00
H31    H     0.93814   0.13495   0.27381   0.00000  Uiso   1.00
H32    H     0.91018   0.92329   0.14297   0.00000  Uiso   1.00
H33    H     0.86999   0.21065   0.41008   0.00000  Uiso   1.00
H34    H     0.03859   0.23355   0.28443   0.00000  Uiso   1.00
H35    H     0.87226   0.74759   0.97267   0.00000  Uiso   1.00
H36    H     0.78755   0.35354   0.53592   0.00000  Uiso   1.00
H37    H     0.14308   0.40181   0.27095   0.00000  Uiso   1.00
O38    O     0.83016   0.81103   0.79979   0.00000  Uiso   1.00
O39    O     0.71902   0.60602   0.53874   0.00000  Uiso   1.00
O40    O     0.18547   0.66936   0.19111   0.00000  Uiso   1.00
N41    N     0.84133   0.07406   0.86321   0.00000  Uiso   1.00
N42    N     0.76212   0.64056   0.38979   0.00000  Uiso   1.00
N43    N     0.09451   0.68573   0.14209   0.00000  Uiso   1.00
N44    N     0.86581   0.86476   0.95287   0.00000  Uiso   1.00
N45    N     0.78660   0.43126   0.47946   0.00000  Uiso   1.00
N46    N     0.11899   0.47643   0.23176   0.00000  Uiso   1.00
C47    C     0.10281   0.51484   0.62376   0.00000  Uiso   1.00
C48    C     0.11222   0.67928   0.57386   0.00000  Uiso   1.00
C49    C     0.13376   0.70097   0.48196   0.00000  Uiso   1.00
C50    C     0.13913   0.86126   0.44932   0.00000  Uiso   1.00
C51    C     0.15614   0.09627   0.36314   0.00000  Uiso   1.00
C52    C     0.13406   0.52317   0.71899   0.00000  Uiso   1.00
C53    C     0.17396   0.41357   0.74911   0.00000  Uiso   1.00
C54    C     0.19771   0.44244   0.83865   0.00000  Uiso   1.00
C55    C     0.24859   0.43501   0.97781   0.00000  Uiso   1.00
C56    C     0.04245   0.51073   0.65071   0.00000  Uiso   1.00
C57    C     0.00533   0.39066   0.62344   0.00000  Uiso   1.00
C58    C     0.95195   0.40905   0.65551   0.00000  Uiso   1.00
C59    C     0.86060   0.38231   0.68866   0.00000  Uiso   1.00
C60    C     0.07403   0.76097   0.72921   0.00000  Uiso   1.00
C61    C     0.09659   0.81297   0.63114   0.00000  Uiso   1.00
C62    C     0.10192   0.97328   0.59863   0.00000  Uiso   1.00
C63    C     0.12347   0.99519   0.50669   0.00000  Uiso   1.00
C64    C     0.11843   0.65685   0.77626   0.00000  Uiso   1.00
C65    C     0.14212   0.68588   0.86578   0.00000  Uiso   1.00
C66    C     0.18205   0.57637   0.89603   0.00000  Uiso   1.00
C67    C     0.02682   0.64442   0.70798   0.00000  Uiso   1.00
C68    C     0.97349   0.66298   0.74010   0.00000  Uiso   1.00
C69    C     0.93629   0.54297   0.71289   0.00000  Uiso   1.00
H70    H     0.11499   0.41076   0.57918   0.00000  Uiso   1.00
H71    H     0.14586   0.59748   0.43766   0.00000  Uiso   1.00
H72    H     0.18604   0.31012   0.70478   0.00000  Uiso   1.00
H73    H     0.01744   0.28723   0.57912   0.00000  Uiso   1.00
H74    H     0.17322   0.86345   0.30604   0.00000  Uiso   1.00
H75    H     0.25793   0.25751   0.86928   0.00000  Uiso   1.00
H76    H     0.90240   0.20922   0.60431   0.00000  Uiso   1.00
H77    H     0.06186   0.86505   0.77381   0.00000  Uiso   1.00
H78    H     0.08982   0.07671   0.64297   0.00000  Uiso   1.00
H79    H     0.13001   0.78935   0.91008   0.00000  Uiso   1.00
H80    H     0.96141   0.76645   0.78443   0.00000  Uiso   1.00
H81    H     0.12774   0.25241   0.47267   0.00000  Uiso   1.00
H82    H     0.21245   0.64646   0.03592   0.00000  Uiso   1.00
H83    H     0.85692   0.59819   0.77095   0.00000  Uiso   1.00
O84    O     0.16984   0.18897   0.29979   0.00000  Uiso   1.00
O85    O     0.28098   0.39398   0.03874   0.00000  Uiso   1.00
O86    O     0.81453   0.33064   0.69111   0.00000  Uiso   1.00
N87    N     0.15867   0.92594   0.36321   0.00000  Uiso   1.00
N88    N     0.23788   0.35944   0.88979   0.00000  Uiso   1.00
N89    N     0.90549   0.31427   0.64209   0.00000  Uiso   1.00
N90    N     0.13419   0.13524   0.45287   0.00000  Uiso   1.00
N91    N     0.21340   0.56874   0.97946   0.00000  Uiso   1.00
N92    N     0.88101   0.52357   0.73176   0.00000  Uiso   1.00
C93    C     0.39719   0.51484   0.12376   0.00000  Uiso   1.00
C94    C     0.38778   0.67928   0.07386   0.00000  Uiso   1.00
C95    C     0.36624   0.70097   0.98196   0.00000  Uiso   1.00
C96    C     0.36087   0.86126   0.94932   0.00000  Uiso   1.00
C97    C     0.34386   0.09627   0.86314   0.00000  Uiso   1.00
C98    C     0.36594   0.52317   0.21899   0.00000  Uiso   1.00
C99    C     0.32604   0.41357   0.24911   0.00000  Uiso   1.00
C100   C     0.30229   0.44244   0.33865   0.00000  Uiso   1.00
C101   C     0.25141   0.43501   0.47781   0.00000  Uiso   1.00
C102   C     0.45755   0.51073   0.15071   0.00000  Uiso   1.00
C103   C     0.49467   0.39066   0.12344   0.00000  Uiso   1.00
C104   C     0.54805   0.40905   0.15551   0.00000  Uiso   1.00
C105   C     0.63940   0.38231   0.18866   0.00000  Uiso   1.00
C106   C     0.42597   0.76097   0.22921   0.00000  Uiso   1.00
C107   C     0.40341   0.81297   0.13114   0.00000  Uiso   1.00
C108   C     0.39808   0.97328   0.09863   0.00000  Uiso   1.00
C109   C     0.37653   0.99519   0.00669   0.00000  Uiso   1.00
C110   C     0.38157   0.65685   0.27626   0.00000  Uiso   1.00
C111   C     0.35788   0.68588   0.36578   0.00000  Uiso   1.00
C112   C     0.31795   0.57637   0.39603   0.00000  Uiso   1.00
C113   C     0.47318   0.64442   0.20798   0.00000  Uiso   1.00
C114   C     0.52651   0.66298   0.24010   0.00000  Uiso   1.00
C115   C     0.56371   0.54297   0.21289   0.00000  Uiso   1.00
H116   H     0.38501   0.41076   0.07918   0.00000  Uiso   1.00
H117   H     0.35414   0.59748   0.93766   0.00000  Uiso   1.00
H118   H     0.31396   0.31012   0.20478   0.00000  Uiso   1.00
H119   H     0.48256   0.28723   0.07912   0.00000  Uiso   1.00
H120   H     0.32678   0.86345   0.80604   0.00000  Uiso   1.00
H121   H     0.24207   0.25751   0.36928   0.00000  Uiso   1.00
H122   H     0.59760   0.20922   0.10431   0.00000  Uiso   1.00
H123   H     0.43814   0.86505   0.27381   0.00000  Uiso   1.00
H124   H     0.41018   0.07671   0.14297   0.00000  Uiso   1.00
H125   H     0.36999   0.78935   0.41008   0.00000  Uiso   1.00
H126   H     0.53859   0.76645   0.28443   0.00000  Uiso   1.00
H127   H     0.37226   0.25241   0.97267   0.00000  Uiso   1.00
H128   H     0.28755   0.64646   0.53592   0.00000  Uiso   1.00
H129   H     0.64308   0.59819   0.27095   0.00000  Uiso   1.00
O130   O     0.33016   0.18897   0.79979   0.00000  Uiso   1.00
O131   O     0.21902   0.39398   0.53874   0.00000  Uiso   1.00
O132   O     0.68547   0.33064   0.19111   0.00000  Uiso   1.00
N133   N     0.34133   0.92594   0.86321   0.00000  Uiso   1.00
N134   N     0.26212   0.35944   0.38979   0.00000  Uiso   1.00
N135   N     0.59451   0.31427   0.14209   0.00000  Uiso   1.00
N136   N     0.36581   0.13524   0.95287   0.00000  Uiso   1.00
N137   N     0.28660   0.56874   0.47946   0.00000  Uiso   1.00
N138   N     0.61899   0.52357   0.23176   0.00000  Uiso   1.00
C139   C     0.60281   0.48516   0.62376   0.00000  Uiso   1.00
C140   C     0.61222   0.32072   0.57386   0.00000  Uiso   1.00
C141   C     0.63376   0.29903   0.48196   0.00000  Uiso   1.00
C142   C     0.63913   0.13874   0.44932   0.00000  Uiso   1.00
C143   C     0.65614   0.90373   0.36314   0.00000  Uiso   1.00
C144   C     0.63406   0.47683   0.71899   0.00000  Uiso   1.00
C145   C     0.67396   0.58643   0.74911   0.00000  Uiso   1.00
C146   C     0.69771   0.55756   0.83865   0.00000  Uiso   1.00
C147   C     0.74859   0.56499   0.97781   0.00000  Uiso   1.00
C148   C     0.54245   0.48927   0.65071   0.00000  Uiso   1.00
C149   C     0.50533   0.60934   0.62344   0.00000  Uiso   1.00
C150   C     0.45195   0.59095   0.65551   0.00000  Uiso   1.00
C151   C     0.36060   0.61769   0.68866   0.00000  Uiso   1.00
C152   C     0.57403   0.23903   0.72921   0.00000  Uiso   1.00
C153   C     0.59659   0.18703   0.63114   0.00000  Uiso   1.00
C154   C     0.60192   0.02672   0.59863   0.00000  Uiso   1.00
C155   C     0.62347   0.00481   0.50669   0.00000  Uiso   1.00
C156   C     0.61843   0.34315   0.77626   0.00000  Uiso   1.00
C157   C     0.64212   0.31412   0.86578   0.00000  Uiso   1.00
C158   C     0.68205   0.42363   0.89603   0.00000  Uiso   1.00
C159   C     0.52682   0.35558   0.70798   0.00000  Uiso   1.00
C160   C     0.47349   0.33702   0.74010   0.00000  Uiso   1.00
C161   C     0.43629   0.45703   0.71289   0.00000  Uiso   1.00
H162   H     0.61499   0.58924   0.57918   0.00000  Uiso   1.00
H163   H     0.64586   0.40252   0.43766   0.00000  Uiso   1.00
H164   H     0.68604   0.68988   0.70478   0.00000  Uiso   1.00
H165   H     0.51744   0.71277   0.57912   0.00000  Uiso   1.00
H166   H     0.67322   0.13655   0.30604   0.00000  Uiso   1.00
H167   H     0.75793   0.74249   0.86928   0.00000  Uiso   1.00
H168   H     0.40240   0.79078   0.60431   0.00000  Uiso   1.00
H169   H     0.56186   0.13495   0.77381   0.00000  Uiso   1.00
H170   H     0.58982   0.92329   0.64297   0.00000  Uiso   1.00
H171   H     0.63001   0.21065   0.91008   0.00000  Uiso   1.00
H172   H     0.46141   0.23355   0.78443   0.00000  Uiso   1.00
H173   H     0.62774   0.74759   0.47267   0.00000  Uiso   1.00
H174   H     0.71245   0.35354   0.03592   0.00000  Uiso   1.00
H175   H     0.35692   0.40181   0.77095   0.00000  Uiso   1.00
O176   O     0.66984   0.81103   0.29979   0.00000  Uiso   1.00
O177   O     0.78098   0.60602   0.03874   0.00000  Uiso   1.00
O178   O     0.31453   0.66936   0.69111   0.00000  Uiso   1.00
N179   N     0.65867   0.07406   0.36321   0.00000  Uiso   1.00
N180   N     0.73788   0.64056   0.88979   0.00000  Uiso   1.00
N181   N     0.40549   0.68573   0.64209   0.00000  Uiso   1.00
N182   N     0.63419   0.86476   0.45287   0.00000  Uiso   1.00
N183   N     0.71340   0.43126   0.97946   0.00000  Uiso   1.00
N184   N     0.38101   0.47643   0.73176   0.00000  Uiso   1.00
