data_job_06521
_audit_creation_date              2018-12-19
_audit_creation_method            'Materials Studio'
_symmetry_space_group_name_H-M    'P1'
_symmetry_Int_Tables_number       1
_symmetry_cell_setting            triclinic
loop_
_symmetry_equiv_pos_as_xyz
  x,y,z
_cell_length_a                    18.6615
_cell_length_b                    20.6898
_cell_length_c                    23.2108
_cell_angle_alpha                 89.5410
_cell_angle_beta                  68.1052
_cell_angle_gamma                 66.3157
loop_
_atom_site_label
_atom_site_type_symbol
_atom_site_fract_x
_atom_site_fract_y
_atom_site_fract_z
_atom_site_U_iso_or_equiv
_atom_site_adp_type
_atom_site_occupancy
C1     C     0.79483   0.60131   0.86584   0.00000  Uiso   1.00
C2     C     0.76616   0.66821   0.83656   0.00000  Uiso   1.00
C3     C     0.76814   0.66940   0.77621   0.00000  Uiso   1.00
C4     C     0.73914   0.73605   0.75825   0.00000  Uiso   1.00
C5     C     0.69922   0.83034   0.70655   0.00000  Uiso   1.00
C6     C     0.86241   0.60397   0.88637   0.00000  Uiso   1.00
C7     C     0.94531   0.55114   0.86790   0.00000  Uiso   1.00
C8     C     0.99732   0.56372   0.89189   0.00000  Uiso   1.00
C9     C     0.10681   0.55824   0.91755   0.00000  Uiso   1.00
C10    C     0.71820   0.61140   0.92628   0.00000  Uiso   1.00
C11    C     0.67986   0.56480   0.94138   0.00000  Uiso   1.00
C12    C     0.61046   0.58361   0.99898   0.00000  Uiso   1.00
C13    C     0.49604   0.58967   0.08661   0.00000  Uiso   1.00
C14    C     0.73979   0.71756   0.94128   0.00000  Uiso   1.00
C15    C     0.73627   0.73136   0.87754   0.00000  Uiso   1.00
C16    C     0.70725   0.79802   0.85967   0.00000  Uiso   1.00
C17    C     0.70919   0.79931   0.79930   0.00000  Uiso   1.00
C18    C     0.83252   0.66711   0.92734   0.00000  Uiso   1.00
C19    C     0.88442   0.67977   0.95137   0.00000  Uiso   1.00
C20    C     0.96738   0.62697   0.93294   0.00000  Uiso   1.00
C21    C     0.68830   0.67454   0.96726   0.00000  Uiso   1.00
C22    C     0.61896   0.69343   0.02484   0.00000  Uiso   1.00
C23    C     0.58052   0.64687   0.04003   0.00000  Uiso   1.00
H24    H     0.81810   0.55214   0.83394   0.00000  Uiso   1.00
H25    H     0.79129   0.62052   0.74451   0.00000  Uiso   1.00
H26    H     0.96842   0.50228   0.83620   0.00000  Uiso   1.00
H27    H     0.70301   0.51594   0.90966   0.00000  Uiso   1.00
H28    H     0.74841   0.72418   0.66342   0.00000  Uiso   1.00
H29    H     0.12189   0.47485   0.85677   0.00000  Uiso   1.00
H30    H     0.56221   0.50365   0.01169   0.00000  Uiso   1.00
H31    H     0.71652   0.76672   0.97318   0.00000  Uiso   1.00
H32    H     0.68413   0.84688   0.89139   0.00000  Uiso   1.00
H33    H     0.86126   0.72863   0.98308   0.00000  Uiso   1.00
H34    H     0.59585   0.74229   0.05654   0.00000  Uiso   1.00
H35    H     0.66143   0.90790   0.78263   0.00000  Uiso   1.00
H36    H     0.03492   0.65857   0.97598   0.00000  Uiso   1.00
H37    H     0.47524   0.68737   0.13090   0.00000  Uiso   1.00
O38    O     0.68547   0.86490   0.66670   0.00000  Uiso   1.00
O39    O     0.17546   0.53778   0.92037   0.00000  Uiso   1.00
O40    O     0.44118   0.57557   0.12362   0.00000  Uiso   1.00
N41    N     0.73237   0.75642   0.70271   0.00000  Uiso   1.00
N42    N     0.08156   0.52332   0.88347   0.00000  Uiso   1.00
N43    N     0.55832   0.55023   0.02831   0.00000  Uiso   1.00
N44    N     0.68556   0.85528   0.76685   0.00000  Uiso   1.00
N45    N     0.03476   0.62217   0.94761   0.00000  Uiso   1.00
N46    N     0.51152   0.64909   0.09246   0.00000  Uiso   1.00
C47    C     0.01105   0.76610   0.35198   0.00000  Uiso   1.00
C48    C     0.04651   0.74271   0.28105   0.00000  Uiso   1.00
C49    C     0.00902   0.77719   0.24118   0.00000  Uiso   1.00
C50    C     0.05148   0.74734   0.17777   0.00000  Uiso   1.00
C51    C     0.09479   0.72044   0.07109   0.00000  Uiso   1.00
C52    C     0.00255   0.70218   0.38180   0.00000  Uiso   1.00
C53    C     0.92810   0.70260   0.42666   0.00000  Uiso   1.00
C54    C     0.93357   0.63863   0.44806   0.00000  Uiso   1.00
C55    C     0.90864   0.54882   0.49784   0.00000  Uiso   1.00
C56    C     0.08145   0.77506   0.36448   0.00000  Uiso   1.00
C57    C     0.07333   0.83674   0.39478   0.00000  Uiso   1.00
C58    C     0.14522   0.83412   0.40161   0.00000  Uiso   1.00
C59    C     0.24279   0.85747   0.42448   0.00000  Uiso   1.00
C60    C     0.15314   0.65176   0.31024   0.00000  Uiso   1.00
C61    C     0.12369   0.68060   0.25838   0.00000  Uiso   1.00
C62    C     0.16623   0.65069   0.19500   0.00000  Uiso   1.00
C63    C     0.12880   0.68512   0.15505   0.00000  Uiso   1.00
C64    C     0.07973   0.64008   0.35913   0.00000  Uiso   1.00
C65    C     0.08531   0.57609   0.38048   0.00000  Uiso   1.00
C66    C     0.01089   0.57641   0.42535   0.00000  Uiso   1.00
C67    C     0.15863   0.71295   0.34180   0.00000  Uiso   1.00
C68    C     0.23054   0.71023   0.34859   0.00000  Uiso   1.00
C69    C     0.22254   0.77190   0.37890   0.00000  Uiso   1.00
H70    H     0.95096   0.81445   0.36963   0.00000  Uiso   1.00
H71    H     0.94928   0.82525   0.25875   0.00000  Uiso   1.00
H72    H     0.86839   0.75067   0.44420   0.00000  Uiso   1.00
H73    H     0.01360   0.88479   0.41232   0.00000  Uiso   1.00
H74    H     0.98145   0.80982   0.12582   0.00000  Uiso   1.00
H75    H     0.81088   0.65256   0.51687   0.00000  Uiso   1.00
H76    H     0.11708   0.93539   0.44965   0.00000  Uiso   1.00
H77    H     0.21323   0.60340   0.29259   0.00000  Uiso   1.00
H78    H     0.22595   0.60262   0.17747   0.00000  Uiso   1.00
H79    H     0.14505   0.52804   0.36292   0.00000  Uiso   1.00
H80    H     0.29026   0.66216   0.33104   0.00000  Uiso   1.00
H81    H     0.20600   0.62912   0.05986   0.00000  Uiso   1.00
H82    H     0.03543   0.47187   0.45090   0.00000  Uiso   1.00
H83    H     0.34163   0.75470   0.38368   0.00000  Uiso   1.00
O84    O     0.09735   0.72275   0.01851   0.00000  Uiso   1.00
O85    O     0.87356   0.51644   0.53155   0.00000  Uiso   1.00
O86    O     0.27529   0.88751   0.44336   0.00000  Uiso   1.00
N87    N     0.03256   0.76741   0.12609   0.00000  Uiso   1.00
N88    N     0.87308   0.62038   0.49169   0.00000  Uiso   1.00
N89    N     0.15934   0.88480   0.42886   0.00000  Uiso   1.00
N90    N     0.15339   0.67018   0.09060   0.00000  Uiso   1.00
N91    N     0.99391   0.52315   0.45619   0.00000  Uiso   1.00
N92    N     0.28017   0.78757   0.39336   0.00000  Uiso   1.00
C93    C     0.08866   0.09912   0.25676   0.00000  Uiso   1.00
C94    C     0.01079   0.11272   0.31742   0.00000  Uiso   1.00
C95    C     0.93174   0.12017   0.32132   0.00000  Uiso   1.00
C96    C     0.86872   0.13238   0.38122   0.00000  Uiso   1.00
C97    C     0.74543   0.15283   0.46720   0.00000  Uiso   1.00
C98    C     0.11411   0.15950   0.26214   0.00000  Uiso   1.00
C99    C     0.12195   0.20629   0.21955   0.00000  Uiso   1.00
C100   C     0.14592   0.25787   0.23292   0.00000  Uiso   1.00
C101   C     0.18310   0.35092   0.23306   0.00000  Uiso   1.00
C102   C     0.16071   0.03091   0.25886   0.00000  Uiso   1.00
C103   C     0.20774   0.96959   0.21351   0.00000  Uiso   1.00
C104   C     0.27096   0.91291   0.22411   0.00000  Uiso   1.00
C105   C     0.38049   0.80631   0.21915   0.00000  Uiso   1.00
C106   C     0.11731   0.10753   0.35622   0.00000  Uiso   1.00
C107   C     0.02635   0.11728   0.37144   0.00000  Uiso   1.00
C108   C     0.96344   0.12948   0.43136   0.00000  Uiso   1.00
C109   C     0.88431   0.13695   0.43534   0.00000  Uiso   1.00
C110   C     0.12967   0.16407   0.31616   0.00000  Uiso   1.00
C111   C     0.15365   0.21559   0.32960   0.00000  Uiso   1.00
C112   C     0.16151   0.26244   0.28705   0.00000  Uiso   1.00
C113   C     0.17627   0.03548   0.31289   0.00000  Uiso   1.00
C114   C     0.23944   0.97889   0.32356   0.00000  Uiso   1.00
C115   C     0.28655   0.91749   0.27823   0.00000  Uiso   1.00
H116   H     0.07654   0.09557   0.21469   0.00000  Uiso   1.00
H117   H     0.91972   0.11664   0.27950   0.00000  Uiso   1.00
H118   H     0.10990   0.20274   0.17775   0.00000  Uiso   1.00
H119   H     0.19568   0.96607   0.17171   0.00000  Uiso   1.00
H120   H     0.75270   0.14205   0.37517   0.00000  Uiso   1.00
H121   H     0.15375   0.32356   0.16062   0.00000  Uiso   1.00
H122   H     0.33463   0.82452   0.14787   0.00000  Uiso   1.00
H123   H     0.12943   0.11108   0.39828   0.00000  Uiso   1.00
H124   H     0.97550   0.13301   0.47316   0.00000  Uiso   1.00
H125   H     0.16569   0.21910   0.37141   0.00000  Uiso   1.00
H126   H     0.25146   0.98244   0.36537   0.00000  Uiso   1.00
H127   H     0.79798   0.15534   0.53235   0.00000  Uiso   1.00
H128   H     0.19903   0.33685   0.31780   0.00000  Uiso   1.00
H129   H     0.37990   0.83780   0.30506   0.00000  Uiso   1.00
O130   O     0.67312   0.16286   0.49970   0.00000  Uiso   1.00
O131   O     0.19929   0.40099   0.21821   0.00000  Uiso   1.00
O132   O     0.43659   0.74625   0.20150   0.00000  Uiso   1.00
N133   N     0.78449   0.14215   0.40188   0.00000  Uiso   1.00
N134   N     0.15943   0.31187   0.20130   0.00000  Uiso   1.00
N135   N     0.32855   0.84530   0.18938   0.00000  Uiso   1.00
N136   N     0.80885   0.14930   0.48646   0.00000  Uiso   1.00
N137   N     0.18379   0.31901   0.28587   0.00000  Uiso   1.00
N138   N     0.35291   0.85245   0.27395   0.00000  Uiso   1.00
C139   C     0.53450   0.04109   0.78199   0.00000  Uiso   1.00
C140   C     0.47003   0.11958   0.79985   0.00000  Uiso   1.00
C141   C     0.41892   0.15519   0.76851   0.00000  Uiso   1.00
C142   C     0.36405   0.22696   0.79226   0.00000  Uiso   1.00
C143   C     0.26446   0.34352   0.81193   0.00000  Uiso   1.00
C144   C     0.50892   0.00716   0.84031   0.00000  Uiso   1.00
C145   C     0.49053   0.94825   0.84297   0.00000  Uiso   1.00
C146   C     0.46841   0.92537   0.90077   0.00000  Uiso   1.00
C147   C     0.42926   0.86737   0.98324   0.00000  Uiso   1.00
C148   C     0.62004   0.04048   0.77289   0.00000  Uiso   1.00
C149   C     0.69509   0.00956   0.71887   0.00000  Uiso   1.00
C150   C     0.76653   0.01473   0.71991   0.00000  Uiso   1.00
C151   C     0.89990   0.00845   0.69769   0.00000  Uiso   1.00
C152   C     0.52793   0.10520   0.87988   0.00000  Uiso   1.00
C153   C     0.46646   0.15440   0.85303   0.00000  Uiso   1.00
C154   C     0.41165   0.22613   0.87682   0.00000  Uiso   1.00
C155   C     0.36048   0.26185   0.84552   0.00000  Uiso   1.00
C156   C     0.50535   0.04198   0.89348   0.00000  Uiso   1.00
C157   C     0.48326   0.01918   0.95129   0.00000  Uiso   1.00
C158   C     0.46483   0.96026   0.95404   0.00000  Uiso   1.00
C159   C     0.61647   0.07530   0.82606   0.00000  Uiso   1.00
C160   C     0.68781   0.08050   0.82718   0.00000  Uiso   1.00
C161   C     0.76295   0.04961   0.77318   0.00000  Uiso   1.00
H162   H     0.53727   0.01398   0.74059   0.00000  Uiso   1.00
H163   H     0.42170   0.12822   0.72737   0.00000  Uiso   1.00
H164   H     0.49330   0.92131   0.80182   0.00000  Uiso   1.00
H165   H     0.69782   0.98262   0.67773   0.00000  Uiso   1.00
H166   H     0.29196   0.27024   0.73617   0.00000  Uiso   1.00
H167   H     0.44297   0.83393   0.89314   0.00000  Uiso   1.00
H168   H     0.87425   0.96321   0.63149   0.00000  Uiso   1.00
H169   H     0.52515   0.13232   0.92128   0.00000  Uiso   1.00
H170   H     0.40891   0.25306   0.91797   0.00000  Uiso   1.00
H171   H     0.48051   0.04614   0.99242   0.00000  Uiso   1.00
H172   H     0.68503   0.10746   0.86834   0.00000  Uiso   1.00
H173   H     0.28158   0.37156   0.89088   0.00000  Uiso   1.00
H174   H     0.43259   0.93524   0.04785   0.00000  Uiso   1.00
H175   H     0.86386   0.06454   0.78619   0.00000  Uiso   1.00
O176   O     0.21050   0.39819   0.80810   0.00000  Uiso   1.00
O177   O     0.40864   0.82575   0.01404   0.00000  Uiso   1.00
O178   O     0.97445   0.99538   0.67075   0.00000  Uiso   1.00
N179   N     0.30548   0.27752   0.77303   0.00000  Uiso   1.00
N180   N     0.44665   0.86960   0.91979   0.00000  Uiso   1.00
N181   N     0.84987   0.99046   0.67517   0.00000  Uiso   1.00
N182   N     0.29990   0.33204   0.85627   0.00000  Uiso   1.00
N183   N     0.44107   0.92412   0.00304   0.00000  Uiso   1.00
N184   N     0.84428   0.04498   0.75841   0.00000  Uiso   1.00
C185   C     0.39911   0.17605   0.40656   0.00000  Uiso   1.00
C186   C     0.39696   0.15560   0.34445   0.00000  Uiso   1.00
C187   C     0.43602   0.17334   0.28701   0.00000  Uiso   1.00
C188   C     0.42656   0.14956   0.23570   0.00000  Uiso   1.00
C189   C     0.43039   0.12387   0.13834   0.00000  Uiso   1.00
C190   C     0.43527   0.10598   0.42991   0.00000  Uiso   1.00
C191   C     0.50654   0.08200   0.44433   0.00000  Uiso   1.00
C192   C     0.52932   0.01646   0.46497   0.00000  Uiso   1.00
C193   C     0.59258   0.91375   0.50035   0.00000  Uiso   1.00
C194   C     0.30600   0.21601   0.45286   0.00000  Uiso   1.00
C195   C     0.26857   0.28455   0.48659   0.00000  Uiso   1.00
C196   C     0.18252   0.31164   0.52657   0.00000  Uiso   1.00
C197   C     0.04507   0.37978   0.59757   0.00000  Uiso   1.00
C198   C     0.31285   0.10227   0.41757   0.00000  Uiso   1.00
C199   C     0.35011   0.11552   0.35043   0.00000  Uiso   1.00
C200   C     0.34059   0.09171   0.29920   0.00000  Uiso   1.00
C201   C     0.37962   0.10942   0.24169   0.00000  Uiso   1.00
C202   C     0.38842   0.06590   0.43590   0.00000  Uiso   1.00
C203   C     0.41110   0.00038   0.45652   0.00000  Uiso   1.00
C204   C     0.48238   0.97631   0.47097   0.00000  Uiso   1.00
C205   C     0.25915   0.17594   0.45884   0.00000  Uiso   1.00
C206   C     0.17314   0.20293   0.49878   0.00000  Uiso   1.00
C207   C     0.13558   0.27150   0.53256   0.00000  Uiso   1.00
H208   H     0.43559   0.20725   0.40190   0.00000  Uiso   1.00
H209   H     0.47228   0.20435   0.28239   0.00000  Uiso   1.00
H210   H     0.54278   0.11303   0.43970   0.00000  Uiso   1.00
H211   H     0.30485   0.31555   0.48195   0.00000  Uiso   1.00
H212   H     0.49232   0.18344   0.15254   0.00000  Uiso   1.00
H213   H     0.64095   0.99090   0.48425   0.00000  Uiso   1.00
H214   H     0.13924   0.41795   0.57334   0.00000  Uiso   1.00
H215   H     0.27638   0.07107   0.42223   0.00000  Uiso   1.00
H216   H     0.30432   0.06070   0.30384   0.00000  Uiso   1.00
H217   H     0.37482   0.96938   0.46115   0.00000  Uiso   1.00
H218   H     0.13690   0.17190   0.50340   0.00000  Uiso   1.00
H219   H     0.35601   0.06685   0.16994   0.00000  Uiso   1.00
H220   H     0.50463   0.87431   0.50166   0.00000  Uiso   1.00
H221   H     0.00292   0.30136   0.59075   0.00000  Uiso   1.00
O222   O     0.44545   0.12076   0.08299   0.00000  Uiso   1.00
O223   O     0.64043   0.86817   0.51820   0.00000  Uiso   1.00
O224   O     0.98220   0.42844   0.63507   0.00000  Uiso   1.00
N225   N     0.45639   0.15744   0.17288   0.00000  Uiso   1.00
N226   N     0.59535   0.97742   0.48301   0.00000  Uiso   1.00
N227   N     0.12630   0.37667   0.56631   0.00000  Uiso   1.00
N228   N     0.38304   0.09470   0.18225   0.00000  Uiso   1.00
N229   N     0.52200   0.91468   0.49237   0.00000  Uiso   1.00
N230   N     0.05295   0.31393   0.57568   0.00000  Uiso   1.00
C231   C     0.48229   0.48979   0.80988   0.00000  Uiso   1.00
C232   C     0.54260   0.49754   0.74727   0.00000  Uiso   1.00
C233   C     0.53871   0.48922   0.68940   0.00000  Uiso   1.00
C234   C     0.59971   0.49854   0.63768   0.00000  Uiso   1.00
C235   C     0.68381   0.50801   0.53956   0.00000  Uiso   1.00
C236   C     0.44432   0.56016   0.85403   0.00000  Uiso   1.00
C237   C     0.35779   0.60448   0.88592   0.00000  Uiso   1.00
C238   C     0.33605   0.66651   0.92407   0.00000  Uiso   1.00
C239   C     0.26756   0.77317   0.99174   0.00000  Uiso   1.00
C240   C     0.53893   0.43316   0.83591   0.00000  Uiso   1.00
C241   C     0.53194   0.37071   0.85259   0.00000  Uiso   1.00
C242   C     0.58986   0.32582   0.87550   0.00000  Uiso   1.00
C243   C     0.66827   0.23531   0.91503   0.00000  Uiso   1.00
C244   C     0.59755   0.52113   0.82094   0.00000  Uiso   1.00
C245   C     0.60520   0.51456   0.75329   0.00000  Uiso   1.00
C246   C     0.66623   0.52389   0.70164   0.00000  Uiso   1.00
C247   C     0.66243   0.51559   0.64370   0.00000  Uiso   1.00
C248   C     0.50691   0.57718   0.86004   0.00000  Uiso   1.00
C249   C     0.48530   0.63916   0.89816   0.00000  Uiso   1.00
C250   C     0.39876   0.68356   0.93010   0.00000  Uiso   1.00
C251   C     0.60154   0.45018   0.84192   0.00000  Uiso   1.00
C252   C     0.65947   0.40539   0.86482   0.00000  Uiso   1.00
C253   C     0.65257   0.34288   0.88152   0.00000  Uiso   1.00
H254   H     0.43355   0.47654   0.80520   0.00000  Uiso   1.00
H255   H     0.49025   0.47605   0.68477   0.00000  Uiso   1.00
H256   H     0.30936   0.59129   0.88127   0.00000  Uiso   1.00
H257   H     0.48349   0.35756   0.84793   0.00000  Uiso   1.00
H258   H     0.58070   0.48304   0.55390   0.00000  Uiso   1.00
H259   H     0.19927   0.72601   0.96824   0.00000  Uiso   1.00
H260   H     0.56647   0.23314   0.89795   0.00000  Uiso   1.00
H261   H     0.64629   0.53439   0.82562   0.00000  Uiso   1.00
H262   H     0.71467   0.53707   0.70630   0.00000  Uiso   1.00
H263   H     0.53377   0.65231   0.90280   0.00000  Uiso   1.00
H264   H     0.70790   0.41858   0.86946   0.00000  Uiso   1.00
H265   H     0.76285   0.53257   0.57138   0.00000  Uiso   1.00
H266   H     0.38141   0.77554   0.98572   0.00000  Uiso   1.00
H267   H     0.74861   0.28267   0.91542   0.00000  Uiso   1.00
O268   O     0.71290   0.50855   0.48378   0.00000  Uiso   1.00
O269   O     0.21248   0.82731   0.02739   0.00000  Uiso   1.00
O270   O     0.69424   0.18067   0.93516   0.00000  Uiso   1.00
N271   N     0.61420   0.49431   0.57439   0.00000  Uiso   1.00
N272   N     0.25758   0.72149   0.96176   0.00000  Uiso   1.00
N273   N     0.60087   0.26070   0.89606   0.00000  Uiso   1.00
N274   N     0.71221   0.52096   0.58379   0.00000  Uiso   1.00
N275   N     0.35559   0.74814   0.97117   0.00000  Uiso   1.00
N276   N     0.69888   0.28735   0.90546   0.00000  Uiso   1.00
C277   C     0.55641   0.37511   0.13399   0.00000  Uiso   1.00
C278   C     0.56700   0.33642   0.18852   0.00000  Uiso   1.00
C279   C     0.53719   0.36881   0.25012   0.00000  Uiso   1.00
C280   C     0.55335   0.32406   0.29309   0.00000  Uiso   1.00
C281   C     0.56301   0.27530   0.38052   0.00000  Uiso   1.00
C282   C     0.51179   0.34344   0.10754   0.00000  Uiso   1.00
C283   C     0.43557   0.38175   0.10104   0.00000  Uiso   1.00
C284   C     0.40527   0.34291   0.07582   0.00000  Uiso   1.00
C285   C     0.32925   0.30506   0.03748   0.00000  Uiso   1.00
C286   C     0.64641   0.35154   0.08311   0.00000  Uiso   1.00
C287   C     0.68338   0.39665   0.05607   0.00000  Uiso   1.00
C288   C     0.76641   0.36463   0.01028   0.00000  Uiso   1.00
C289   C     0.89941   0.33935   0.93402   0.00000  Uiso   1.00
C290   C     0.63811   0.23803   0.10073   0.00000  Uiso   1.00
C291   C     0.61138   0.26196   0.17046   0.00000  Uiso   1.00
C292   C     0.62759   0.21715   0.21333   0.00000  Uiso   1.00
C293   C     0.59782   0.24947   0.27499   0.00000  Uiso   1.00
C294   C     0.55617   0.26899   0.08947   0.00000  Uiso   1.00
C295   C     0.52597   0.23008   0.06425   0.00000  Uiso   1.00
C296   C     0.44973   0.26832   0.05773   0.00000  Uiso   1.00
C297   C     0.69079   0.27708   0.06505   0.00000  Uiso   1.00
C298   C     0.77378   0.24498   0.01928   0.00000  Uiso   1.00
C299   C     0.81087   0.29004   0.99218   0.00000  Uiso   1.00
H300   H     0.52185   0.43308   0.14805   0.00000  Uiso   1.00
H301   H     0.50284   0.42643   0.26409   0.00000  Uiso   1.00
H302   H     0.40125   0.43937   0.11502   0.00000  Uiso   1.00
H303   H     0.64902   0.45426   0.07006   0.00000  Uiso   1.00
H304   H     0.50132   0.38623   0.38478   0.00000  Uiso   1.00
H305   H     0.28711   0.41350   0.07045   0.00000  Uiso   1.00
H306   H     0.80958   0.44492   0.97564   0.00000  Uiso   1.00
H307   H     0.67266   0.18006   0.08667   0.00000  Uiso   1.00
H308   H     0.66194   0.15953   0.19934   0.00000  Uiso   1.00
H309   H     0.56033   0.17246   0.05028   0.00000  Uiso   1.00
H310   H     0.80810   0.18736   0.00532   0.00000  Uiso   1.00
H311   H     0.63044   0.16960   0.33223   0.00000  Uiso   1.00
H312   H     0.41623   0.19687   0.01789   0.00000  Uiso   1.00
H313   H     0.93870   0.22829   0.92309   0.00000  Uiso   1.00
O314   O     0.55607   0.26897   0.43373   0.00000  Uiso   1.00
O315   O     0.27505   0.30476   0.02133   0.00000  Uiso   1.00
O316   O     0.96052   0.34597   0.89695   0.00000  Uiso   1.00
N317   N     0.53319   0.33806   0.35694   0.00000  Uiso   1.00
N318   N     0.33291   0.36356   0.06307   0.00000  Uiso   1.00
N319   N     0.82137   0.39293   0.97442   0.00000  Uiso   1.00
N320   N     0.60267   0.22150   0.32867   0.00000  Uiso   1.00
N321   N     0.40239   0.24700   0.03480   0.00000  Uiso   1.00
N322   N     0.89085   0.27637   0.94615   0.00000  Uiso   1.00
C323   C     0.29738   0.10103   0.65442   0.00000  Uiso   1.00
C324   C     0.26276   0.10477   0.72570   0.00000  Uiso   1.00
C325   C     0.30384   0.05786   0.75831   0.00000  Uiso   1.00
C326   C     0.26155   0.07040   0.82345   0.00000  Uiso   1.00
C327   C     0.22006   0.06749   0.92936   0.00000  Uiso   1.00
C328   C     0.29810   0.17341   0.64256   0.00000  Uiso   1.00
C329   C     0.36890   0.18421   0.60526   0.00000  Uiso   1.00
C330   C     0.35635   0.25454   0.60040   0.00000  Uiso   1.00
C331   C     0.36971   0.35819   0.57720   0.00000  Uiso   1.00
C332   C     0.22974   0.09733   0.63453   0.00000  Uiso   1.00
C333   C     0.24305   0.04418   0.59046   0.00000  Uiso   1.00
C334   C     0.17295   0.05047   0.57882   0.00000  Uiso   1.00
C335   C     0.08016   0.03601   0.54315   0.00000  Uiso   1.00
C336   C     0.14920   0.20670   0.71210   0.00000  Uiso   1.00
C337   C     0.18228   0.16217   0.75703   0.00000  Uiso   1.00
C338   C     0.13991   0.17478   0.82213   0.00000  Uiso   1.00
C339   C     0.18092   0.12790   0.85483   0.00000  Uiso   1.00
C340   C     0.21762   0.23081   0.67389   0.00000  Uiso   1.00
C341   C     0.20496   0.30113   0.66907   0.00000  Uiso   1.00
C342   C     0.27572   0.31204   0.63178   0.00000  Uiso   1.00
C343   C     0.14925   0.15473   0.66586   0.00000  Uiso   1.00
C344   C     0.07911   0.16110   0.65428   0.00000  Uiso   1.00
C345   C     0.09232   0.10797   0.61021   0.00000  Uiso   1.00
H346   H     0.36004   0.05635   0.63003   0.00000  Uiso   1.00
H347   H     0.36613   0.01345   0.73405   0.00000  Uiso   1.00
H348   H     0.43117   0.13978   0.58102   0.00000  Uiso   1.00
H349   H     0.30534   0.99978   0.56623   0.00000  Uiso   1.00
H350   H     0.33741   0.99122   0.86320   0.00000  Uiso   1.00
H351   H     0.47454   0.25760   0.54050   0.00000  Uiso   1.00
H352   H     0.20921   0.96237   0.50931   0.00000  Uiso   1.00
H353   H     0.08654   0.25139   0.73649   0.00000  Uiso   1.00
H354   H     0.07762   0.21920   0.84636   0.00000  Uiso   1.00
H355   H     0.14267   0.34553   0.69332   0.00000  Uiso   1.00
H356   H     0.01684   0.20552   0.67853   0.00000  Uiso   1.00
H357   H     0.10325   0.15822   0.95435   0.00000  Uiso   1.00
H358   H     0.24038   0.42460   0.63165   0.00000  Uiso   1.00
H359   H     0.97505   0.12936   0.60046   0.00000  Uiso   1.00
O360   O     0.21941   0.05004   0.97913   0.00000  Uiso   1.00
O361   O     0.39932   0.39951   0.55575   0.00000  Uiso   1.00
O362   O     0.05122   0.01217   0.51483   0.00000  Uiso   1.00
N363   N     0.28351   0.03494   0.86957   0.00000  Uiso   1.00
N364   N     0.41173   0.28398   0.56787   0.00000  Uiso   1.00
N365   N     0.16368   0.00797   0.53870   0.00000  Uiso   1.00
N366   N     0.15751   0.12479   0.91862   0.00000  Uiso   1.00
N367   N     0.28573   0.37384   0.61692   0.00000  Uiso   1.00
N368   N     0.03767   0.09783   0.58775   0.00000  Uiso   1.00
C369   C     0.28680   0.75607   0.77356   0.00000  Uiso   1.00
C370   C     0.37377   0.74785   0.72606   0.00000  Uiso   1.00
C371   C     0.44840   0.72336   0.73615   0.00000  Uiso   1.00
C372   C     0.52133   0.71973   0.68677   0.00000  Uiso   1.00
C373   C     0.65665   0.70387   0.62173   0.00000  Uiso   1.00
C374   C     0.25956   0.71177   0.74137   0.00000  Uiso   1.00
C375   C     0.23815   0.65694   0.76435   0.00000  Uiso   1.00
C376   C     0.21493   0.62294   0.72786   0.00000  Uiso   1.00
C377   C     0.17287   0.55110   0.68662   0.00000  Uiso   1.00
C378   C     0.22489   0.83400   0.78086   0.00000  Uiso   1.00
C379   C     0.17432   0.88195   0.83705   0.00000  Uiso   1.00
C380   C     0.12191   0.95086   0.83381   0.00000  Uiso   1.00
C381   C     0.02602   0.06881   0.85388   0.00000  Uiso   1.00
C382   C     0.28361   0.79318   0.66792   0.00000  Uiso   1.00
C383   C     0.37203   0.76801   0.66868   0.00000  Uiso   1.00
C384   C     0.44488   0.76442   0.61927   0.00000  Uiso   1.00
C385   C     0.51960   0.73992   0.62929   0.00000  Uiso   1.00
C386   C     0.25782   0.73192   0.68399   0.00000  Uiso   1.00
C387   C     0.23463   0.69800   0.64747   0.00000  Uiso   1.00
C388   C     0.21320   0.64313   0.67038   0.00000  Uiso   1.00
C389   C     0.22316   0.85416   0.72348   0.00000  Uiso   1.00
C390   C     0.17081   0.92301   0.72016   0.00000  Uiso   1.00
C391   C     0.12017   0.97105   0.77633   0.00000  Uiso   1.00
H392   H     0.28814   0.74037   0.81824   0.00000  Uiso   1.00
H393   H     0.44971   0.70776   0.78057   0.00000  Uiso   1.00
H394   H     0.23949   0.64136   0.80876   0.00000  Uiso   1.00
H395   H     0.17568   0.86633   0.88144   0.00000  Uiso   1.00
H396   H     0.62809   0.68046   0.71348   0.00000  Uiso   1.00
H397   H     0.18479   0.54048   0.77294   0.00000  Uiso   1.00
H398   H     0.05023   0.01488   0.92621   0.00000  Uiso   1.00
H399   H     0.28226   0.80887   0.62324   0.00000  Uiso   1.00
H400   H     0.44352   0.78002   0.57487   0.00000  Uiso   1.00
H401   H     0.23329   0.71361   0.60307   0.00000  Uiso   1.00
H402   H     0.16948   0.93859   0.67575   0.00000  Uiso   1.00
H403   H     0.62306   0.73911   0.54653   0.00000  Uiso   1.00
H404   H     0.17976   0.59912   0.60600   0.00000  Uiso   1.00
H405   H     0.04520   0.07352   0.75926   0.00000  Uiso   1.00
O406   O     0.73176   0.68955   0.60170   0.00000  Uiso   1.00
O407   O     0.15015   0.50590   0.67972   0.00000  Uiso   1.00
O408   O     0.97363   0.12830   0.88079   0.00000  Uiso   1.00
N409   N     0.60477   0.69824   0.68083   0.00000  Uiso   1.00
N410   N     0.19033   0.56735   0.73642   0.00000  Uiso   1.00
N411   N     0.06451   0.01087   0.87972   0.00000  Uiso   1.00
N412   N     0.60206   0.72980   0.59100   0.00000  Uiso   1.00
N413   N     0.18762   0.59891   0.64659   0.00000  Uiso   1.00
N414   N     0.06180   0.04243   0.78988   0.00000  Uiso   1.00
C415   C     0.79574   0.72373   0.30636   0.00000  Uiso   1.00
C416   C     0.87226   0.67855   0.24618   0.00000  Uiso   1.00
C417   C     0.94937   0.62585   0.24297   0.00000  Uiso   1.00
C418   C     0.01141   0.59057   0.18341   0.00000  Uiso   1.00
C419   C     0.13247   0.51787   0.09822   0.00000  Uiso   1.00
C420   C     0.77620   0.80154   0.29890   0.00000  Uiso   1.00
C421   C     0.77252   0.85225   0.34002   0.00000  Uiso   1.00
C422   C     0.75368   0.92051   0.32485   0.00000  Uiso   1.00
C423   C     0.72554   0.03877   0.32153   0.00000  Uiso   1.00
C424   C     0.72029   0.71241   0.30545   0.00000  Uiso   1.00
C425   C     0.66959   0.68820   0.35209   0.00000  Uiso   1.00
C426   C     0.60366   0.68143   0.34243   0.00000  Uiso   1.00
C427   C     0.48872   0.66130   0.34929   0.00000  Uiso   1.00
C428   C     0.76879   0.75479   0.20630   0.00000  Uiso   1.00
C429   C     0.85762   0.69542   0.19183   0.00000  Uiso   1.00
C430   C     0.91955   0.66021   0.13226   0.00000  Uiso   1.00
C431   C     0.99674   0.60747   0.12896   0.00000  Uiso   1.00
C432   C     0.76156   0.81841   0.24455   0.00000  Uiso   1.00
C433   C     0.74271   0.88661   0.22931   0.00000  Uiso   1.00
C434   C     0.73901   0.93741   0.27040   0.00000  Uiso   1.00
C435   C     0.70565   0.72928   0.25110   0.00000  Uiso   1.00
C436   C     0.63978   0.72256   0.24137   0.00000  Uiso   1.00
C437   C     0.58900   0.69834   0.28799   0.00000  Uiso   1.00
H438   H     0.80713   0.71060   0.34868   0.00000  Uiso   1.00
H439   H     0.96068   0.61281   0.28504   0.00000  Uiso   1.00
H440   H     0.78385   0.83918   0.38208   0.00000  Uiso   1.00
H441   H     0.68094   0.67515   0.39414   0.00000  Uiso   1.00
H442   H     0.12447   0.51185   0.19051   0.00000  Uiso   1.00
H443   H     0.75158   0.98916   0.39514   0.00000  Uiso   1.00
H444   H     0.53458   0.64327   0.42057   0.00000  Uiso   1.00
H445   H     0.75739   0.76793   0.16399   0.00000  Uiso   1.00
H446   H     0.90821   0.67328   0.09021   0.00000  Uiso   1.00
H447   H     0.73138   0.89965   0.18725   0.00000  Uiso   1.00
H448   H     0.62847   0.73562   0.19931   0.00000  Uiso   1.00
H449   H     0.08188   0.56093   0.03238   0.00000  Uiso   1.00
H450   H     0.70899   0.03825   0.23701   0.00000  Uiso   1.00
H451   H     0.49199   0.69235   0.26244   0.00000  Uiso   1.00
O452   O     0.20329   0.47311   0.06624   0.00000  Uiso   1.00
O453   O     0.71407   0.09933   0.33471   0.00000  Uiso   1.00
O454   O     0.42937   0.64552   0.36808   0.00000  Uiso   1.00
N455   N     0.09374   0.53638   0.16342   0.00000  Uiso   1.00
N456   N     0.74513   0.98264   0.35473   0.00000  Uiso   1.00
N457   N     0.54224   0.65928   0.37851   0.00000  Uiso   1.00
N458   N     0.07082   0.56279   0.07833   0.00000  Uiso   1.00
N459   N     0.72221   0.00905   0.26964   0.00000  Uiso   1.00
N460   N     0.51932   0.68569   0.29343   0.00000  Uiso   1.00
C461   C     0.98028   0.72164   0.60689   0.00000  Uiso   1.00
C462   C     0.98291   0.75091   0.66579   0.00000  Uiso   1.00
C463   C     0.94685   0.73784   0.72615   0.00000  Uiso   1.00
C464   C     0.95623   0.76956   0.77371   0.00000  Uiso   1.00
C465   C     0.95360   0.80847   0.86706   0.00000  Uiso   1.00
C466   C     0.94011   0.78667   0.57909   0.00000  Uiso   1.00
C467   C     0.86808   0.80366   0.56654   0.00000  Uiso   1.00
C468   C     0.84143   0.86548   0.54110   0.00000  Uiso   1.00
C469   C     0.77240   0.95988   0.49980   0.00000  Uiso   1.00
C470   C     0.07316   0.68187   0.56011   0.00000  Uiso   1.00
C471   C     0.11299   0.61074   0.53160   0.00000  Uiso   1.00
C472   C     0.19837   0.58432   0.49018   0.00000  Uiso   1.00
C473   C     0.33591   0.51600   0.41942   0.00000  Uiso   1.00
C474   C     0.06106   0.80121   0.58401   0.00000  Uiso   1.00
C475   C     0.02679   0.79413   0.65336   0.00000  Uiso   1.00
C476   C     0.03622   0.82588   0.70083   0.00000  Uiso   1.00
C477   C     0.00019   0.81286   0.76126   0.00000  Uiso   1.00
C478   C     0.98399   0.82989   0.56666   0.00000  Uiso   1.00
C479   C     0.95745   0.89170   0.54122   0.00000  Uiso   1.00
C480   C     0.88539   0.90878   0.52865   0.00000  Uiso   1.00
C481   C     0.11704   0.72509   0.54768   0.00000  Uiso   1.00
C482   C     0.20237   0.69878   0.50629   0.00000  Uiso   1.00
C483   C     0.24232   0.62762   0.47772   0.00000  Uiso   1.00
H484   H     0.94612   0.68799   0.61656   0.00000  Uiso   1.00
H485   H     0.91289   0.70440   0.73575   0.00000  Uiso   1.00
H486   H     0.83414   0.77020   0.57616   0.00000  Uiso   1.00
H487   H     0.07902   0.57731   0.54123   0.00000  Uiso   1.00
H488   H     0.89538   0.74166   0.86242   0.00000  Uiso   1.00
H489   H     0.72934   0.88041   0.52589   0.00000  Uiso   1.00
H490   H     0.24572   0.47366   0.45223   0.00000  Uiso   1.00
H491   H     0.09522   0.83486   0.57433   0.00000  Uiso   1.00
H492   H     0.07018   0.85932   0.69120   0.00000  Uiso   1.00
H493   H     0.99142   0.92513   0.53161   0.00000  Uiso   1.00
H494   H     0.23630   0.73224   0.49668   0.00000  Uiso   1.00
H495   H     0.02304   0.86741   0.82626   0.00000  Uiso   1.00
H496   H     0.85700   0.00615   0.48973   0.00000  Uiso   1.00
H497   H     0.37337   0.59940   0.41607   0.00000  Uiso   1.00
O498   O     0.94002   0.81800   0.92199   0.00000  Uiso   1.00
O499   O     0.72220   0.00001   0.48046   0.00000  Uiso   1.00
O500   O     0.39966   0.46637   0.38383   0.00000  Uiso   1.00
N501   N     0.92888   0.76789   0.83787   0.00000  Uiso   1.00
N502   N     0.77363   0.89761   0.52324   0.00000  Uiso   1.00
N503   N     0.25639   0.51734   0.45436   0.00000  Uiso   1.00
N504   N     0.99757   0.83555   0.81841   0.00000  Uiso   1.00
N505   N     0.84232   0.96528   0.50378   0.00000  Uiso   1.00
N506   N     0.32508   0.58500   0.43491   0.00000  Uiso   1.00
C507   C     0.92664   0.32210   0.19830   0.00000  Uiso   1.00
C508   C     0.87816   0.32306   0.26792   0.00000  Uiso   1.00
C509   C     0.90821   0.32098   0.31464   0.00000  Uiso   1.00
C510   C     0.85413   0.32231   0.37546   0.00000  Uiso   1.00
C511   C     0.79123   0.32325   0.48148   0.00000  Uiso   1.00
C512   C     0.93014   0.25856   0.16266   0.00000  Uiso   1.00
C513   C     0.00389   0.20226   0.12088   0.00000  Uiso   1.00
C514   C     0.99356   0.14930   0.09308   0.00000  Uiso   1.00
C515   C     0.01135   0.05014   0.03565   0.00000  Uiso   1.00
C516   C     0.86919   0.38884   0.18141   0.00000  Uiso   1.00
C517   C     0.89169   0.44207   0.15538   0.00000  Uiso   1.00
C518   C     0.83005   0.49879   0.14336   0.00000  Uiso   1.00
C519   C     0.75320   0.60191   0.11505   0.00000  Uiso   1.00
C520   C     0.77717   0.32816   0.22322   0.00000  Uiso   1.00
C521   C     0.79698   0.32635   0.28145   0.00000  Uiso   1.00
C522   C     0.74284   0.32768   0.34221   0.00000  Uiso   1.00
C523   C     0.77280   0.32561   0.38902   0.00000  Uiso   1.00
C524   C     0.84896   0.26185   0.17619   0.00000  Uiso   1.00
C525   C     0.83852   0.20896   0.14844   0.00000  Uiso   1.00
C526   C     0.91223   0.15259   0.10663   0.00000  Uiso   1.00
C527   C     0.78800   0.39213   0.19494   0.00000  Uiso   1.00
C528   C     0.72632   0.44878   0.18295   0.00000  Uiso   1.00
C529   C     0.74872   0.50209   0.15691   0.00000  Uiso   1.00
H530   H     0.98985   0.31954   0.18777   0.00000  Uiso   1.00
H531   H     0.97105   0.31842   0.30415   0.00000  Uiso   1.00
H532   H     0.06670   0.19973   0.11041   0.00000  Uiso   1.00
H533   H     0.95452   0.43951   0.14492   0.00000  Uiso   1.00
H534   H     0.91441   0.31861   0.43915   0.00000  Uiso   1.00
H535   H     0.11611   0.06835   0.03062   0.00000  Uiso   1.00
H536   H     0.87955   0.57397   0.10338   0.00000  Uiso   1.00
H537   H     0.71396   0.33072   0.23375   0.00000  Uiso   1.00
H538   H     0.68002   0.33023   0.35266   0.00000  Uiso   1.00
H539   H     0.77568   0.21153   0.15892   0.00000  Uiso   1.00
H540   H     0.66350   0.45131   0.19343   0.00000  Uiso   1.00
H541   H     0.67820   0.32819   0.47852   0.00000  Uiso   1.00
H542   H     0.87991   0.07793   0.06999   0.00000  Uiso   1.00
H543   H     0.64335   0.58354   0.14275   0.00000  Uiso   1.00
O544   O     0.77897   0.32285   0.53622   0.00000  Uiso   1.00
O545   O     0.04359   0.99453   0.00024   0.00000  Uiso   1.00
O546   O     0.73323   0.65788   0.09571   0.00000  Uiso   1.00
N547   N     0.86347   0.32095   0.43210   0.00000  Uiso   1.00
N548   N     0.05205   0.08697   0.05016   0.00000  Uiso   1.00
N549   N     0.83090   0.55966   0.11816   0.00000  Uiso   1.00
N550   N     0.73637   0.32611   0.45328   0.00000  Uiso   1.00
N551   N     0.92495   0.09212   0.07134   0.00000  Uiso   1.00
N552   N     0.70380   0.56482   0.13935   0.00000  Uiso   1.00
