data_job_06549
_audit_creation_date              2018-12-19
_audit_creation_method            'Materials Studio'
_symmetry_space_group_name_H-M    'P1'
_symmetry_Int_Tables_number       1
_symmetry_cell_setting            triclinic
loop_
_symmetry_equiv_pos_as_xyz
  x,y,z
_cell_length_a                    21.8172
_cell_length_b                    21.6275
_cell_length_c                    21.4883
_cell_angle_alpha                 116.0600
_cell_angle_beta                  115.1700
_cell_angle_gamma                 90.5743
loop_
_atom_site_label
_atom_site_type_symbol
_atom_site_fract_x
_atom_site_fract_y
_atom_site_fract_z
_atom_site_U_iso_or_equiv
_atom_site_adp_type
_atom_site_occupancy
C1     C     0.13343   0.59031   0.59725   0.00000  Uiso   1.00
C2     C     0.10189   0.51480   0.52804   0.00000  Uiso   1.00
C3     C     0.04031   0.47056   0.50343   0.00000  Uiso   1.00
C4     C     0.02033   0.40337   0.43888   0.00000  Uiso   1.00
C5     C     0.96526   0.28947   0.33728   0.00000  Uiso   1.00
C6     C     0.20711   0.59139   0.65154   0.00000  Uiso   1.00
C7     C     0.23399   0.61154   0.73077   0.00000  Uiso   1.00
C8     C     0.30260   0.60884   0.77017   0.00000  Uiso   1.00
C9     C     0.41089   0.61388   0.86032   0.00000  Uiso   1.00
C10    C     0.14204   0.63690   0.56361   0.00000  Uiso   1.00
C11    C     0.11423   0.69534   0.56892   0.00000  Uiso   1.00
C12    C     0.12806   0.73097   0.53431   0.00000  Uiso   1.00
C13    C     0.13532   0.80669   0.48794   0.00000  Uiso   1.00
C14    C     0.20747   0.54969   0.52635   0.00000  Uiso   1.00
C15    C     0.14211   0.49274   0.48953   0.00000  Uiso   1.00
C16    C     0.12222   0.42561   0.42499   0.00000  Uiso   1.00
C17    C     0.06061   0.38127   0.40029   0.00000  Uiso   1.00
C18    C     0.24732   0.56932   0.61303   0.00000  Uiso   1.00
C19    C     0.31590   0.56659   0.65232   0.00000  Uiso   1.00
C20    C     0.34288   0.58673   0.73159   0.00000  Uiso   1.00
C21    C     0.18225   0.61484   0.52509   0.00000  Uiso   1.00
C22    C     0.19613   0.65039   0.49047   0.00000  Uiso   1.00
C23    C     0.16835   0.70887   0.49573   0.00000  Uiso   1.00
H24    H     0.10213   0.60750   0.62724   0.00000  Uiso   1.00
H25    H     0.00921   0.48765   0.53326   0.00000  Uiso   1.00
H26    H     0.20286   0.62862   0.76056   0.00000  Uiso   1.00
H27    H     0.08311   0.71241   0.59873   0.00000  Uiso   1.00
H28    H     0.92393   0.34504   0.41209   0.00000  Uiso   1.00
H29    H     0.33227   0.64231   0.89137   0.00000  Uiso   1.00
H30    H     0.07976   0.81899   0.55014   0.00000  Uiso   1.00
H31    H     0.23878   0.53251   0.49637   0.00000  Uiso   1.00
H32    H     0.15335   0.40854   0.39520   0.00000  Uiso   1.00
H33    H     0.34700   0.54952   0.62250   0.00000  Uiso   1.00
H34    H     0.22725   0.63330   0.46068   0.00000  Uiso   1.00
H35    H     0.04092   0.28083   0.30004   0.00000  Uiso   1.00
H36    H     0.44927   0.57811   0.77932   0.00000  Uiso   1.00
H37    H     0.19675   0.75478   0.43808   0.00000  Uiso   1.00
O38    O     0.92377   0.23273   0.29189   0.00000  Uiso   1.00
O39    O     0.45951   0.62276   0.92069   0.00000  Uiso   1.00
O40    O     0.12821   0.85454   0.47299   0.00000  Uiso   1.00
N41    N     0.96318   0.34695   0.39960   0.00000  Uiso   1.00
N42    N     0.34495   0.62487   0.84769   0.00000  Uiso   1.00
N43    N     0.10889   0.79005   0.52868   0.00000  Uiso   1.00
N44    N     0.02613   0.31240   0.33930   0.00000  Uiso   1.00
N45    N     0.40791   0.59032   0.78740   0.00000  Uiso   1.00
N46    N     0.17184   0.75550   0.46839   0.00000  Uiso   1.00
C47    C     0.54176   0.14035   0.50702   0.00000  Uiso   1.00
C48    C     0.47332   0.09994   0.43030   0.00000  Uiso   1.00
C49    C     0.46325   0.03664   0.36531   0.00000  Uiso   1.00
C50    C     0.39673   0.00812   0.30080   0.00000  Uiso   1.00
C51    C     0.29875   0.94027   0.18157   0.00000  Uiso   1.00
C52    C     0.55728   0.21476   0.51886   0.00000  Uiso   1.00
C53    C     0.61781   0.24801   0.52833   0.00000  Uiso   1.00
C54    C     0.62197   0.31616   0.53839   0.00000  Uiso   1.00
C55    C     0.65435   0.42659   0.55670   0.00000  Uiso   1.00
C56    C     0.52600   0.14878   0.57261   0.00000  Uiso   1.00
C57    C     0.56025   0.12657   0.62729   0.00000  Uiso   1.00
C58    C     0.53809   0.13917   0.68261   0.00000  Uiso   1.00
C59    C     0.52192   0.14716   0.78438   0.00000  Uiso   1.00
C60    C     0.44153   0.20225   0.50805   0.00000  Uiso   1.00
C61    C     0.41888   0.13356   0.43086   0.00000  Uiso   1.00
C62    C     0.35236   0.10512   0.36644   0.00000  Uiso   1.00
C63    C     0.34219   0.04180   0.30136   0.00000  Uiso   1.00
C64    C     0.50284   0.24838   0.51942   0.00000  Uiso   1.00
C65    C     0.50692   0.31649   0.52946   0.00000  Uiso   1.00
C66    C     0.56743   0.34984   0.53894   0.00000  Uiso   1.00
C67    C     0.47156   0.18240   0.57317   0.00000  Uiso   1.00
C68    C     0.44935   0.19504   0.62842   0.00000  Uiso   1.00
C69    C     0.48355   0.17285   0.68317   0.00000  Uiso   1.00
H70    H     0.58414   0.11418   0.50659   0.00000  Uiso   1.00
H71    H     0.50539   0.01064   0.36490   0.00000  Uiso   1.00
H72    H     0.65993   0.22199   0.52791   0.00000  Uiso   1.00
H73    H     0.60237   0.10055   0.62685   0.00000  Uiso   1.00
H74    H     0.39408   0.91069   0.20803   0.00000  Uiso   1.00
H75    H     0.71993   0.35633   0.55178   0.00000  Uiso   1.00
H76    H     0.59857   0.10027   0.76041   0.00000  Uiso   1.00
H77    H     0.39915   0.22842   0.50848   0.00000  Uiso   1.00
H78    H     0.31024   0.13115   0.36688   0.00000  Uiso   1.00
H79    H     0.46478   0.34249   0.52989   0.00000  Uiso   1.00
H80    H     0.40723   0.22106   0.62883   0.00000  Uiso   1.00
H81    H     0.23569   0.00850   0.20964   0.00000  Uiso   1.00
H82    H     0.56155   0.45414   0.55339   0.00000  Uiso   1.00
H83    H     0.44018   0.19808   0.76202   0.00000  Uiso   1.00
O84    O     0.25974   0.89356   0.11565   0.00000  Uiso   1.00
O85    O     0.68726   0.47822   0.56664   0.00000  Uiso   1.00
O86    O     0.52803   0.14227   0.84036   0.00000  Uiso   1.00
N87    N     0.36900   0.94705   0.22785   0.00000  Uiso   1.00
N88    N     0.67365   0.36369   0.54922   0.00000  Uiso   1.00
N89    N     0.56020   0.12431   0.74429   0.00000  Uiso   1.00
N90    N     0.28377   0.99969   0.22872   0.00000  Uiso   1.00
N91    N     0.58842   0.41632   0.55008   0.00000  Uiso   1.00
N92    N     0.47497   0.17694   0.74515   0.00000  Uiso   1.00
C93    C     0.58963   0.53243   0.15222   0.00000  Uiso   1.00
C94    C     0.52039   0.47898   0.11061   0.00000  Uiso   1.00
C95    C     0.46050   0.47069   0.04522   0.00000  Uiso   1.00
C96    C     0.40252   0.41883   0.01590   0.00000  Uiso   1.00
C97    C     0.29472   0.34225   0.94600   0.00000  Uiso   1.00
C98    C     0.60646   0.57601   0.23825   0.00000  Uiso   1.00
C99    C     0.61894   0.64930   0.28019   0.00000  Uiso   1.00
C100   C     0.63342   0.67911   0.35832   0.00000  Uiso   1.00
C101   C     0.65928   0.75317   0.48661   0.00000  Uiso   1.00
C102   C     0.64445   0.48930   0.15180   0.00000  Uiso   1.00
C103   C     0.68890   0.48970   0.12107   0.00000  Uiso   1.00
C104   C     0.73538   0.44652   0.12643   0.00000  Uiso   1.00
C105   C     0.82024   0.38596   0.12049   0.00000  Uiso   1.00
C106   C     0.59316   0.45507   0.21642   0.00000  Uiso   1.00
C107   C     0.52231   0.43696   0.14548   0.00000  Uiso   1.00
C108   C     0.46441   0.38510   0.11624   0.00000  Uiso   1.00
C109   C     0.40445   0.37673   0.05082   0.00000  Uiso   1.00
C110   C     0.60838   0.53399   0.27312   0.00000  Uiso   1.00
C111   C     0.62285   0.56371   0.35121   0.00000  Uiso   1.00
C112   C     0.63534   0.63702   0.39325   0.00000  Uiso   1.00
C113   C     0.64638   0.44728   0.18667   0.00000  Uiso   1.00
C114   C     0.69281   0.40410   0.19209   0.00000  Uiso   1.00
C115   C     0.73731   0.40443   0.16136   0.00000  Uiso   1.00
H116   H     0.58813   0.56515   0.12508   0.00000  Uiso   1.00
H117   H     0.45903   0.50322   0.01826   0.00000  Uiso   1.00
H118   H     0.61745   0.68180   0.25319   0.00000  Uiso   1.00
H119   H     0.68740   0.52222   0.09409   0.00000  Uiso   1.00
H120   H     0.31674   0.41605   0.91522   0.00000  Uiso   1.00
H121   H     0.65080   0.79259   0.41060   0.00000  Uiso   1.00
H122   H     0.79830   0.45609   0.07510   0.00000  Uiso   1.00
H123   H     0.59466   0.42236   0.24356   0.00000  Uiso   1.00
H124   H     0.46592   0.35259   0.14324   0.00000  Uiso   1.00
H125   H     0.62434   0.53117   0.37817   0.00000  Uiso   1.00
H126   H     0.69428   0.37160   0.21907   0.00000  Uiso   1.00
H127   H     0.32233   0.29380   0.01666   0.00000  Uiso   1.00
H128   H     0.65639   0.67034   0.51204   0.00000  Uiso   1.00
H129   H     0.80388   0.33384   0.17654   0.00000  Uiso   1.00
O130   O     0.23472   0.31162   0.89783   0.00000  Uiso   1.00
O131   O     0.67300   0.80563   0.54774   0.00000  Uiso   1.00
O132   O     0.86651   0.36415   0.10757   0.00000  Uiso   1.00
N133   N     0.33573   0.39684   0.95286   0.00000  Uiso   1.00
N134   N     0.64804   0.74889   0.41600   0.00000  Uiso   1.00
N135   N     0.78595   0.43430   0.10236   0.00000  Uiso   1.00
N136   N     0.33874   0.33106   0.00744   0.00000  Uiso   1.00
N137   N     0.65105   0.68310   0.47058   0.00000  Uiso   1.00
N138   N     0.78896   0.36852   0.15694   0.00000  Uiso   1.00
C139   C     0.63776   0.95590   0.04854   0.00000  Uiso   1.00
C140   C     0.60739   0.88659   0.97047   0.00000  Uiso   1.00
C141   C     0.55325   0.87528   0.89921   0.00000  Uiso   1.00
C142   C     0.53305   0.80813   0.83453   0.00000  Uiso   1.00
C143   C     0.48093   0.70871   0.71232   0.00000  Uiso   1.00
C144   C     0.71566   0.97528   0.07617   0.00000  Uiso   1.00
C145   C     0.75256   0.03853   0.09380   0.00000  Uiso   1.00
C146   C     0.82350   0.04604   0.11812   0.00000  Uiso   1.00
C147   C     0.93948   0.08433   0.16007   0.00000  Uiso   1.00
C148   C     0.63162   0.93790   0.10709   0.00000  Uiso   1.00
C149   C     0.59787   0.96974   0.15074   0.00000  Uiso   1.00
C150   C     0.59808   0.94580   0.20111   0.00000  Uiso   1.00
C151   C     0.58357   0.92605   0.29107   0.00000  Uiso   1.00
C152   C     0.69815   0.85677   0.06038   0.00000  Uiso   1.00
C153   C     0.64019   0.83275   0.97690   0.00000  Uiso   1.00
C154   C     0.62007   0.76560   0.91232   0.00000  Uiso   1.00
C155   C     0.56591   0.75419   0.84098   0.00000  Uiso   1.00
C156   C     0.74846   0.92144   0.08261   0.00000  Uiso   1.00
C157   C     0.81937   0.92886   0.10691   0.00000  Uiso   1.00
C158   C     0.85637   0.99210   0.12457   0.00000  Uiso   1.00
C159   C     0.66442   0.88406   0.11353   0.00000  Uiso   1.00
C160   C     0.66468   0.86007   0.16384   0.00000  Uiso   1.00
C161   C     0.63094   0.89186   0.20755   0.00000  Uiso   1.00
H162   H     0.61222   0.99782   0.04353   0.00000  Uiso   1.00
H163   H     0.52788   0.91696   0.89426   0.00000  Uiso   1.00
H164   H     0.72716   0.08019   0.08883   0.00000  Uiso   1.00
H165   H     0.57249   0.01141   0.14575   0.00000  Uiso   1.00
H166   H     0.44886   0.80357   0.73159   0.00000  Uiso   1.00
H167   H     0.86904   0.14776   0.14187   0.00000  Uiso   1.00
H168   H     0.54291   0.00272   0.26191   0.00000  Uiso   1.00
H169   H     0.72369   0.81486   0.06539   0.00000  Uiso   1.00
H170   H     0.64546   0.72395   0.91731   0.00000  Uiso   1.00
H171   H     0.84474   0.88718   0.11188   0.00000  Uiso   1.00
H172   H     0.69007   0.81840   0.16880   0.00000  Uiso   1.00
H173   H     0.54430   0.64692   0.75030   0.00000  Uiso   1.00
H174   H     0.96448   0.99112   0.16059   0.00000  Uiso   1.00
H175   H     0.63834   0.84607   0.28062   0.00000  Uiso   1.00
O176   O     0.44313   0.66875   0.64313   0.00000  Uiso   1.00
O177   O     0.99439   0.12033   0.18143   0.00000  Uiso   1.00
O178   O     0.56650   0.93003   0.33890   0.00000  Uiso   1.00
N179   N     0.48205   0.77917   0.75631   0.00000  Uiso   1.00
N180   N     0.87489   0.10097   0.13990   0.00000  Uiso   1.00
N181   N     0.56999   0.96538   0.25214   0.00000  Uiso   1.00
N182   N     0.53340   0.69488   0.76638   0.00000  Uiso   1.00
N183   N     0.92624   0.01668   0.14997   0.00000  Uiso   1.00
N184   N     0.62135   0.88109   0.26221   0.00000  Uiso   1.00
C185   C     0.05090   0.03195   0.60480   0.00000  Uiso   1.00
C186   C     0.99427   0.97248   0.58220   0.00000  Uiso   1.00
C187   C     0.98273   0.90091   0.53132   0.00000  Uiso   1.00
C188   C     0.92830   0.85488   0.51828   0.00000  Uiso   1.00
C189   C     0.84669   0.75878   0.47765   0.00000  Uiso   1.00
C190   C     0.09305   0.07009   0.69458   0.00000  Uiso   1.00
C191   C     0.16456   0.08060   0.73819   0.00000  Uiso   1.00
C192   C     0.19328   0.11676   0.81975   0.00000  Uiso   1.00
C193   C     0.26502   0.17225   0.95360   0.00000  Uiso   1.00
C194   C     0.01321   0.08448   0.58376   0.00000  Uiso   1.00
C195   C     0.01760   0.10710   0.53420   0.00000  Uiso   1.00
C196   C     0.97912   0.15538   0.52248   0.00000  Uiso   1.00
C197   C     0.92689   0.23320   0.48426   0.00000  Uiso   1.00
C198   C     0.97475   0.07749   0.67211   0.00000  Uiso   1.00
C199   C     0.95291   0.99722   0.61876   0.00000  Uiso   1.00
C200   C     0.89848   0.95129   0.60579   0.00000  Uiso   1.00
C201   C     0.88687   0.87966   0.55490   0.00000  Uiso   1.00
C202   C     0.05169   0.09483   0.73114   0.00000  Uiso   1.00
C203   C     0.08031   0.13099   0.81266   0.00000  Uiso   1.00
C204   C     0.15185   0.14154   0.85638   0.00000  Uiso   1.00
C205   C     0.97185   0.10921   0.62032   0.00000  Uiso   1.00
C206   C     0.93335   0.15748   0.60868   0.00000  Uiso   1.00
C207   C     0.93768   0.18016   0.55911   0.00000  Uiso   1.00
H208   H     0.08311   0.01269   0.57634   0.00000  Uiso   1.00
H209   H     0.01476   0.88178   0.50304   0.00000  Uiso   1.00
H210   H     0.19656   0.06146   0.70987   0.00000  Uiso   1.00
H211   H     0.04962   0.08794   0.50592   0.00000  Uiso   1.00
H212   H     0.92076   0.74755   0.43792   0.00000  Uiso   1.00
H213   H     0.30409   0.12643   0.87404   0.00000  Uiso   1.00
H214   H     0.99424   0.18228   0.44397   0.00000  Uiso   1.00
H215   H     0.94255   0.09675   0.70058   0.00000  Uiso   1.00
H216   H     0.86649   0.97045   0.63410   0.00000  Uiso   1.00
H217   H     0.04829   0.15013   0.84093   0.00000  Uiso   1.00
H218   H     0.90135   0.17661   0.63698   0.00000  Uiso   1.00
H219   H     0.80042   0.81952   0.54429   0.00000  Uiso   1.00
H220   H     0.18375   0.19840   0.98042   0.00000  Uiso   1.00
H221   H     0.87390   0.25425   0.55034   0.00000  Uiso   1.00
O222   O     0.81310   0.69893   0.44515   0.00000  Uiso   1.00
O223   O     0.31602   0.19601   0.01732   0.00000  Uiso   1.00
O224   O     0.90950   0.26929   0.45307   0.00000  Uiso   1.00
N225   N     0.90286   0.78183   0.47207   0.00000  Uiso   1.00
N226   N     0.26126   0.13604   0.87982   0.00000  Uiso   1.00
N227   N     0.97159   0.18827   0.47775   0.00000  Uiso   1.00
N228   N     0.83811   0.82055   0.52931   0.00000  Uiso   1.00
N229   N     0.19650   0.17476   0.93705   0.00000  Uiso   1.00
N230   N     0.90684   0.22700   0.53499   0.00000  Uiso   1.00
C231   C     0.04544   0.62520   0.99113   0.00000  Uiso   1.00
C232   C     0.97092   0.60063   0.92380   0.00000  Uiso   1.00
C233   C     0.91442   0.56095   0.91486   0.00000  Uiso   1.00
C234   C     0.85052   0.54384   0.84924   0.00000  Uiso   1.00
C235   C     0.73587   0.50240   0.75303   0.00000  Uiso   1.00
C236   C     0.06539   0.70567   0.02810   0.00000  Uiso   1.00
C237   C     0.08832   0.75430   0.10686   0.00000  Uiso   1.00
C238   C     0.10396   0.82562   0.12905   0.00000  Uiso   1.00
C239   C     0.13602   0.94726   0.19478   0.00000  Uiso   1.00
C240   C     0.09111   0.59685   0.95253   0.00000  Uiso   1.00
C241   C     0.13569   0.55399   0.96777   0.00000  Uiso   1.00
C242   C     0.17300   0.53370   0.92634   0.00000  Uiso   1.00
C243   C     0.24501   0.48637   0.87474   0.00000  Uiso   1.00
C244   C     0.03245   0.66539   0.89049   0.00000  Uiso   1.00
C245   C     0.96387   0.62246   0.86913   0.00000  Uiso   1.00
C246   C     0.90004   0.60541   0.80351   0.00000  Uiso   1.00
C247   C     0.84345   0.56570   0.79448   0.00000  Uiso   1.00
C248   C     0.05833   0.72750   0.97344   0.00000  Uiso   1.00
C249   C     0.07395   0.79877   0.99552   0.00000  Uiso   1.00
C250   C     0.09689   0.84749   0.07429   0.00000  Uiso   1.00
C251   C     0.08406   0.61867   0.89787   0.00000  Uiso   1.00
C252   C     0.12131   0.59845   0.85642   0.00000  Uiso   1.00
C253   C     0.16594   0.55557   0.87158   0.00000  Uiso   1.00
H254   H     0.05094   0.60821   0.03369   0.00000  Uiso   1.00
H255   H     0.91990   0.54407   0.95718   0.00000  Uiso   1.00
H256   H     0.09378   0.73739   0.14915   0.00000  Uiso   1.00
H257   H     0.14114   0.53711   0.01007   0.00000  Uiso   1.00
H258   H     0.77149   0.48260   0.84826   0.00000  Uiso   1.00
H259   H     0.13816   0.89024   0.25305   0.00000  Uiso   1.00
H260   H     0.23803   0.46790   0.95978   0.00000  Uiso   1.00
H261   H     0.02696   0.68239   0.84793   0.00000  Uiso   1.00
H262   H     0.89460   0.62231   0.76122   0.00000  Uiso   1.00
H263   H     0.06848   0.81564   0.95320   0.00000  Uiso   1.00
H264   H     0.11584   0.61535   0.81412   0.00000  Uiso   1.00
H265   H     0.75096   0.54611   0.68921   0.00000  Uiso   1.00
H266   H     0.11763   0.95375   0.09401   0.00000  Uiso   1.00
H267   H     0.21750   0.53141   0.80073   0.00000  Uiso   1.00
O268   O     0.67458   0.47352   0.71506   0.00000  Uiso   1.00
O269   O     0.15565   0.00832   0.24614   0.00000  Uiso   1.00
O270   O     0.28667   0.45422   0.86137   0.00000  Uiso   1.00
N271   N     0.78483   0.50578   0.82272   0.00000  Uiso   1.00
N272   N     0.12763   0.88690   0.20118   0.00000  Uiso   1.00
N273   N     0.22102   0.49206   0.92701   0.00000  Uiso   1.00
N274   N     0.77378   0.53995   0.73714   0.00000  Uiso   1.00
N275   N     0.11658   0.92107   0.11559   0.00000  Uiso   1.00
N276   N     0.20997   0.52623   0.84142   0.00000  Uiso   1.00
C277   C     0.72620   0.24065   0.24246   0.00000  Uiso   1.00
C278   C     0.74634   0.31667   0.30896   0.00000  Uiso   1.00
C279   C     0.80213   0.36974   0.33575   0.00000  Uiso   1.00
C280   C     0.81179   0.43578   0.39719   0.00000  Uiso   1.00
C281   C     0.84983   0.55194   0.49535   0.00000  Uiso   1.00
C282   C     0.65051   0.22782   0.18276   0.00000  Uiso   1.00
C283   C     0.62573   0.20619   0.10346   0.00000  Uiso   1.00
C284   C     0.55473   0.19742   0.05866   0.00000  Uiso   1.00
C285   C     0.44398   0.17560   0.96088   0.00000  Uiso   1.00
C286   C     0.72551   0.19314   0.27776   0.00000  Uiso   1.00
C287   C     0.76377   0.14233   0.27830   0.00000  Uiso   1.00
C288   C     0.75590   0.10436   0.31347   0.00000  Uiso   1.00
C289   C     0.76159   0.02869   0.36318   0.00000  Uiso   1.00
C290   C     0.64415   0.26354   0.30391   0.00000  Uiso   1.00
C291   C     0.70177   0.32910   0.34234   0.00000  Uiso   1.00
C292   C     0.71135   0.39508   0.40375   0.00000  Uiso   1.00
C293   C     0.76715   0.44824   0.43063   0.00000  Uiso   1.00
C294   C     0.60594   0.24026   0.21614   0.00000  Uiso   1.00
C295   C     0.53496   0.23152   0.17145   0.00000  Uiso   1.00
C296   C     0.51008   0.20988   0.09210   0.00000  Uiso   1.00
C297   C     0.68094   0.20558   0.31114   0.00000  Uiso   1.00
C298   C     0.67300   0.16767   0.34630   0.00000  Uiso   1.00
C299   C     0.71125   0.11682   0.34691   0.00000  Uiso   1.00
H300   H     0.76089   0.23096   0.21646   0.00000  Uiso   1.00
H301   H     0.83660   0.36010   0.30990   0.00000  Uiso   1.00
H302   H     0.66023   0.19656   0.07764   0.00000  Uiso   1.00
H303   H     0.79825   0.13273   0.25246   0.00000  Uiso   1.00
H304   H     0.90088   0.50876   0.42820   0.00000  Uiso   1.00
H305   H     0.52899   0.16391   0.93845   0.00000  Uiso   1.00
H306   H     0.82003   0.02930   0.30710   0.00000  Uiso   1.00
H307   H     0.60945   0.27323   0.32990   0.00000  Uiso   1.00
H308   H     0.67686   0.40469   0.42957   0.00000  Uiso   1.00
H309   H     0.50049   0.24115   0.19730   0.00000  Uiso   1.00
H310   H     0.63851   0.17731   0.37213   0.00000  Uiso   1.00
H311   H     0.77122   0.54495   0.52532   0.00000  Uiso   1.00
H312   H     0.39933   0.20009   0.03557   0.00000  Uiso   1.00
H313   H     0.69038   0.06549   0.40423   0.00000  Uiso   1.00
O314   O     0.88311   0.61258   0.54026   0.00000  Uiso   1.00
O315   O     0.39521   0.16013   0.89773   0.00000  Uiso   1.00
O316   O     0.77705   0.98353   0.38139   0.00000  Uiso   1.00
N317   N     0.86112   0.49923   0.43739   0.00000  Uiso   1.00
N318   N     0.51343   0.17683   0.97951   0.00000  Uiso   1.00
N319   N     0.78552   0.05096   0.32415   0.00000  Uiso   1.00
N320   N     0.79135   0.51871   0.48965   0.00000  Uiso   1.00
N321   N     0.44366   0.19630   0.03177   0.00000  Uiso   1.00
N322   N     0.71575   0.07044   0.37641   0.00000  Uiso   1.00
C323   C     0.28460   0.78136   0.30322   0.00000  Uiso   1.00
C324   C     0.35663   0.80962   0.37547   0.00000  Uiso   1.00
C325   C     0.38303   0.87799   0.43917   0.00000  Uiso   1.00
C326   C     0.45007   0.89341   0.49945   0.00000  Uiso   1.00
C327   C     0.55595   0.94506   0.61218   0.00000  Uiso   1.00
C328   C     0.24948   0.71660   0.29790   0.00000  Uiso   1.00
C329   C     0.18579   0.70676   0.29636   0.00000  Uiso   1.00
C330   C     0.16263   0.64387   0.29134   0.00000  Uiso   1.00
C331   C     0.10212   0.55108   0.28357   0.00000  Uiso   1.00
C332   C     0.29709   0.75331   0.23203   0.00000  Uiso   1.00
C333   C     0.27342   0.77433   0.17509   0.00000  Uiso   1.00
C334   C     0.29034   0.74233   0.11459   0.00000  Uiso   1.00
C335   C     0.30377   0.70655   0.00455   0.00000  Uiso   1.00
C336   C     0.35670   0.68716   0.29701   0.00000  Uiso   1.00
C337   C     0.39579   0.75845   0.37210   0.00000  Uiso   1.00
C338   C     0.46281   0.77377   0.43230   0.00000  Uiso   1.00
C339   C     0.48931   0.84215   0.49607   0.00000  Uiso   1.00
C340   C     0.28864   0.66543   0.29453   0.00000  Uiso   1.00
C341   C     0.26557   0.60254   0.28950   0.00000  Uiso   1.00
C342   C     0.20186   0.59261   0.28796   0.00000  Uiso   1.00
C343   C     0.33626   0.70214   0.22865   0.00000  Uiso   1.00
C344   C     0.35321   0.67011   0.16823   0.00000  Uiso   1.00
C345   C     0.32957   0.69107   0.11121   0.00000  Uiso   1.00
H346   H     0.25410   0.82119   0.30584   0.00000  Uiso   1.00
H347   H     0.35270   0.91757   0.44176   0.00000  Uiso   1.00
H348   H     0.15549   0.74636   0.29897   0.00000  Uiso   1.00
H349   H     0.24312   0.81392   0.17772   0.00000  Uiso   1.00
H350   H     0.47929   0.00185   0.59098   0.00000  Uiso   1.00
H351   H     0.06343   0.64084   0.28987   0.00000  Uiso   1.00
H352   H     0.24821   0.78330   0.03419   0.00000  Uiso   1.00
H353   H     0.38720   0.64732   0.29438   0.00000  Uiso   1.00
H354   H     0.49311   0.73416   0.42967   0.00000  Uiso   1.00
H355   H     0.29589   0.56295   0.28688   0.00000  Uiso   1.00
H356   H     0.38352   0.63051   0.16563   0.00000  Uiso   1.00
H357   H     0.59324   0.85299   0.58117   0.00000  Uiso   1.00
H358   H     0.17739   0.49197   0.28005   0.00000  Uiso   1.00
H359   H     0.36217   0.63444   0.02438   0.00000  Uiso   1.00
O360   O     0.60353   0.98768   0.67529   0.00000  Uiso   1.00
O361   O     0.05794   0.51404   0.28023   0.00000  Uiso   1.00
O362   O     0.30037   0.70095   0.94479   0.00000  Uiso   1.00
N363   N     0.49158   0.95490   0.57009   0.00000  Uiso   1.00
N364   N     0.10278   0.61738   0.28859   0.00000  Uiso   1.00
N365   N     0.27552   0.75056   0.04954   0.00000  Uiso   1.00
N366   N     0.55290   0.87480   0.56482   0.00000  Uiso   1.00
N367   N     0.16410   0.53728   0.28331   0.00000  Uiso   1.00
N368   N     0.33684   0.67046   0.04426   0.00000  Uiso   1.00
C369   C     0.22583   0.21339   0.69601   0.00000  Uiso   1.00
C370   C     0.29966   0.25853   0.73739   0.00000  Uiso   1.00
C371   C     0.35368   0.26981   0.80869   0.00000  Uiso   1.00
C372   C     0.41735   0.31280   0.83668   0.00000  Uiso   1.00
C373   C     0.53059   0.37820   0.90729   0.00000  Uiso   1.00
C374   C     0.21234   0.15827   0.61387   0.00000  Uiso   1.00
C375   C     0.19293   0.08525   0.58131   0.00000  Uiso   1.00
C376   C     0.18308   0.04384   0.50532   0.00000  Uiso   1.00
C377   C     0.16071   0.95360   0.38413   0.00000  Uiso   1.00
C378   C     0.17715   0.26194   0.68393   0.00000  Uiso   1.00
C379   C     0.12814   0.27608   0.71027   0.00000  Uiso   1.00
C380   C     0.08865   0.32194   0.69324   0.00000  Uiso   1.00
C381   C     0.01163   0.39266   0.68084   0.00000  Uiso   1.00
C382   C     0.24282   0.26967   0.61892   0.00000  Uiso   1.00
C383   C     0.30889   0.28909   0.69552   0.00000  Uiso   1.00
C384   C     0.37249   0.33208   0.72341   0.00000  Uiso   1.00
C385   C     0.42659   0.34342   0.79474   0.00000  Uiso   1.00
C386   C     0.22157   0.18883   0.57200   0.00000  Uiso   1.00
C387   C     0.21174   0.14752   0.49603   0.00000  Uiso   1.00
C388   C     0.19233   0.07446   0.46337   0.00000  Uiso   1.00
C389   C     0.18638   0.29251   0.64206   0.00000  Uiso   1.00
C390   C     0.14695   0.33835   0.62499   0.00000  Uiso   1.00
C391   C     0.09790   0.35256   0.65129   0.00000  Uiso   1.00
H392   H     0.21864   0.18959   0.72860   0.00000  Uiso   1.00
H393   H     0.34652   0.24614   0.84108   0.00000  Uiso   1.00
H394   H     0.18579   0.06161   0.61373   0.00000  Uiso   1.00
H395   H     0.12101   0.25242   0.74267   0.00000  Uiso   1.00
H396   H     0.49237   0.32230   0.94729   0.00000  Uiso   1.00
H397   H     0.15344   0.93322   0.46791   0.00000  Uiso   1.00
H398   H     0.01684   0.33556   0.73980   0.00000  Uiso   1.00
H399   H     0.25001   0.29347   0.58632   0.00000  Uiso   1.00
H400   H     0.37961   0.35572   0.69099   0.00000  Uiso   1.00
H401   H     0.21888   0.17119   0.46364   0.00000  Uiso   1.00
H402   H     0.15411   0.36200   0.59258   0.00000  Uiso   1.00
H403   H     0.51923   0.41124   0.82548   0.00000  Uiso   1.00
H404   H     0.18030   0.02215   0.34609   0.00000  Uiso   1.00
H405   H     0.04370   0.42450   0.61799   0.00000  Uiso   1.00
O406   O     0.59050   0.40583   0.95780   0.00000  Uiso   1.00
O407   O     0.14582   0.89537   0.32886   0.00000  Uiso   1.00
O408   O     0.96661   0.42323   0.68558   0.00000  Uiso   1.00
N409   N     0.48090   0.33470   0.90427   0.00000  Uiso   1.00
N410   N     0.16403   0.97093   0.45608   0.00000  Uiso   1.00
N411   N     0.03631   0.34707   0.71025   0.00000  Uiso   1.00
N412   N     0.49536   0.38255   0.83872   0.00000  Uiso   1.00
N413   N     0.17849   0.01879   0.39053   0.00000  Uiso   1.00
N414   N     0.05077   0.39493   0.64471   0.00000  Uiso   1.00
C415   C     0.25264   0.81653   0.80704   0.00000  Uiso   1.00
C416   C     0.29750   0.87870   0.88995   0.00000  Uiso   1.00
C417   C     0.33873   0.87350   0.95671   0.00000  Uiso   1.00
C418   C     0.37583   0.93661   0.02707   0.00000  Uiso   1.00
C419   C     0.44609   0.02312   0.15529   0.00000  Uiso   1.00
C420   C     0.17863   0.82718   0.78097   0.00000  Uiso   1.00
C421   C     0.11990   0.77865   0.75609   0.00000  Uiso   1.00
C422   C     0.05693   0.79839   0.73469   0.00000  Uiso   1.00
C423   C     0.94262   0.80489   0.69366   0.00000  Uiso   1.00
C424   C     0.27670   0.82686   0.75447   0.00000  Uiso   1.00
C425   C     0.30041   0.77806   0.70730   0.00000  Uiso   1.00
C426   C     0.32000   0.79753   0.66358   0.00000  Uiso   1.00
C427   C     0.35795   0.80353   0.58142   0.00000  Uiso   1.00
C428   C     0.24523   0.93785   0.81326   0.00000  Uiso   1.00
C429   C     0.29348   0.94459   0.89332   0.00000  Uiso   1.00
C430   C     0.33053   0.00773   0.96359   0.00000  Uiso   1.00
C431   C     0.37181   0.00263   0.03045   0.00000  Uiso   1.00
C432   C     0.17460   0.89307   0.78434   0.00000  Uiso   1.00
C433   C     0.11170   0.91288   0.76297   0.00000  Uiso   1.00
C434   C     0.05290   0.86441   0.73807   0.00000  Uiso   1.00
C435   C     0.27268   0.89276   0.75785   0.00000  Uiso   1.00
C436   C     0.29222   0.91229   0.71419   0.00000  Uiso   1.00
C437   C     0.31597   0.86354   0.66696   0.00000  Uiso   1.00
H438   H     0.25576   0.76523   0.80441   0.00000  Uiso   1.00
H439   H     0.34182   0.82249   0.95408   0.00000  Uiso   1.00
H440   H     0.12303   0.72766   0.75348   0.00000  Uiso   1.00
H441   H     0.30352   0.72707   0.70471   0.00000  Uiso   1.00
H442   H     0.43544   0.91505   0.12150   0.00000  Uiso   1.00
H443   H     0.97410   0.71507   0.69850   0.00000  Uiso   1.00
H444   H     0.35469   0.71383   0.59565   0.00000  Uiso   1.00
H445   H     0.24209   0.98916   0.81589   0.00000  Uiso   1.00
H446   H     0.32741   0.05872   0.96619   0.00000  Uiso   1.00
H447   H     0.10861   0.96388   0.76558   0.00000  Uiso   1.00
H448   H     0.28910   0.96329   0.71681   0.00000  Uiso   1.00
H449   H     0.42374   0.10678   0.13133   0.00000  Uiso   1.00
H450   H     0.96239   0.90680   0.70832   0.00000  Uiso   1.00
H451   H     0.34299   0.90556   0.60548   0.00000  Uiso   1.00
O452   O     0.48594   0.05263   0.22509   0.00000  Uiso   1.00
O453   O     0.88067   0.79026   0.67011   0.00000  Uiso   1.00
O454   O     0.38001   0.78864   0.53518   0.00000  Uiso   1.00
N455   N     0.42099   0.95063   0.10319   0.00000  Uiso   1.00
N456   N     0.98966   0.76367   0.70772   0.00000  Uiso   1.00
N457   N     0.34547   0.76250   0.61155   0.00000  Uiso   1.00
N458   N     0.41469   0.05379   0.10848   0.00000  Uiso   1.00
N459   N     0.98337   0.86683   0.71300   0.00000  Uiso   1.00
N460   N     0.33917   0.86566   0.61683   0.00000  Uiso   1.00
C461   C     0.78650   0.72890   0.20676   0.00000  Uiso   1.00
C462   C     0.84161   0.79036   0.23040   0.00000  Uiso   1.00
C463   C     0.84981   0.86156   0.27973   0.00000  Uiso   1.00
C464   C     0.90334   0.90964   0.29410   0.00000  Uiso   1.00
C465   C     0.98223   0.00847   0.33591   0.00000  Uiso   1.00
C466   C     0.74672   0.68948   0.11683   0.00000  Uiso   1.00
C467   C     0.67513   0.67585   0.07069   0.00000  Uiso   1.00
C468   C     0.64878   0.63900   0.98945   0.00000  Uiso   1.00
C469   C     0.58035   0.58117   0.85495   0.00000  Uiso   1.00
C470   C     0.82634   0.67862   0.23041   0.00000  Uiso   1.00
C471   C     0.82169   0.65584   0.27975   0.00000  Uiso   1.00
C472   C     0.86237   0.60983   0.29412   0.00000  Uiso   1.00
C473   C     0.91757   0.53514   0.33597   0.00000  Uiso   1.00
C474   C     0.86700   0.68767   0.14455   0.00000  Uiso   1.00
C475   C     0.88533   0.76796   0.19660   0.00000  Uiso   1.00
C476   C     0.93887   0.81595   0.21090   0.00000  Uiso   1.00
C477   C     0.94714   0.88720   0.26025   0.00000  Uiso   1.00
C478   C     0.79044   0.66708   0.08304   0.00000  Uiso   1.00
C479   C     0.76419   0.63024   0.00185   0.00000  Uiso   1.00
C480   C     0.69258   0.61657   0.95559   0.00000  Uiso   1.00
C481   C     0.87007   0.65622   0.19662   0.00000  Uiso   1.00
C482   C     0.91076   0.61023   0.21092   0.00000  Uiso   1.00
C483   C     0.90617   0.58740   0.26027   0.00000  Uiso   1.00
H484   H     0.75246   0.74633   0.23307   0.00000  Uiso   1.00
H485   H     0.81596   0.87886   0.30587   0.00000  Uiso   1.00
H486   H     0.64131   0.69318   0.09685   0.00000  Uiso   1.00
H487   H     0.78785   0.67318   0.30589   0.00000  Uiso   1.00
H488   H     0.90562   0.01593   0.37166   0.00000  Uiso   1.00
H489   H     0.53736   0.62438   0.93094   0.00000  Uiso   1.00
H490   H     0.84637   0.58220   0.37172   0.00000  Uiso   1.00
H491   H     0.90104   0.67024   0.11824   0.00000  Uiso   1.00
H492   H     0.97269   0.79860   0.18474   0.00000  Uiso   1.00
H493   H     0.79804   0.61292   0.97572   0.00000  Uiso   1.00
H494   H     0.94458   0.59292   0.18476   0.00000  Uiso   1.00
H495   H     0.03283   0.95079   0.27334   0.00000  Uiso   1.00
H496   H     0.66456   0.55924   0.83262   0.00000  Uiso   1.00
H497   H     0.97358   0.51706   0.27341   0.00000  Uiso   1.00
O498   O     0.01366   0.06917   0.36830   0.00000  Uiso   1.00
O499   O     0.53052   0.55547   0.79009   0.00000  Uiso   1.00
O500   O     0.93594   0.50013   0.36839   0.00000  Uiso   1.00
N501   N     0.92573   0.98298   0.33940   0.00000  Uiso   1.00
N502   N     0.58143   0.61692   0.92736   0.00000  Uiso   1.00
N503   N     0.87032   0.57747   0.33944   0.00000  Uiso   1.00
N504   N     0.99418   0.94793   0.28650   0.00000  Uiso   1.00
N505   N     0.64988   0.58187   0.87446   0.00000  Uiso   1.00
N506   N     0.93877   0.54242   0.28654   0.00000  Uiso   1.00
C507   C     0.82125   0.22245   0.71452   0.00000  Uiso   1.00
C508   C     0.88361   0.23249   0.78973   0.00000  Uiso   1.00
C509   C     0.95191   0.26699   0.82005   0.00000  Uiso   1.00
C510   C     0.00144   0.27055   0.88953   0.00000  Uiso   1.00
C511   C     0.10105   0.29066   0.00054   0.00000  Uiso   1.00
C512   C     0.78941   0.14274   0.66269   0.00000  Uiso   1.00
C513   C     0.77849   0.10179   0.58621   0.00000  Uiso   1.00
C514   C     0.74871   0.02980   0.54874   0.00000  Uiso   1.00
C515   C     0.70202   0.91059   0.46252   0.00000  Uiso   1.00
C516   C     0.76778   0.25439   0.73874   0.00000  Uiso   1.00
C517   C     0.73866   0.30730   0.72617   0.00000  Uiso   1.00
C518   C     0.69066   0.32930   0.75272   0.00000  Uiso   1.00
C519   C     0.61040   0.38343   0.78456   0.00000  Uiso   1.00
C520   C     0.78778   0.16742   0.78398   0.00000  Uiso   1.00
C521   C     0.86543   0.20260   0.82745   0.00000  Uiso   1.00
C522   C     0.91488   0.20611   0.89690   0.00000  Uiso   1.00
C523   C     0.98323   0.24061   0.92732   0.00000  Uiso   1.00
C524   C     0.77123   0.11285   0.70042   0.00000  Uiso   1.00
C525   C     0.74146   0.04091   0.66306   0.00000  Uiso   1.00
C526   C     0.73050   0.99986   0.58654   0.00000  Uiso   1.00
C527   C     0.74960   0.22450   0.77647   0.00000  Uiso   1.00
C528   C     0.70164   0.24642   0.80303   0.00000  Uiso   1.00
C529   C     0.67245   0.29935   0.79051   0.00000  Uiso   1.00
H530   H     0.83540   0.24571   0.68514   0.00000  Uiso   1.00
H531   H     0.96595   0.29011   0.79083   0.00000  Uiso   1.00
H532   H     0.79256   0.12494   0.55703   0.00000  Uiso   1.00
H533   H     0.75274   0.33041   0.69698   0.00000  Uiso   1.00
H534   H     0.10269   0.32612   0.92463   0.00000  Uiso   1.00
H535   H     0.73705   0.97786   0.43163   0.00000  Uiso   1.00
H536   H     0.65309   0.41115   0.72673   0.00000  Uiso   1.00
H537   H     0.77362   0.14415   0.81335   0.00000  Uiso   1.00
H538   H     0.90079   0.18297   0.92608   0.00000  Uiso   1.00
H539   H     0.72740   0.01780   0.69227   0.00000  Uiso   1.00
H540   H     0.68758   0.22328   0.83222   0.00000  Uiso   1.00
H541   H     0.04980   0.23916   0.03440   0.00000  Uiso   1.00
H542   H     0.68416   0.89090   0.54139   0.00000  Uiso   1.00
H543   H     0.60020   0.32419   0.83650   0.00000  Uiso   1.00
O544   O     0.16102   0.30999   0.05135   0.00000  Uiso   1.00
O545   O     0.68130   0.85309   0.40453   0.00000  Uiso   1.00
O546   O     0.57115   0.42156   0.79171   0.00000  Uiso   1.00
N547   N     0.07279   0.30034   0.93500   0.00000  Uiso   1.00
N548   N     0.73094   0.97473   0.47408   0.00000  Uiso   1.00
N549   N     0.65243   0.37981   0.74996   0.00000  Uiso   1.00
N550   N     0.04433   0.25355   0.99407   0.00000  Uiso   1.00
N551   N     0.70249   0.92794   0.53314   0.00000  Uiso   1.00
N552   N     0.62398   0.33302   0.80903   0.00000  Uiso   1.00
