data_job_04634
_audit_creation_date              2018-12-19
_audit_creation_method            'Materials Studio'
_symmetry_space_group_name_H-M    'P1'
_symmetry_Int_Tables_number       1
_symmetry_cell_setting            triclinic
loop_
_symmetry_equiv_pos_as_xyz
  x,y,z
_cell_length_a                    38.3964
_cell_length_b                    15.0841
_cell_length_c                    9.7448
_cell_angle_alpha                 90.0000
_cell_angle_beta                  95.4632
_cell_angle_gamma                 90.0000
loop_
_atom_site_label
_atom_site_type_symbol
_atom_site_fract_x
_atom_site_fract_y
_atom_site_fract_z
_atom_site_U_iso_or_equiv
_atom_site_adp_type
_atom_site_occupancy
C1     C     0.62584   0.75541   0.33951   0.00000  Uiso   1.00
C2     C     0.61300   0.67922   0.24500   0.00000  Uiso   1.00
C3     C     0.57828   0.65668   0.20921   0.00000  Uiso   1.00
C4     C     0.57196   0.58475   0.12148   0.00000  Uiso   1.00
C5     C     0.54785   0.47366   0.98241   0.00000  Uiso   1.00
C6     C     0.65035   0.71405   0.45431   0.00000  Uiso   1.00
C7     C     0.64703   0.72081   0.59450   0.00000  Uiso   1.00
C8     C     0.67214   0.67820   0.68297   0.00000  Uiso   1.00
C9     C     0.70602   0.62125   0.86885   0.00000  Uiso   1.00
C10    C     0.64879   0.81286   0.25607   0.00000  Uiso   1.00
C11    C     0.64418   0.90272   0.22961   0.00000  Uiso   1.00
C12    C     0.66799   0.94331   0.15120   0.00000  Uiso   1.00
C13    C     0.69946   0.03979   0.02929   0.00000  Uiso   1.00
C14    C     0.67635   0.66774   0.24735   0.00000  Uiso   1.00
C15    C     0.64044   0.63160   0.19495   0.00000  Uiso   1.00
C16    C     0.63417   0.55969   0.10725   0.00000  Uiso   1.00
C17    C     0.59944   0.53705   0.07133   0.00000  Uiso   1.00
C18    C     0.67778   0.66644   0.40426   0.00000  Uiso   1.00
C19    C     0.70291   0.62382   0.49254   0.00000  Uiso   1.00
C20    C     0.69963   0.63050   0.63282   0.00000  Uiso   1.00
C21    C     0.67623   0.76525   0.20601   0.00000  Uiso   1.00
C22    C     0.70005   0.80572   0.12764   0.00000  Uiso   1.00
C23    C     0.69547   0.89561   0.10106   0.00000  Uiso   1.00
H24    H     0.60449   0.79247   0.37849   0.00000  Uiso   1.00
H25    H     0.55706   0.69354   0.24798   0.00000  Uiso   1.00
H26    H     0.62580   0.75767   0.63321   0.00000  Uiso   1.00
H27    H     0.62294   0.93954   0.26837   0.00000  Uiso   1.00
H28    H     0.51658   0.56283   0.08125   0.00000  Uiso   1.00
H29    H     0.66152   0.69807   0.89353   0.00000  Uiso   1.00
H30    H     0.65550   0.08159   0.12420   0.00000  Uiso   1.00
H31    H     0.69771   0.63067   0.20838   0.00000  Uiso   1.00
H32    H     0.65540   0.52285   0.06853   0.00000  Uiso   1.00
H33    H     0.72414   0.58698   0.45376   0.00000  Uiso   1.00
H34    H     0.72128   0.76885   0.08892   0.00000  Uiso   1.00
H35    H     0.59639   0.42429   0.93561   0.00000  Uiso   1.00
H36    H     0.74133   0.55954   0.74789   0.00000  Uiso   1.00
H37    H     0.73532   0.94306   0.97855   0.00000  Uiso   1.00
O38    O     0.52697   0.42554   0.91954   0.00000  Uiso   1.00
O39    O     0.71713   0.60299   0.98521   0.00000  Uiso   1.00
O40    O     0.70923   0.10615   0.97586   0.00000  Uiso   1.00
N41    N     0.54117   0.54503   0.06614   0.00000  Uiso   1.00
N42    N     0.67668   0.67147   0.82558   0.00000  Uiso   1.00
N43    N     0.67106   0.03003   0.10634   0.00000  Uiso   1.00
N44    N     0.58412   0.47049   0.98777   0.00000  Uiso   1.00
N45    N     0.71962   0.59692   0.74720   0.00000  Uiso   1.00
N46    N     0.71400   0.95548   0.02797   0.00000  Uiso   1.00
C47    C     0.12584   0.25541   0.33951   0.00000  Uiso   1.00
C48    C     0.11300   0.17922   0.24500   0.00000  Uiso   1.00
C49    C     0.07828   0.15668   0.20921   0.00000  Uiso   1.00
C50    C     0.07196   0.08475   0.12148   0.00000  Uiso   1.00
C51    C     0.04785   0.97366   0.98241   0.00000  Uiso   1.00
C52    C     0.15035   0.21405   0.45431   0.00000  Uiso   1.00
C53    C     0.14703   0.22081   0.59450   0.00000  Uiso   1.00
C54    C     0.17214   0.17820   0.68297   0.00000  Uiso   1.00
C55    C     0.20602   0.12125   0.86885   0.00000  Uiso   1.00
C56    C     0.14879   0.31286   0.25607   0.00000  Uiso   1.00
C57    C     0.14418   0.40272   0.22961   0.00000  Uiso   1.00
C58    C     0.16799   0.44331   0.15120   0.00000  Uiso   1.00
C59    C     0.19946   0.53979   0.02929   0.00000  Uiso   1.00
C60    C     0.17635   0.16774   0.24735   0.00000  Uiso   1.00
C61    C     0.14044   0.13160   0.19495   0.00000  Uiso   1.00
C62    C     0.13417   0.05969   0.10725   0.00000  Uiso   1.00
C63    C     0.09944   0.03705   0.07133   0.00000  Uiso   1.00
C64    C     0.17778   0.16644   0.40426   0.00000  Uiso   1.00
C65    C     0.20291   0.12382   0.49254   0.00000  Uiso   1.00
C66    C     0.19963   0.13050   0.63282   0.00000  Uiso   1.00
C67    C     0.17623   0.26525   0.20601   0.00000  Uiso   1.00
C68    C     0.20005   0.30572   0.12764   0.00000  Uiso   1.00
C69    C     0.19547   0.39561   0.10106   0.00000  Uiso   1.00
H70    H     0.10449   0.29247   0.37849   0.00000  Uiso   1.00
H71    H     0.05706   0.19354   0.24798   0.00000  Uiso   1.00
H72    H     0.12580   0.25767   0.63321   0.00000  Uiso   1.00
H73    H     0.12294   0.43954   0.26837   0.00000  Uiso   1.00
H74    H     0.01658   0.06283   0.08125   0.00000  Uiso   1.00
H75    H     0.16152   0.19807   0.89353   0.00000  Uiso   1.00
H76    H     0.15550   0.58159   0.12420   0.00000  Uiso   1.00
H77    H     0.19771   0.13067   0.20838   0.00000  Uiso   1.00
H78    H     0.15540   0.02285   0.06853   0.00000  Uiso   1.00
H79    H     0.22414   0.08698   0.45376   0.00000  Uiso   1.00
H80    H     0.22128   0.26885   0.08892   0.00000  Uiso   1.00
H81    H     0.09639   0.92429   0.93561   0.00000  Uiso   1.00
H82    H     0.24133   0.05954   0.74789   0.00000  Uiso   1.00
H83    H     0.23532   0.44306   0.97855   0.00000  Uiso   1.00
O84    O     0.02697   0.92554   0.91954   0.00000  Uiso   1.00
O85    O     0.21713   0.10299   0.98521   0.00000  Uiso   1.00
O86    O     0.20923   0.60615   0.97586   0.00000  Uiso   1.00
N87    N     0.04117   0.04503   0.06614   0.00000  Uiso   1.00
N88    N     0.17668   0.17147   0.82558   0.00000  Uiso   1.00
N89    N     0.17106   0.53003   0.10634   0.00000  Uiso   1.00
N90    N     0.08412   0.97049   0.98777   0.00000  Uiso   1.00
N91    N     0.21962   0.09692   0.74720   0.00000  Uiso   1.00
N92    N     0.21400   0.45548   0.02797   0.00000  Uiso   1.00
C93    C     0.37416   0.75541   0.16049   0.00000  Uiso   1.00
C94    C     0.38700   0.67922   0.25500   0.00000  Uiso   1.00
C95    C     0.42172   0.65668   0.29079   0.00000  Uiso   1.00
C96    C     0.42804   0.58475   0.37852   0.00000  Uiso   1.00
C97    C     0.45215   0.47366   0.51759   0.00000  Uiso   1.00
C98    C     0.34965   0.71405   0.04569   0.00000  Uiso   1.00
C99    C     0.35297   0.72081   0.90550   0.00000  Uiso   1.00
C100   C     0.32786   0.67820   0.81703   0.00000  Uiso   1.00
C101   C     0.29398   0.62125   0.63115   0.00000  Uiso   1.00
C102   C     0.35121   0.81286   0.24393   0.00000  Uiso   1.00
C103   C     0.35582   0.90272   0.27039   0.00000  Uiso   1.00
C104   C     0.33201   0.94331   0.34880   0.00000  Uiso   1.00
C105   C     0.30054   0.03979   0.47071   0.00000  Uiso   1.00
C106   C     0.32365   0.66774   0.25265   0.00000  Uiso   1.00
C107   C     0.35956   0.63160   0.30505   0.00000  Uiso   1.00
C108   C     0.36583   0.55969   0.39275   0.00000  Uiso   1.00
C109   C     0.40056   0.53705   0.42867   0.00000  Uiso   1.00
C110   C     0.32222   0.66644   0.09574   0.00000  Uiso   1.00
C111   C     0.29709   0.62382   0.00746   0.00000  Uiso   1.00
C112   C     0.30037   0.63050   0.86718   0.00000  Uiso   1.00
C113   C     0.32377   0.76525   0.29399   0.00000  Uiso   1.00
C114   C     0.29995   0.80572   0.37236   0.00000  Uiso   1.00
C115   C     0.30453   0.89561   0.39894   0.00000  Uiso   1.00
H116   H     0.39551   0.79247   0.12151   0.00000  Uiso   1.00
H117   H     0.44294   0.69354   0.25202   0.00000  Uiso   1.00
H118   H     0.37420   0.75767   0.86679   0.00000  Uiso   1.00
H119   H     0.37706   0.93954   0.23163   0.00000  Uiso   1.00
H120   H     0.48342   0.56283   0.41875   0.00000  Uiso   1.00
H121   H     0.33848   0.69807   0.60647   0.00000  Uiso   1.00
H122   H     0.34450   0.08159   0.37580   0.00000  Uiso   1.00
H123   H     0.30229   0.63067   0.29162   0.00000  Uiso   1.00
H124   H     0.34460   0.52285   0.43147   0.00000  Uiso   1.00
H125   H     0.27586   0.58698   0.04624   0.00000  Uiso   1.00
H126   H     0.27872   0.76885   0.41108   0.00000  Uiso   1.00
H127   H     0.40361   0.42429   0.56439   0.00000  Uiso   1.00
H128   H     0.25867   0.55954   0.75211   0.00000  Uiso   1.00
H129   H     0.26468   0.94306   0.52145   0.00000  Uiso   1.00
O130   O     0.47303   0.42554   0.58046   0.00000  Uiso   1.00
O131   O     0.28287   0.60299   0.51479   0.00000  Uiso   1.00
O132   O     0.29077   0.10615   0.52414   0.00000  Uiso   1.00
N133   N     0.45883   0.54503   0.43386   0.00000  Uiso   1.00
N134   N     0.32332   0.67147   0.67442   0.00000  Uiso   1.00
N135   N     0.32894   0.03003   0.39366   0.00000  Uiso   1.00
N136   N     0.41588   0.47049   0.51223   0.00000  Uiso   1.00
N137   N     0.28038   0.59692   0.75280   0.00000  Uiso   1.00
N138   N     0.28600   0.95548   0.47203   0.00000  Uiso   1.00
C139   C     0.87416   0.25541   0.16049   0.00000  Uiso   1.00
C140   C     0.88700   0.17922   0.25500   0.00000  Uiso   1.00
C141   C     0.92172   0.15668   0.29079   0.00000  Uiso   1.00
C142   C     0.92804   0.08475   0.37852   0.00000  Uiso   1.00
C143   C     0.95215   0.97366   0.51759   0.00000  Uiso   1.00
C144   C     0.84965   0.21405   0.04569   0.00000  Uiso   1.00
C145   C     0.85297   0.22081   0.90550   0.00000  Uiso   1.00
C146   C     0.82786   0.17820   0.81703   0.00000  Uiso   1.00
C147   C     0.79398   0.12125   0.63115   0.00000  Uiso   1.00
C148   C     0.85121   0.31286   0.24393   0.00000  Uiso   1.00
C149   C     0.85582   0.40272   0.27039   0.00000  Uiso   1.00
C150   C     0.83201   0.44331   0.34880   0.00000  Uiso   1.00
C151   C     0.80054   0.53979   0.47071   0.00000  Uiso   1.00
C152   C     0.82365   0.16774   0.25265   0.00000  Uiso   1.00
C153   C     0.85956   0.13160   0.30505   0.00000  Uiso   1.00
C154   C     0.86583   0.05969   0.39275   0.00000  Uiso   1.00
C155   C     0.90056   0.03705   0.42867   0.00000  Uiso   1.00
C156   C     0.82222   0.16644   0.09574   0.00000  Uiso   1.00
C157   C     0.79709   0.12382   0.00746   0.00000  Uiso   1.00
C158   C     0.80037   0.13050   0.86718   0.00000  Uiso   1.00
C159   C     0.82377   0.26525   0.29399   0.00000  Uiso   1.00
C160   C     0.79995   0.30572   0.37236   0.00000  Uiso   1.00
C161   C     0.80453   0.39561   0.39894   0.00000  Uiso   1.00
H162   H     0.89551   0.29247   0.12151   0.00000  Uiso   1.00
H163   H     0.94294   0.19354   0.25202   0.00000  Uiso   1.00
H164   H     0.87420   0.25767   0.86679   0.00000  Uiso   1.00
H165   H     0.87706   0.43954   0.23163   0.00000  Uiso   1.00
H166   H     0.98342   0.06283   0.41875   0.00000  Uiso   1.00
H167   H     0.83848   0.19807   0.60647   0.00000  Uiso   1.00
H168   H     0.84450   0.58159   0.37580   0.00000  Uiso   1.00
H169   H     0.80229   0.13067   0.29162   0.00000  Uiso   1.00
H170   H     0.84460   0.02285   0.43147   0.00000  Uiso   1.00
H171   H     0.77586   0.08698   0.04624   0.00000  Uiso   1.00
H172   H     0.77872   0.26885   0.41108   0.00000  Uiso   1.00
H173   H     0.90361   0.92429   0.56439   0.00000  Uiso   1.00
H174   H     0.75867   0.05954   0.75211   0.00000  Uiso   1.00
H175   H     0.76468   0.44306   0.52145   0.00000  Uiso   1.00
O176   O     0.97303   0.92554   0.58046   0.00000  Uiso   1.00
O177   O     0.78287   0.10299   0.51479   0.00000  Uiso   1.00
O178   O     0.79077   0.60615   0.52414   0.00000  Uiso   1.00
N179   N     0.95883   0.04503   0.43386   0.00000  Uiso   1.00
N180   N     0.82332   0.17147   0.67442   0.00000  Uiso   1.00
N181   N     0.82894   0.53003   0.39366   0.00000  Uiso   1.00
N182   N     0.91588   0.97049   0.51223   0.00000  Uiso   1.00
N183   N     0.78038   0.09692   0.75280   0.00000  Uiso   1.00
N184   N     0.78600   0.45548   0.47203   0.00000  Uiso   1.00
C185   C     0.37416   0.24459   0.66049   0.00000  Uiso   1.00
C186   C     0.38700   0.32078   0.75500   0.00000  Uiso   1.00
C187   C     0.42172   0.34332   0.79079   0.00000  Uiso   1.00
C188   C     0.42804   0.41525   0.87852   0.00000  Uiso   1.00
C189   C     0.45215   0.52634   0.01759   0.00000  Uiso   1.00
C190   C     0.34965   0.28595   0.54569   0.00000  Uiso   1.00
C191   C     0.35297   0.27919   0.40550   0.00000  Uiso   1.00
C192   C     0.32786   0.32180   0.31703   0.00000  Uiso   1.00
C193   C     0.29398   0.37875   0.13115   0.00000  Uiso   1.00
C194   C     0.35121   0.18714   0.74393   0.00000  Uiso   1.00
C195   C     0.35582   0.09728   0.77039   0.00000  Uiso   1.00
C196   C     0.33201   0.05669   0.84880   0.00000  Uiso   1.00
C197   C     0.30054   0.96021   0.97071   0.00000  Uiso   1.00
C198   C     0.32365   0.33226   0.75265   0.00000  Uiso   1.00
C199   C     0.35956   0.36840   0.80505   0.00000  Uiso   1.00
C200   C     0.36583   0.44031   0.89275   0.00000  Uiso   1.00
C201   C     0.40056   0.46295   0.92867   0.00000  Uiso   1.00
C202   C     0.32222   0.33356   0.59574   0.00000  Uiso   1.00
C203   C     0.29709   0.37618   0.50746   0.00000  Uiso   1.00
C204   C     0.30037   0.36950   0.36718   0.00000  Uiso   1.00
C205   C     0.32377   0.23475   0.79399   0.00000  Uiso   1.00
C206   C     0.29995   0.19428   0.87236   0.00000  Uiso   1.00
C207   C     0.30453   0.10439   0.89894   0.00000  Uiso   1.00
H208   H     0.39551   0.20753   0.62151   0.00000  Uiso   1.00
H209   H     0.44294   0.30646   0.75202   0.00000  Uiso   1.00
H210   H     0.37420   0.24233   0.36679   0.00000  Uiso   1.00
H211   H     0.37706   0.06046   0.73163   0.00000  Uiso   1.00
H212   H     0.48342   0.43717   0.91875   0.00000  Uiso   1.00
H213   H     0.33848   0.30193   0.10647   0.00000  Uiso   1.00
H214   H     0.34450   0.91841   0.87580   0.00000  Uiso   1.00
H215   H     0.30229   0.36933   0.79162   0.00000  Uiso   1.00
H216   H     0.34460   0.47715   0.93147   0.00000  Uiso   1.00
H217   H     0.27586   0.41302   0.54624   0.00000  Uiso   1.00
H218   H     0.27872   0.23115   0.91108   0.00000  Uiso   1.00
H219   H     0.40361   0.57571   0.06439   0.00000  Uiso   1.00
H220   H     0.25867   0.44046   0.25211   0.00000  Uiso   1.00
H221   H     0.26468   0.05694   0.02145   0.00000  Uiso   1.00
O222   O     0.47303   0.57446   0.08046   0.00000  Uiso   1.00
O223   O     0.28287   0.39701   0.01479   0.00000  Uiso   1.00
O224   O     0.29077   0.89385   0.02414   0.00000  Uiso   1.00
N225   N     0.45883   0.45497   0.93386   0.00000  Uiso   1.00
N226   N     0.32332   0.32853   0.17442   0.00000  Uiso   1.00
N227   N     0.32894   0.96997   0.89366   0.00000  Uiso   1.00
N228   N     0.41588   0.52951   0.01223   0.00000  Uiso   1.00
N229   N     0.28038   0.40308   0.25280   0.00000  Uiso   1.00
N230   N     0.28600   0.04452   0.97203   0.00000  Uiso   1.00
C231   C     0.87416   0.74459   0.66049   0.00000  Uiso   1.00
C232   C     0.88700   0.82078   0.75500   0.00000  Uiso   1.00
C233   C     0.92172   0.84332   0.79079   0.00000  Uiso   1.00
C234   C     0.92804   0.91525   0.87852   0.00000  Uiso   1.00
C235   C     0.95215   0.02634   0.01759   0.00000  Uiso   1.00
C236   C     0.84965   0.78595   0.54569   0.00000  Uiso   1.00
C237   C     0.85297   0.77919   0.40550   0.00000  Uiso   1.00
C238   C     0.82786   0.82180   0.31703   0.00000  Uiso   1.00
C239   C     0.79398   0.87875   0.13115   0.00000  Uiso   1.00
C240   C     0.85121   0.68714   0.74393   0.00000  Uiso   1.00
C241   C     0.85582   0.59728   0.77039   0.00000  Uiso   1.00
C242   C     0.83201   0.55669   0.84880   0.00000  Uiso   1.00
C243   C     0.80054   0.46021   0.97071   0.00000  Uiso   1.00
C244   C     0.82365   0.83226   0.75265   0.00000  Uiso   1.00
C245   C     0.85956   0.86840   0.80505   0.00000  Uiso   1.00
C246   C     0.86583   0.94031   0.89275   0.00000  Uiso   1.00
C247   C     0.90056   0.96295   0.92867   0.00000  Uiso   1.00
C248   C     0.82222   0.83356   0.59574   0.00000  Uiso   1.00
C249   C     0.79709   0.87618   0.50746   0.00000  Uiso   1.00
C250   C     0.80037   0.86950   0.36718   0.00000  Uiso   1.00
C251   C     0.82377   0.73475   0.79399   0.00000  Uiso   1.00
C252   C     0.79995   0.69428   0.87236   0.00000  Uiso   1.00
C253   C     0.80453   0.60439   0.89894   0.00000  Uiso   1.00
H254   H     0.89551   0.70753   0.62151   0.00000  Uiso   1.00
H255   H     0.94294   0.80646   0.75202   0.00000  Uiso   1.00
H256   H     0.87420   0.74233   0.36679   0.00000  Uiso   1.00
H257   H     0.87706   0.56046   0.73163   0.00000  Uiso   1.00
H258   H     0.98342   0.93717   0.91875   0.00000  Uiso   1.00
H259   H     0.83848   0.80193   0.10647   0.00000  Uiso   1.00
H260   H     0.84450   0.41841   0.87580   0.00000  Uiso   1.00
H261   H     0.80229   0.86933   0.79162   0.00000  Uiso   1.00
H262   H     0.84460   0.97715   0.93147   0.00000  Uiso   1.00
H263   H     0.77586   0.91302   0.54624   0.00000  Uiso   1.00
H264   H     0.77872   0.73115   0.91108   0.00000  Uiso   1.00
H265   H     0.90361   0.07571   0.06439   0.00000  Uiso   1.00
H266   H     0.75867   0.94046   0.25211   0.00000  Uiso   1.00
H267   H     0.76468   0.55694   0.02145   0.00000  Uiso   1.00
O268   O     0.97303   0.07446   0.08046   0.00000  Uiso   1.00
O269   O     0.78287   0.89701   0.01479   0.00000  Uiso   1.00
O270   O     0.79077   0.39385   0.02414   0.00000  Uiso   1.00
N271   N     0.95883   0.95497   0.93386   0.00000  Uiso   1.00
N272   N     0.82332   0.82853   0.17442   0.00000  Uiso   1.00
N273   N     0.82894   0.46997   0.89366   0.00000  Uiso   1.00
N274   N     0.91588   0.02951   0.01223   0.00000  Uiso   1.00
N275   N     0.78038   0.90308   0.25280   0.00000  Uiso   1.00
N276   N     0.78600   0.54452   0.97203   0.00000  Uiso   1.00
C277   C     0.62584   0.24459   0.83951   0.00000  Uiso   1.00
C278   C     0.61300   0.32078   0.74500   0.00000  Uiso   1.00
C279   C     0.57828   0.34332   0.70921   0.00000  Uiso   1.00
C280   C     0.57196   0.41525   0.62148   0.00000  Uiso   1.00
C281   C     0.54785   0.52634   0.48241   0.00000  Uiso   1.00
C282   C     0.65035   0.28595   0.95431   0.00000  Uiso   1.00
C283   C     0.64703   0.27919   0.09450   0.00000  Uiso   1.00
C284   C     0.67214   0.32180   0.18297   0.00000  Uiso   1.00
C285   C     0.70602   0.37875   0.36885   0.00000  Uiso   1.00
C286   C     0.64879   0.18714   0.75607   0.00000  Uiso   1.00
C287   C     0.64418   0.09728   0.72961   0.00000  Uiso   1.00
C288   C     0.66799   0.05669   0.65120   0.00000  Uiso   1.00
C289   C     0.69946   0.96021   0.52929   0.00000  Uiso   1.00
C290   C     0.67635   0.33226   0.74735   0.00000  Uiso   1.00
C291   C     0.64044   0.36840   0.69495   0.00000  Uiso   1.00
C292   C     0.63417   0.44031   0.60725   0.00000  Uiso   1.00
C293   C     0.59944   0.46295   0.57133   0.00000  Uiso   1.00
C294   C     0.67778   0.33356   0.90426   0.00000  Uiso   1.00
C295   C     0.70291   0.37618   0.99254   0.00000  Uiso   1.00
C296   C     0.69963   0.36950   0.13282   0.00000  Uiso   1.00
C297   C     0.67623   0.23475   0.70601   0.00000  Uiso   1.00
C298   C     0.70005   0.19428   0.62764   0.00000  Uiso   1.00
C299   C     0.69547   0.10439   0.60106   0.00000  Uiso   1.00
H300   H     0.60449   0.20753   0.87849   0.00000  Uiso   1.00
H301   H     0.55706   0.30646   0.74798   0.00000  Uiso   1.00
H302   H     0.62580   0.24233   0.13321   0.00000  Uiso   1.00
H303   H     0.62294   0.06046   0.76837   0.00000  Uiso   1.00
H304   H     0.51658   0.43717   0.58125   0.00000  Uiso   1.00
H305   H     0.66152   0.30193   0.39353   0.00000  Uiso   1.00
H306   H     0.65550   0.91841   0.62420   0.00000  Uiso   1.00
H307   H     0.69771   0.36933   0.70838   0.00000  Uiso   1.00
H308   H     0.65540   0.47715   0.56853   0.00000  Uiso   1.00
H309   H     0.72414   0.41302   0.95376   0.00000  Uiso   1.00
H310   H     0.72128   0.23115   0.58892   0.00000  Uiso   1.00
H311   H     0.59639   0.57571   0.43561   0.00000  Uiso   1.00
H312   H     0.74133   0.44046   0.24789   0.00000  Uiso   1.00
H313   H     0.73532   0.05694   0.47855   0.00000  Uiso   1.00
O314   O     0.52697   0.57446   0.41954   0.00000  Uiso   1.00
O315   O     0.71713   0.39701   0.48521   0.00000  Uiso   1.00
O316   O     0.70923   0.89385   0.47586   0.00000  Uiso   1.00
N317   N     0.54117   0.45497   0.56614   0.00000  Uiso   1.00
N318   N     0.67668   0.32853   0.32558   0.00000  Uiso   1.00
N319   N     0.67106   0.96997   0.60634   0.00000  Uiso   1.00
N320   N     0.58412   0.52951   0.48777   0.00000  Uiso   1.00
N321   N     0.71962   0.40308   0.24720   0.00000  Uiso   1.00
N322   N     0.71400   0.04452   0.52797   0.00000  Uiso   1.00
C323   C     0.12584   0.74459   0.83951   0.00000  Uiso   1.00
C324   C     0.11300   0.82078   0.74500   0.00000  Uiso   1.00
C325   C     0.07828   0.84332   0.70921   0.00000  Uiso   1.00
C326   C     0.07196   0.91525   0.62148   0.00000  Uiso   1.00
C327   C     0.04785   0.02634   0.48241   0.00000  Uiso   1.00
C328   C     0.15035   0.78595   0.95431   0.00000  Uiso   1.00
C329   C     0.14703   0.77919   0.09450   0.00000  Uiso   1.00
C330   C     0.17214   0.82180   0.18297   0.00000  Uiso   1.00
C331   C     0.20602   0.87875   0.36885   0.00000  Uiso   1.00
C332   C     0.14879   0.68714   0.75607   0.00000  Uiso   1.00
C333   C     0.14418   0.59728   0.72961   0.00000  Uiso   1.00
C334   C     0.16799   0.55669   0.65120   0.00000  Uiso   1.00
C335   C     0.19946   0.46021   0.52929   0.00000  Uiso   1.00
C336   C     0.17635   0.83226   0.74735   0.00000  Uiso   1.00
C337   C     0.14044   0.86840   0.69495   0.00000  Uiso   1.00
C338   C     0.13417   0.94031   0.60725   0.00000  Uiso   1.00
C339   C     0.09944   0.96295   0.57133   0.00000  Uiso   1.00
C340   C     0.17778   0.83356   0.90426   0.00000  Uiso   1.00
C341   C     0.20291   0.87618   0.99254   0.00000  Uiso   1.00
C342   C     0.19963   0.86950   0.13282   0.00000  Uiso   1.00
C343   C     0.17623   0.73475   0.70601   0.00000  Uiso   1.00
C344   C     0.20005   0.69428   0.62764   0.00000  Uiso   1.00
C345   C     0.19547   0.60439   0.60106   0.00000  Uiso   1.00
H346   H     0.10449   0.70753   0.87849   0.00000  Uiso   1.00
H347   H     0.05706   0.80646   0.74798   0.00000  Uiso   1.00
H348   H     0.12580   0.74233   0.13321   0.00000  Uiso   1.00
H349   H     0.12294   0.56046   0.76837   0.00000  Uiso   1.00
H350   H     0.01658   0.93717   0.58125   0.00000  Uiso   1.00
H351   H     0.16152   0.80193   0.39353   0.00000  Uiso   1.00
H352   H     0.15550   0.41841   0.62420   0.00000  Uiso   1.00
H353   H     0.19771   0.86933   0.70838   0.00000  Uiso   1.00
H354   H     0.15540   0.97715   0.56853   0.00000  Uiso   1.00
H355   H     0.22414   0.91302   0.95376   0.00000  Uiso   1.00
H356   H     0.22128   0.73115   0.58892   0.00000  Uiso   1.00
H357   H     0.09639   0.07571   0.43561   0.00000  Uiso   1.00
H358   H     0.24133   0.94046   0.24789   0.00000  Uiso   1.00
H359   H     0.23532   0.55694   0.47855   0.00000  Uiso   1.00
O360   O     0.02697   0.07446   0.41954   0.00000  Uiso   1.00
O361   O     0.21713   0.89701   0.48521   0.00000  Uiso   1.00
O362   O     0.20923   0.39385   0.47586   0.00000  Uiso   1.00
N363   N     0.04117   0.95497   0.56614   0.00000  Uiso   1.00
N364   N     0.17668   0.82853   0.32558   0.00000  Uiso   1.00
N365   N     0.17106   0.46997   0.60634   0.00000  Uiso   1.00
N366   N     0.08412   0.02951   0.48777   0.00000  Uiso   1.00
N367   N     0.21962   0.90308   0.24720   0.00000  Uiso   1.00
N368   N     0.21400   0.54452   0.52797   0.00000  Uiso   1.00
