data_job_05639
_audit_creation_date              2018-12-19
_audit_creation_method            'Materials Studio'
_symmetry_space_group_name_H-M    'P1'
_symmetry_Int_Tables_number       1
_symmetry_cell_setting            triclinic
loop_
_symmetry_equiv_pos_as_xyz
  x,y,z
_cell_length_a                    19.6557
_cell_length_b                    19.6557
_cell_length_c                    12.4221
_cell_angle_alpha                 90.0000
_cell_angle_beta                  90.0000
_cell_angle_gamma                 90.0000
loop_
_atom_site_label
_atom_site_type_symbol
_atom_site_fract_x
_atom_site_fract_y
_atom_site_fract_z
_atom_site_U_iso_or_equiv
_atom_site_adp_type
_atom_site_occupancy
C1     C     0.76976   0.90347   0.75952   0.00000  Uiso   1.00
C2     C     0.72985   0.83711   0.76691   0.00000  Uiso   1.00
C3     C     0.75533   0.77264   0.74572   0.00000  Uiso   1.00
C4     C     0.71066   0.71840   0.75705   0.00000  Uiso   1.00
C5     C     0.65897   0.61384   0.76368   0.00000  Uiso   1.00
C6     C     0.73044   0.94871   0.68159   0.00000  Uiso   1.00
C7     C     0.75642   0.97808   0.58868   0.00000  Uiso   1.00
C8     C     0.71224   0.01780   0.52820   0.00000  Uiso   1.00
C9     C     0.66148   0.08655   0.40242   0.00000  Uiso   1.00
C10    C     0.76358   0.93715   0.86968   0.00000  Uiso   1.00
C11    C     0.81743   0.95681   0.93491   0.00000  Uiso   1.00
C12    C     0.80115   0.98680   0.03278   0.00000  Uiso   1.00
C13    C     0.80185   0.03759   0.19903   0.00000  Uiso   1.00
C14    C     0.64512   0.92178   0.81733   0.00000  Uiso   1.00
C15    C     0.66215   0.84706   0.79830   0.00000  Uiso   1.00
C16    C     0.61742   0.79290   0.80967   0.00000  Uiso   1.00
C17    C     0.64283   0.72836   0.78851   0.00000  Uiso   1.00
C18    C     0.66274   0.95866   0.71298   0.00000  Uiso   1.00
C19    C     0.61851   0.99834   0.65263   0.00000  Uiso   1.00
C20    C     0.64441   0.02776   0.55965   0.00000  Uiso   1.00
C21    C     0.69588   0.94709   0.90108   0.00000  Uiso   1.00
C22    C     0.67952   0.97706   0.99886   0.00000  Uiso   1.00
C23    C     0.73333   0.99677   0.06423   0.00000  Uiso   1.00
H24    H     0.82247   0.89573   0.73507   0.00000  Uiso   1.00
H25    H     0.80772   0.76496   0.72141   0.00000  Uiso   1.00
H26    H     0.80881   0.97038   0.56441   0.00000  Uiso   1.00
H27    H     0.86981   0.94911   0.91058   0.00000  Uiso   1.00
H28    H     0.76151   0.62437   0.72007   0.00000  Uiso   1.00
H29    H     0.76381   0.05753   0.38903   0.00000  Uiso   1.00
H30    H     0.89244   0.01267   0.11901   0.00000  Uiso   1.00
H31    H     0.59240   0.92953   0.84177   0.00000  Uiso   1.00
H32    H     0.56503   0.80061   0.83397   0.00000  Uiso   1.00
H33    H     0.56612   0.00603   0.67696   0.00000  Uiso   1.00
H34    H     0.62712   0.98475   0.02313   0.00000  Uiso   1.00
H35    H     0.56453   0.65330   0.81142   0.00000  Uiso   1.00
H36    H     0.56684   0.08646   0.48038   0.00000  Uiso   1.00
H37    H     0.69546   0.04160   0.21036   0.00000  Uiso   1.00
O38    O     0.64916   0.55342   0.75865   0.00000  Uiso   1.00
O39    O     0.65219   0.12172   0.32436   0.00000  Uiso   1.00
O40    O     0.82094   0.06286   0.28207   0.00000  Uiso   1.00
N41    N     0.71891   0.64887   0.74266   0.00000  Uiso   1.00
N42    N     0.72106   0.05384   0.43315   0.00000  Uiso   1.00
N43    N     0.84132   0.01191   0.11561   0.00000  Uiso   1.00
N44    N     0.61292   0.66444   0.79182   0.00000  Uiso   1.00
N45    N     0.61507   0.06940   0.48231   0.00000  Uiso   1.00
N46    N     0.73533   0.02748   0.16477   0.00000  Uiso   1.00
C47    C     0.23024   0.09653   0.75952   0.00000  Uiso   1.00
C48    C     0.27015   0.16289   0.76691   0.00000  Uiso   1.00
C49    C     0.24467   0.22736   0.74572   0.00000  Uiso   1.00
C50    C     0.28934   0.28160   0.75705   0.00000  Uiso   1.00
C51    C     0.34103   0.38616   0.76368   0.00000  Uiso   1.00
C52    C     0.26956   0.05129   0.68159   0.00000  Uiso   1.00
C53    C     0.24358   0.02192   0.58868   0.00000  Uiso   1.00
C54    C     0.28776   0.98220   0.52820   0.00000  Uiso   1.00
C55    C     0.33852   0.91345   0.40242   0.00000  Uiso   1.00
C56    C     0.23642   0.06285   0.86968   0.00000  Uiso   1.00
C57    C     0.18257   0.04319   0.93491   0.00000  Uiso   1.00
C58    C     0.19885   0.01320   0.03278   0.00000  Uiso   1.00
C59    C     0.19815   0.96241   0.19903   0.00000  Uiso   1.00
C60    C     0.35488   0.07822   0.81733   0.00000  Uiso   1.00
C61    C     0.33785   0.15294   0.79830   0.00000  Uiso   1.00
C62    C     0.38258   0.20710   0.80967   0.00000  Uiso   1.00
C63    C     0.35717   0.27164   0.78851   0.00000  Uiso   1.00
C64    C     0.33726   0.04134   0.71298   0.00000  Uiso   1.00
C65    C     0.38149   0.00166   0.65263   0.00000  Uiso   1.00
C66    C     0.35559   0.97224   0.55965   0.00000  Uiso   1.00
C67    C     0.30412   0.05291   0.90108   0.00000  Uiso   1.00
C68    C     0.32048   0.02294   0.99886   0.00000  Uiso   1.00
C69    C     0.26667   0.00323   0.06423   0.00000  Uiso   1.00
H70    H     0.17753   0.10427   0.73507   0.00000  Uiso   1.00
H71    H     0.19228   0.23504   0.72141   0.00000  Uiso   1.00
H72    H     0.19119   0.02962   0.56441   0.00000  Uiso   1.00
H73    H     0.13019   0.05089   0.91058   0.00000  Uiso   1.00
H74    H     0.23849   0.37563   0.72007   0.00000  Uiso   1.00
H75    H     0.23619   0.94247   0.38903   0.00000  Uiso   1.00
H76    H     0.10756   0.98733   0.11901   0.00000  Uiso   1.00
H77    H     0.40760   0.07047   0.84177   0.00000  Uiso   1.00
H78    H     0.43497   0.19939   0.83397   0.00000  Uiso   1.00
H79    H     0.43388   0.99397   0.67696   0.00000  Uiso   1.00
H80    H     0.37288   0.01525   0.02313   0.00000  Uiso   1.00
H81    H     0.43547   0.34670   0.81142   0.00000  Uiso   1.00
H82    H     0.43316   0.91354   0.48038   0.00000  Uiso   1.00
H83    H     0.30454   0.95840   0.21036   0.00000  Uiso   1.00
O84    O     0.35084   0.44658   0.75865   0.00000  Uiso   1.00
O85    O     0.34781   0.87828   0.32436   0.00000  Uiso   1.00
O86    O     0.17906   0.93714   0.28207   0.00000  Uiso   1.00
N87    N     0.28109   0.35113   0.74266   0.00000  Uiso   1.00
N88    N     0.27894   0.94616   0.43315   0.00000  Uiso   1.00
N89    N     0.15868   0.98809   0.11561   0.00000  Uiso   1.00
N90    N     0.38708   0.33556   0.79182   0.00000  Uiso   1.00
N91    N     0.38493   0.93060   0.48231   0.00000  Uiso   1.00
N92    N     0.26467   0.97252   0.16477   0.00000  Uiso   1.00
C93    C     0.90347   0.23024   0.24048   0.00000  Uiso   1.00
C94    C     0.83711   0.27015   0.23309   0.00000  Uiso   1.00
C95    C     0.77264   0.24467   0.25428   0.00000  Uiso   1.00
C96    C     0.71840   0.28934   0.24295   0.00000  Uiso   1.00
C97    C     0.61384   0.34103   0.23632   0.00000  Uiso   1.00
C98    C     0.94871   0.26956   0.31841   0.00000  Uiso   1.00
C99    C     0.97808   0.24358   0.41132   0.00000  Uiso   1.00
C100   C     0.01780   0.28776   0.47180   0.00000  Uiso   1.00
C101   C     0.08655   0.33852   0.59758   0.00000  Uiso   1.00
C102   C     0.93715   0.23642   0.13032   0.00000  Uiso   1.00
C103   C     0.95681   0.18257   0.06509   0.00000  Uiso   1.00
C104   C     0.98680   0.19885   0.96722   0.00000  Uiso   1.00
C105   C     0.03759   0.19815   0.80097   0.00000  Uiso   1.00
C106   C     0.92178   0.35488   0.18267   0.00000  Uiso   1.00
C107   C     0.84706   0.33785   0.20170   0.00000  Uiso   1.00
C108   C     0.79290   0.38258   0.19033   0.00000  Uiso   1.00
C109   C     0.72836   0.35717   0.21149   0.00000  Uiso   1.00
C110   C     0.95866   0.33726   0.28702   0.00000  Uiso   1.00
C111   C     0.99834   0.38149   0.34737   0.00000  Uiso   1.00
C112   C     0.02776   0.35559   0.44035   0.00000  Uiso   1.00
C113   C     0.94709   0.30412   0.09892   0.00000  Uiso   1.00
C114   C     0.97706   0.32048   0.00114   0.00000  Uiso   1.00
C115   C     0.99677   0.26667   0.93577   0.00000  Uiso   1.00
H116   H     0.89573   0.17753   0.26493   0.00000  Uiso   1.00
H117   H     0.76496   0.19228   0.27859   0.00000  Uiso   1.00
H118   H     0.97038   0.19119   0.43559   0.00000  Uiso   1.00
H119   H     0.94911   0.13019   0.08942   0.00000  Uiso   1.00
H120   H     0.62437   0.23849   0.27993   0.00000  Uiso   1.00
H121   H     0.05753   0.23619   0.61097   0.00000  Uiso   1.00
H122   H     0.01267   0.10756   0.88099   0.00000  Uiso   1.00
H123   H     0.92953   0.40760   0.15823   0.00000  Uiso   1.00
H124   H     0.80061   0.43497   0.16603   0.00000  Uiso   1.00
H125   H     0.00603   0.43388   0.32304   0.00000  Uiso   1.00
H126   H     0.98475   0.37288   0.97687   0.00000  Uiso   1.00
H127   H     0.65330   0.43547   0.18858   0.00000  Uiso   1.00
H128   H     0.08646   0.43316   0.51962   0.00000  Uiso   1.00
H129   H     0.04160   0.30454   0.78964   0.00000  Uiso   1.00
O130   O     0.55342   0.35084   0.24135   0.00000  Uiso   1.00
O131   O     0.12172   0.34781   0.67564   0.00000  Uiso   1.00
O132   O     0.06286   0.17906   0.71793   0.00000  Uiso   1.00
N133   N     0.64887   0.28109   0.25734   0.00000  Uiso   1.00
N134   N     0.05384   0.27894   0.56685   0.00000  Uiso   1.00
N135   N     0.01191   0.15868   0.88439   0.00000  Uiso   1.00
N136   N     0.66444   0.38708   0.20818   0.00000  Uiso   1.00
N137   N     0.06940   0.38493   0.51769   0.00000  Uiso   1.00
N138   N     0.02748   0.26467   0.83523   0.00000  Uiso   1.00
C139   C     0.09653   0.76976   0.24048   0.00000  Uiso   1.00
C140   C     0.16289   0.72985   0.23309   0.00000  Uiso   1.00
C141   C     0.22736   0.75533   0.25428   0.00000  Uiso   1.00
C142   C     0.28160   0.71066   0.24295   0.00000  Uiso   1.00
C143   C     0.38616   0.65897   0.23632   0.00000  Uiso   1.00
C144   C     0.05129   0.73044   0.31841   0.00000  Uiso   1.00
C145   C     0.02192   0.75642   0.41132   0.00000  Uiso   1.00
C146   C     0.98220   0.71224   0.47180   0.00000  Uiso   1.00
C147   C     0.91345   0.66148   0.59758   0.00000  Uiso   1.00
C148   C     0.06285   0.76358   0.13032   0.00000  Uiso   1.00
C149   C     0.04319   0.81743   0.06509   0.00000  Uiso   1.00
C150   C     0.01320   0.80115   0.96722   0.00000  Uiso   1.00
C151   C     0.96241   0.80185   0.80097   0.00000  Uiso   1.00
C152   C     0.07822   0.64512   0.18267   0.00000  Uiso   1.00
C153   C     0.15294   0.66215   0.20170   0.00000  Uiso   1.00
C154   C     0.20710   0.61742   0.19033   0.00000  Uiso   1.00
C155   C     0.27164   0.64283   0.21149   0.00000  Uiso   1.00
C156   C     0.04134   0.66274   0.28702   0.00000  Uiso   1.00
C157   C     0.00166   0.61851   0.34737   0.00000  Uiso   1.00
C158   C     0.97224   0.64441   0.44035   0.00000  Uiso   1.00
C159   C     0.05291   0.69588   0.09892   0.00000  Uiso   1.00
C160   C     0.02294   0.67952   0.00114   0.00000  Uiso   1.00
C161   C     0.00323   0.73333   0.93577   0.00000  Uiso   1.00
H162   H     0.10427   0.82247   0.26493   0.00000  Uiso   1.00
H163   H     0.23504   0.80772   0.27859   0.00000  Uiso   1.00
H164   H     0.02962   0.80881   0.43559   0.00000  Uiso   1.00
H165   H     0.05089   0.86981   0.08942   0.00000  Uiso   1.00
H166   H     0.37563   0.76151   0.27993   0.00000  Uiso   1.00
H167   H     0.94247   0.76381   0.61097   0.00000  Uiso   1.00
H168   H     0.98733   0.89244   0.88099   0.00000  Uiso   1.00
H169   H     0.07047   0.59240   0.15823   0.00000  Uiso   1.00
H170   H     0.19939   0.56503   0.16603   0.00000  Uiso   1.00
H171   H     0.99397   0.56612   0.32304   0.00000  Uiso   1.00
H172   H     0.01525   0.62712   0.97687   0.00000  Uiso   1.00
H173   H     0.34670   0.56453   0.18858   0.00000  Uiso   1.00
H174   H     0.91354   0.56684   0.51962   0.00000  Uiso   1.00
H175   H     0.95840   0.69546   0.78964   0.00000  Uiso   1.00
O176   O     0.44658   0.64916   0.24135   0.00000  Uiso   1.00
O177   O     0.87828   0.65219   0.67564   0.00000  Uiso   1.00
O178   O     0.93714   0.82094   0.71793   0.00000  Uiso   1.00
N179   N     0.35113   0.71891   0.25734   0.00000  Uiso   1.00
N180   N     0.94616   0.72106   0.56685   0.00000  Uiso   1.00
N181   N     0.98809   0.84132   0.88439   0.00000  Uiso   1.00
N182   N     0.33556   0.61292   0.20818   0.00000  Uiso   1.00
N183   N     0.93060   0.61507   0.51769   0.00000  Uiso   1.00
N184   N     0.97252   0.73533   0.83523   0.00000  Uiso   1.00
C185   C     0.73024   0.40347   0.74048   0.00000  Uiso   1.00
C186   C     0.77015   0.33711   0.73309   0.00000  Uiso   1.00
C187   C     0.74467   0.27264   0.75428   0.00000  Uiso   1.00
C188   C     0.78934   0.21840   0.74295   0.00000  Uiso   1.00
C189   C     0.84103   0.11384   0.73632   0.00000  Uiso   1.00
C190   C     0.76956   0.44871   0.81841   0.00000  Uiso   1.00
C191   C     0.74358   0.47808   0.91132   0.00000  Uiso   1.00
C192   C     0.78776   0.51780   0.97180   0.00000  Uiso   1.00
C193   C     0.83852   0.58655   0.09758   0.00000  Uiso   1.00
C194   C     0.73642   0.43715   0.63032   0.00000  Uiso   1.00
C195   C     0.68257   0.45681   0.56509   0.00000  Uiso   1.00
C196   C     0.69885   0.48680   0.46722   0.00000  Uiso   1.00
C197   C     0.69815   0.53759   0.30097   0.00000  Uiso   1.00
C198   C     0.85488   0.42178   0.68267   0.00000  Uiso   1.00
C199   C     0.83785   0.34706   0.70170   0.00000  Uiso   1.00
C200   C     0.88258   0.29290   0.69033   0.00000  Uiso   1.00
C201   C     0.85717   0.22836   0.71149   0.00000  Uiso   1.00
C202   C     0.83726   0.45866   0.78702   0.00000  Uiso   1.00
C203   C     0.88149   0.49834   0.84737   0.00000  Uiso   1.00
C204   C     0.85559   0.52776   0.94035   0.00000  Uiso   1.00
C205   C     0.80412   0.44709   0.59892   0.00000  Uiso   1.00
C206   C     0.82048   0.47706   0.50114   0.00000  Uiso   1.00
C207   C     0.76667   0.49677   0.43577   0.00000  Uiso   1.00
H208   H     0.67753   0.39573   0.76493   0.00000  Uiso   1.00
H209   H     0.69228   0.26496   0.77859   0.00000  Uiso   1.00
H210   H     0.69119   0.47038   0.93559   0.00000  Uiso   1.00
H211   H     0.63019   0.44911   0.58942   0.00000  Uiso   1.00
H212   H     0.73849   0.12437   0.77993   0.00000  Uiso   1.00
H213   H     0.73619   0.55753   0.11097   0.00000  Uiso   1.00
H214   H     0.60756   0.51267   0.38099   0.00000  Uiso   1.00
H215   H     0.90760   0.42953   0.65823   0.00000  Uiso   1.00
H216   H     0.93497   0.30061   0.66603   0.00000  Uiso   1.00
H217   H     0.93388   0.50603   0.82304   0.00000  Uiso   1.00
H218   H     0.87288   0.48475   0.47687   0.00000  Uiso   1.00
H219   H     0.93547   0.15330   0.68858   0.00000  Uiso   1.00
H220   H     0.93316   0.58646   0.01962   0.00000  Uiso   1.00
H221   H     0.80454   0.54160   0.28964   0.00000  Uiso   1.00
O222   O     0.85084   0.05342   0.74135   0.00000  Uiso   1.00
O223   O     0.84781   0.62172   0.17564   0.00000  Uiso   1.00
O224   O     0.67906   0.56286   0.21793   0.00000  Uiso   1.00
N225   N     0.78109   0.14887   0.75734   0.00000  Uiso   1.00
N226   N     0.77894   0.55384   0.06685   0.00000  Uiso   1.00
N227   N     0.65868   0.51191   0.38439   0.00000  Uiso   1.00
N228   N     0.88708   0.16444   0.70818   0.00000  Uiso   1.00
N229   N     0.88493   0.56940   0.01769   0.00000  Uiso   1.00
N230   N     0.76467   0.52748   0.33523   0.00000  Uiso   1.00
C231   C     0.26976   0.59653   0.74048   0.00000  Uiso   1.00
C232   C     0.22985   0.66289   0.73309   0.00000  Uiso   1.00
C233   C     0.25533   0.72736   0.75428   0.00000  Uiso   1.00
C234   C     0.21066   0.78160   0.74295   0.00000  Uiso   1.00
C235   C     0.15897   0.88616   0.73632   0.00000  Uiso   1.00
C236   C     0.23044   0.55129   0.81841   0.00000  Uiso   1.00
C237   C     0.25642   0.52192   0.91132   0.00000  Uiso   1.00
C238   C     0.21224   0.48220   0.97180   0.00000  Uiso   1.00
C239   C     0.16148   0.41345   0.09758   0.00000  Uiso   1.00
C240   C     0.26358   0.56285   0.63032   0.00000  Uiso   1.00
C241   C     0.31743   0.54319   0.56509   0.00000  Uiso   1.00
C242   C     0.30115   0.51320   0.46722   0.00000  Uiso   1.00
C243   C     0.30185   0.46241   0.30097   0.00000  Uiso   1.00
C244   C     0.14512   0.57822   0.68267   0.00000  Uiso   1.00
C245   C     0.16215   0.65294   0.70170   0.00000  Uiso   1.00
C246   C     0.11742   0.70710   0.69033   0.00000  Uiso   1.00
C247   C     0.14283   0.77164   0.71149   0.00000  Uiso   1.00
C248   C     0.16274   0.54134   0.78702   0.00000  Uiso   1.00
C249   C     0.11851   0.50166   0.84737   0.00000  Uiso   1.00
C250   C     0.14441   0.47224   0.94035   0.00000  Uiso   1.00
C251   C     0.19588   0.55291   0.59892   0.00000  Uiso   1.00
C252   C     0.17952   0.52294   0.50114   0.00000  Uiso   1.00
C253   C     0.23333   0.50323   0.43577   0.00000  Uiso   1.00
H254   H     0.32247   0.60427   0.76493   0.00000  Uiso   1.00
H255   H     0.30772   0.73504   0.77859   0.00000  Uiso   1.00
H256   H     0.30881   0.52962   0.93559   0.00000  Uiso   1.00
H257   H     0.36981   0.55089   0.58942   0.00000  Uiso   1.00
H258   H     0.26151   0.87563   0.77993   0.00000  Uiso   1.00
H259   H     0.26381   0.44247   0.11097   0.00000  Uiso   1.00
H260   H     0.39244   0.48733   0.38099   0.00000  Uiso   1.00
H261   H     0.09240   0.57047   0.65823   0.00000  Uiso   1.00
H262   H     0.06503   0.69939   0.66603   0.00000  Uiso   1.00
H263   H     0.06612   0.49397   0.82304   0.00000  Uiso   1.00
H264   H     0.12712   0.51525   0.47687   0.00000  Uiso   1.00
H265   H     0.06453   0.84670   0.68858   0.00000  Uiso   1.00
H266   H     0.06684   0.41354   0.01962   0.00000  Uiso   1.00
H267   H     0.19546   0.45840   0.28964   0.00000  Uiso   1.00
O268   O     0.14916   0.94658   0.74135   0.00000  Uiso   1.00
O269   O     0.15219   0.37828   0.17564   0.00000  Uiso   1.00
O270   O     0.32094   0.43714   0.21793   0.00000  Uiso   1.00
N271   N     0.21891   0.85113   0.75734   0.00000  Uiso   1.00
N272   N     0.22106   0.44616   0.06685   0.00000  Uiso   1.00
N273   N     0.34132   0.48809   0.38439   0.00000  Uiso   1.00
N274   N     0.11292   0.83556   0.70818   0.00000  Uiso   1.00
N275   N     0.11507   0.43060   0.01769   0.00000  Uiso   1.00
N276   N     0.23533   0.47252   0.33523   0.00000  Uiso   1.00
C277   C     0.59653   0.73024   0.25952   0.00000  Uiso   1.00
C278   C     0.66289   0.77015   0.26691   0.00000  Uiso   1.00
C279   C     0.72736   0.74467   0.24572   0.00000  Uiso   1.00
C280   C     0.78160   0.78934   0.25705   0.00000  Uiso   1.00
C281   C     0.88616   0.84103   0.26368   0.00000  Uiso   1.00
C282   C     0.55129   0.76956   0.18159   0.00000  Uiso   1.00
C283   C     0.52192   0.74358   0.08868   0.00000  Uiso   1.00
C284   C     0.48220   0.78776   0.02820   0.00000  Uiso   1.00
C285   C     0.41345   0.83852   0.90242   0.00000  Uiso   1.00
C286   C     0.56285   0.73642   0.36968   0.00000  Uiso   1.00
C287   C     0.54319   0.68257   0.43491   0.00000  Uiso   1.00
C288   C     0.51320   0.69885   0.53278   0.00000  Uiso   1.00
C289   C     0.46241   0.69815   0.69903   0.00000  Uiso   1.00
C290   C     0.57822   0.85488   0.31733   0.00000  Uiso   1.00
C291   C     0.65294   0.83785   0.29830   0.00000  Uiso   1.00
C292   C     0.70710   0.88258   0.30967   0.00000  Uiso   1.00
C293   C     0.77164   0.85717   0.28851   0.00000  Uiso   1.00
C294   C     0.54134   0.83726   0.21298   0.00000  Uiso   1.00
C295   C     0.50166   0.88149   0.15263   0.00000  Uiso   1.00
C296   C     0.47224   0.85559   0.05965   0.00000  Uiso   1.00
C297   C     0.55291   0.80412   0.40108   0.00000  Uiso   1.00
C298   C     0.52294   0.82048   0.49886   0.00000  Uiso   1.00
C299   C     0.50323   0.76667   0.56423   0.00000  Uiso   1.00
H300   H     0.60427   0.67753   0.23507   0.00000  Uiso   1.00
H301   H     0.73504   0.69228   0.22141   0.00000  Uiso   1.00
H302   H     0.52962   0.69119   0.06441   0.00000  Uiso   1.00
H303   H     0.55089   0.63019   0.41058   0.00000  Uiso   1.00
H304   H     0.87563   0.73849   0.22007   0.00000  Uiso   1.00
H305   H     0.44247   0.73619   0.88903   0.00000  Uiso   1.00
H306   H     0.48733   0.60756   0.61901   0.00000  Uiso   1.00
H307   H     0.57047   0.90760   0.34177   0.00000  Uiso   1.00
H308   H     0.69939   0.93497   0.33397   0.00000  Uiso   1.00
H309   H     0.49397   0.93388   0.17696   0.00000  Uiso   1.00
H310   H     0.51525   0.87288   0.52313   0.00000  Uiso   1.00
H311   H     0.84670   0.93547   0.31142   0.00000  Uiso   1.00
H312   H     0.41354   0.93316   0.98038   0.00000  Uiso   1.00
H313   H     0.45840   0.80454   0.71036   0.00000  Uiso   1.00
O314   O     0.94658   0.85084   0.25865   0.00000  Uiso   1.00
O315   O     0.37828   0.84781   0.82436   0.00000  Uiso   1.00
O316   O     0.43714   0.67906   0.78207   0.00000  Uiso   1.00
N317   N     0.85113   0.78109   0.24266   0.00000  Uiso   1.00
N318   N     0.44616   0.77894   0.93315   0.00000  Uiso   1.00
N319   N     0.48809   0.65868   0.61561   0.00000  Uiso   1.00
N320   N     0.83556   0.88708   0.29182   0.00000  Uiso   1.00
N321   N     0.43060   0.88493   0.98231   0.00000  Uiso   1.00
N322   N     0.47252   0.76467   0.66477   0.00000  Uiso   1.00
C323   C     0.40347   0.26976   0.25952   0.00000  Uiso   1.00
C324   C     0.33711   0.22985   0.26691   0.00000  Uiso   1.00
C325   C     0.27264   0.25533   0.24572   0.00000  Uiso   1.00
C326   C     0.21840   0.21066   0.25705   0.00000  Uiso   1.00
C327   C     0.11384   0.15897   0.26368   0.00000  Uiso   1.00
C328   C     0.44871   0.23044   0.18159   0.00000  Uiso   1.00
C329   C     0.47808   0.25642   0.08868   0.00000  Uiso   1.00
C330   C     0.51780   0.21224   0.02820   0.00000  Uiso   1.00
C331   C     0.58655   0.16148   0.90242   0.00000  Uiso   1.00
C332   C     0.43715   0.26358   0.36968   0.00000  Uiso   1.00
C333   C     0.45681   0.31743   0.43491   0.00000  Uiso   1.00
C334   C     0.48680   0.30115   0.53278   0.00000  Uiso   1.00
C335   C     0.53759   0.30185   0.69903   0.00000  Uiso   1.00
C336   C     0.42178   0.14512   0.31733   0.00000  Uiso   1.00
C337   C     0.34706   0.16215   0.29830   0.00000  Uiso   1.00
C338   C     0.29290   0.11742   0.30967   0.00000  Uiso   1.00
C339   C     0.22836   0.14283   0.28851   0.00000  Uiso   1.00
C340   C     0.45866   0.16274   0.21298   0.00000  Uiso   1.00
C341   C     0.49834   0.11851   0.15263   0.00000  Uiso   1.00
C342   C     0.52776   0.14441   0.05965   0.00000  Uiso   1.00
C343   C     0.44709   0.19588   0.40108   0.00000  Uiso   1.00
C344   C     0.47706   0.17952   0.49886   0.00000  Uiso   1.00
C345   C     0.49677   0.23333   0.56423   0.00000  Uiso   1.00
H346   H     0.39573   0.32247   0.23507   0.00000  Uiso   1.00
H347   H     0.26496   0.30772   0.22141   0.00000  Uiso   1.00
H348   H     0.47038   0.30881   0.06441   0.00000  Uiso   1.00
H349   H     0.44911   0.36981   0.41058   0.00000  Uiso   1.00
H350   H     0.12437   0.26151   0.22007   0.00000  Uiso   1.00
H351   H     0.55753   0.26381   0.88903   0.00000  Uiso   1.00
H352   H     0.51267   0.39244   0.61901   0.00000  Uiso   1.00
H353   H     0.42953   0.09240   0.34177   0.00000  Uiso   1.00
H354   H     0.30061   0.06503   0.33397   0.00000  Uiso   1.00
H355   H     0.50603   0.06612   0.17696   0.00000  Uiso   1.00
H356   H     0.48475   0.12712   0.52313   0.00000  Uiso   1.00
H357   H     0.15330   0.06453   0.31142   0.00000  Uiso   1.00
H358   H     0.58646   0.06684   0.98038   0.00000  Uiso   1.00
H359   H     0.54160   0.19546   0.71036   0.00000  Uiso   1.00
O360   O     0.05342   0.14916   0.25865   0.00000  Uiso   1.00
O361   O     0.62172   0.15219   0.82436   0.00000  Uiso   1.00
O362   O     0.56286   0.32094   0.78207   0.00000  Uiso   1.00
N363   N     0.14887   0.21891   0.24266   0.00000  Uiso   1.00
N364   N     0.55384   0.22106   0.93315   0.00000  Uiso   1.00
N365   N     0.51191   0.34132   0.61561   0.00000  Uiso   1.00
N366   N     0.16444   0.11292   0.29182   0.00000  Uiso   1.00
N367   N     0.56940   0.11507   0.98231   0.00000  Uiso   1.00
N368   N     0.52748   0.23533   0.66477   0.00000  Uiso   1.00
