data_job_01721
_audit_creation_date              2018-12-19
_audit_creation_method            'Materials Studio'
_symmetry_space_group_name_H-M    'P1'
_symmetry_Int_Tables_number       1
_symmetry_cell_setting            triclinic
loop_
_symmetry_equiv_pos_as_xyz
  x,y,z
_cell_length_a                    17.7876
_cell_length_b                    17.7876
_cell_length_c                    14.4798
_cell_angle_alpha                 90.0000
_cell_angle_beta                  90.0000
_cell_angle_gamma                 90.0000
loop_
_atom_site_label
_atom_site_type_symbol
_atom_site_fract_x
_atom_site_fract_y
_atom_site_fract_z
_atom_site_U_iso_or_equiv
_atom_site_adp_type
_atom_site_occupancy
C1     C     0.74606   0.56212   0.16663   0.00000  Uiso   1.00
C2     C     0.76977   0.53952   0.06931   0.00000  Uiso   1.00
C3     C     0.72258   0.53407   0.99329   0.00000  Uiso   1.00
C4     C     0.75513   0.51249   0.91027   0.00000  Uiso   1.00
C5     C     0.78024   0.47972   0.76018   0.00000  Uiso   1.00
C6     C     0.77055   0.49793   0.22962   0.00000  Uiso   1.00
C7     C     0.72401   0.45752   0.28839   0.00000  Uiso   1.00
C8     C     0.75722   0.40093   0.34032   0.00000  Uiso   1.00
C9     C     0.78355   0.30363   0.43916   0.00000  Uiso   1.00
C10    C     0.79498   0.62928   0.19258   0.00000  Uiso   1.00
C11    C     0.76897   0.69931   0.22023   0.00000  Uiso   1.00
C12    C     0.82275   0.75330   0.24100   0.00000  Uiso   1.00
C13    C     0.88699   0.85995   0.28233   0.00000  Uiso   1.00
C14    C     0.88780   0.53347   0.15438   0.00000  Uiso   1.00
C15    C     0.84676   0.52396   0.06266   0.00000  Uiso   1.00
C16    C     0.87940   0.50238   0.97974   0.00000  Uiso   1.00
C17    C     0.83225   0.49690   0.90360   0.00000  Uiso   1.00
C18    C     0.84754   0.48237   0.22297   0.00000  Uiso   1.00
C19    C     0.88083   0.42583   0.27483   0.00000  Uiso   1.00
C20    C     0.83435   0.38534   0.33366   0.00000  Uiso   1.00
C21    C     0.87197   0.61372   0.18592   0.00000  Uiso   1.00
C22    C     0.92579   0.66761   0.20667   0.00000  Uiso   1.00
C23    C     0.89987   0.73771   0.23434   0.00000  Uiso   1.00
H24    H     0.68612   0.57423   0.17182   0.00000  Uiso   1.00
H25    H     0.66300   0.54611   0.99847   0.00000  Uiso   1.00
H26    H     0.66443   0.46958   0.29353   0.00000  Uiso   1.00
H27    H     0.70939   0.71133   0.22537   0.00000  Uiso   1.00
H28    H     0.67131   0.50805   0.80335   0.00000  Uiso   1.00
H29    H     0.67434   0.34670   0.42552   0.00000  Uiso   1.00
H30    H     0.76914   0.85647   0.28181   0.00000  Uiso   1.00
H31    H     0.94774   0.52136   0.14920   0.00000  Uiso   1.00
H32    H     0.93897   0.49034   0.97461   0.00000  Uiso   1.00
H33    H     0.94041   0.41381   0.26967   0.00000  Uiso   1.00
H34    H     0.98536   0.65555   0.20151   0.00000  Uiso   1.00
H35    H     0.89530   0.46278   0.78399   0.00000  Uiso   1.00
H36    H     0.89833   0.30142   0.40616   0.00000  Uiso   1.00
H37    H     0.99313   0.81120   0.26244   0.00000  Uiso   1.00
O38    O     0.77281   0.46594   0.67923   0.00000  Uiso   1.00
O39    O     0.77679   0.25426   0.49551   0.00000  Uiso   1.00
O40    O     0.90116   0.92307   0.30695   0.00000  Uiso   1.00
N41    N     0.72523   0.50167   0.82275   0.00000  Uiso   1.00
N42    N     0.72806   0.35080   0.40443   0.00000  Uiso   1.00
N43    N     0.81669   0.82739   0.27009   0.00000  Uiso   1.00
N44    N     0.84576   0.47731   0.81233   0.00000  Uiso   1.00
N45    N     0.84859   0.32644   0.39401   0.00000  Uiso   1.00
N46    N     0.93722   0.80303   0.25967   0.00000  Uiso   1.00
C47    C     0.24606   0.06212   0.66663   0.00000  Uiso   1.00
C48    C     0.26977   0.03952   0.56931   0.00000  Uiso   1.00
C49    C     0.22258   0.03407   0.49329   0.00000  Uiso   1.00
C50    C     0.25513   0.01249   0.41027   0.00000  Uiso   1.00
C51    C     0.28024   0.97972   0.26018   0.00000  Uiso   1.00
C52    C     0.27055   0.99793   0.72962   0.00000  Uiso   1.00
C53    C     0.22401   0.95752   0.78839   0.00000  Uiso   1.00
C54    C     0.25722   0.90093   0.84032   0.00000  Uiso   1.00
C55    C     0.28355   0.80363   0.93916   0.00000  Uiso   1.00
C56    C     0.29498   0.12928   0.69258   0.00000  Uiso   1.00
C57    C     0.26897   0.19931   0.72023   0.00000  Uiso   1.00
C58    C     0.32275   0.25330   0.74100   0.00000  Uiso   1.00
C59    C     0.38699   0.35995   0.78233   0.00000  Uiso   1.00
C60    C     0.38780   0.03347   0.65438   0.00000  Uiso   1.00
C61    C     0.34676   0.02396   0.56266   0.00000  Uiso   1.00
C62    C     0.37940   0.00238   0.47974   0.00000  Uiso   1.00
C63    C     0.33225   0.99690   0.40360   0.00000  Uiso   1.00
C64    C     0.34754   0.98237   0.72297   0.00000  Uiso   1.00
C65    C     0.38083   0.92583   0.77483   0.00000  Uiso   1.00
C66    C     0.33435   0.88534   0.83366   0.00000  Uiso   1.00
C67    C     0.37197   0.11372   0.68592   0.00000  Uiso   1.00
C68    C     0.42579   0.16761   0.70667   0.00000  Uiso   1.00
C69    C     0.39987   0.23771   0.73434   0.00000  Uiso   1.00
H70    H     0.18612   0.07423   0.67182   0.00000  Uiso   1.00
H71    H     0.16300   0.04611   0.49847   0.00000  Uiso   1.00
H72    H     0.16443   0.96958   0.79353   0.00000  Uiso   1.00
H73    H     0.20939   0.21133   0.72537   0.00000  Uiso   1.00
H74    H     0.17131   0.00805   0.30335   0.00000  Uiso   1.00
H75    H     0.17434   0.84670   0.92552   0.00000  Uiso   1.00
H76    H     0.26914   0.35647   0.78181   0.00000  Uiso   1.00
H77    H     0.44774   0.02136   0.64920   0.00000  Uiso   1.00
H78    H     0.43897   0.99034   0.47461   0.00000  Uiso   1.00
H79    H     0.44041   0.91381   0.76967   0.00000  Uiso   1.00
H80    H     0.48536   0.15555   0.70151   0.00000  Uiso   1.00
H81    H     0.39530   0.96278   0.28399   0.00000  Uiso   1.00
H82    H     0.39833   0.80142   0.90616   0.00000  Uiso   1.00
H83    H     0.49313   0.31120   0.76244   0.00000  Uiso   1.00
O84    O     0.27281   0.96594   0.17923   0.00000  Uiso   1.00
O85    O     0.27679   0.75426   0.99551   0.00000  Uiso   1.00
O86    O     0.40116   0.42307   0.80695   0.00000  Uiso   1.00
N87    N     0.22523   0.00167   0.32275   0.00000  Uiso   1.00
N88    N     0.22806   0.85080   0.90443   0.00000  Uiso   1.00
N89    N     0.31669   0.32739   0.77009   0.00000  Uiso   1.00
N90    N     0.34576   0.97731   0.31233   0.00000  Uiso   1.00
N91    N     0.34859   0.82644   0.89401   0.00000  Uiso   1.00
N92    N     0.43722   0.30303   0.75967   0.00000  Uiso   1.00
C93    C     0.75394   0.93788   0.66663   0.00000  Uiso   1.00
C94    C     0.73023   0.96048   0.56931   0.00000  Uiso   1.00
C95    C     0.77742   0.96593   0.49329   0.00000  Uiso   1.00
C96    C     0.74487   0.98751   0.41027   0.00000  Uiso   1.00
C97    C     0.71976   0.02028   0.26018   0.00000  Uiso   1.00
C98    C     0.72945   0.00207   0.72962   0.00000  Uiso   1.00
C99    C     0.77599   0.04248   0.78839   0.00000  Uiso   1.00
C100   C     0.74278   0.09907   0.84032   0.00000  Uiso   1.00
C101   C     0.71645   0.19637   0.93916   0.00000  Uiso   1.00
C102   C     0.70502   0.87072   0.69258   0.00000  Uiso   1.00
C103   C     0.73103   0.80069   0.72023   0.00000  Uiso   1.00
C104   C     0.67725   0.74670   0.74100   0.00000  Uiso   1.00
C105   C     0.61301   0.64005   0.78233   0.00000  Uiso   1.00
C106   C     0.61220   0.96653   0.65438   0.00000  Uiso   1.00
C107   C     0.65324   0.97604   0.56266   0.00000  Uiso   1.00
C108   C     0.62060   0.99762   0.47974   0.00000  Uiso   1.00
C109   C     0.66775   0.00310   0.40360   0.00000  Uiso   1.00
C110   C     0.65246   0.01763   0.72297   0.00000  Uiso   1.00
C111   C     0.61917   0.07417   0.77483   0.00000  Uiso   1.00
C112   C     0.66565   0.11466   0.83366   0.00000  Uiso   1.00
C113   C     0.62803   0.88628   0.68592   0.00000  Uiso   1.00
C114   C     0.57421   0.83239   0.70667   0.00000  Uiso   1.00
C115   C     0.60013   0.76229   0.73434   0.00000  Uiso   1.00
H116   H     0.81388   0.92577   0.67182   0.00000  Uiso   1.00
H117   H     0.83700   0.95389   0.49847   0.00000  Uiso   1.00
H118   H     0.83557   0.03042   0.79353   0.00000  Uiso   1.00
H119   H     0.79061   0.78867   0.72537   0.00000  Uiso   1.00
H120   H     0.82869   0.99195   0.30335   0.00000  Uiso   1.00
H121   H     0.82566   0.15330   0.92552   0.00000  Uiso   1.00
H122   H     0.73086   0.64353   0.78181   0.00000  Uiso   1.00
H123   H     0.55226   0.97864   0.64920   0.00000  Uiso   1.00
H124   H     0.56103   0.00966   0.47461   0.00000  Uiso   1.00
H125   H     0.55959   0.08619   0.76967   0.00000  Uiso   1.00
H126   H     0.51464   0.84445   0.70151   0.00000  Uiso   1.00
H127   H     0.60470   0.03722   0.28399   0.00000  Uiso   1.00
H128   H     0.60167   0.19858   0.90616   0.00000  Uiso   1.00
H129   H     0.50687   0.68880   0.76244   0.00000  Uiso   1.00
O130   O     0.72719   0.03406   0.17923   0.00000  Uiso   1.00
O131   O     0.72321   0.24574   0.99551   0.00000  Uiso   1.00
O132   O     0.59884   0.57693   0.80695   0.00000  Uiso   1.00
N133   N     0.77477   0.99833   0.32275   0.00000  Uiso   1.00
N134   N     0.77194   0.14920   0.90443   0.00000  Uiso   1.00
N135   N     0.68331   0.67261   0.77009   0.00000  Uiso   1.00
N136   N     0.65424   0.02269   0.31233   0.00000  Uiso   1.00
N137   N     0.65141   0.17356   0.89401   0.00000  Uiso   1.00
N138   N     0.56278   0.69697   0.75967   0.00000  Uiso   1.00
C139   C     0.25394   0.43788   0.16663   0.00000  Uiso   1.00
C140   C     0.23023   0.46048   0.06931   0.00000  Uiso   1.00
C141   C     0.27742   0.46593   0.99329   0.00000  Uiso   1.00
C142   C     0.24487   0.48751   0.91027   0.00000  Uiso   1.00
C143   C     0.21976   0.52028   0.76018   0.00000  Uiso   1.00
C144   C     0.22945   0.50207   0.22962   0.00000  Uiso   1.00
C145   C     0.27599   0.54248   0.28839   0.00000  Uiso   1.00
C146   C     0.24278   0.59907   0.34032   0.00000  Uiso   1.00
C147   C     0.21645   0.69637   0.43916   0.00000  Uiso   1.00
C148   C     0.20502   0.37072   0.19258   0.00000  Uiso   1.00
C149   C     0.23103   0.30069   0.22023   0.00000  Uiso   1.00
C150   C     0.17725   0.24670   0.24100   0.00000  Uiso   1.00
C151   C     0.11301   0.14005   0.28233   0.00000  Uiso   1.00
C152   C     0.11220   0.46653   0.15438   0.00000  Uiso   1.00
C153   C     0.15324   0.47604   0.06266   0.00000  Uiso   1.00
C154   C     0.12060   0.49762   0.97974   0.00000  Uiso   1.00
C155   C     0.16775   0.50310   0.90360   0.00000  Uiso   1.00
C156   C     0.15246   0.51763   0.22297   0.00000  Uiso   1.00
C157   C     0.11917   0.57417   0.27483   0.00000  Uiso   1.00
C158   C     0.16565   0.61466   0.33366   0.00000  Uiso   1.00
C159   C     0.12803   0.38628   0.18592   0.00000  Uiso   1.00
C160   C     0.07421   0.33239   0.20667   0.00000  Uiso   1.00
C161   C     0.10013   0.26229   0.23434   0.00000  Uiso   1.00
H162   H     0.31388   0.42577   0.17182   0.00000  Uiso   1.00
H163   H     0.33700   0.45389   0.99847   0.00000  Uiso   1.00
H164   H     0.33557   0.53042   0.29353   0.00000  Uiso   1.00
H165   H     0.29061   0.28867   0.22537   0.00000  Uiso   1.00
H166   H     0.32869   0.49195   0.80335   0.00000  Uiso   1.00
H167   H     0.32566   0.65330   0.42552   0.00000  Uiso   1.00
H168   H     0.23086   0.14353   0.28181   0.00000  Uiso   1.00
H169   H     0.05226   0.47864   0.14920   0.00000  Uiso   1.00
H170   H     0.06103   0.50966   0.97461   0.00000  Uiso   1.00
H171   H     0.05959   0.58619   0.26967   0.00000  Uiso   1.00
H172   H     0.01464   0.34445   0.20151   0.00000  Uiso   1.00
H173   H     0.10470   0.53722   0.78399   0.00000  Uiso   1.00
H174   H     0.10167   0.69858   0.40616   0.00000  Uiso   1.00
H175   H     0.00687   0.18880   0.26244   0.00000  Uiso   1.00
O176   O     0.22719   0.53406   0.67923   0.00000  Uiso   1.00
O177   O     0.22321   0.74574   0.49551   0.00000  Uiso   1.00
O178   O     0.09884   0.07693   0.30695   0.00000  Uiso   1.00
N179   N     0.27477   0.49833   0.82275   0.00000  Uiso   1.00
N180   N     0.27194   0.64920   0.40443   0.00000  Uiso   1.00
N181   N     0.18331   0.17261   0.27009   0.00000  Uiso   1.00
N182   N     0.15424   0.52269   0.81233   0.00000  Uiso   1.00
N183   N     0.15141   0.67356   0.39401   0.00000  Uiso   1.00
N184   N     0.06278   0.19697   0.25967   0.00000  Uiso   1.00
C185   C     0.43788   0.24606   0.41663   0.00000  Uiso   1.00
C186   C     0.46048   0.26977   0.31931   0.00000  Uiso   1.00
C187   C     0.46593   0.22258   0.24329   0.00000  Uiso   1.00
C188   C     0.48751   0.25513   0.16027   0.00000  Uiso   1.00
C189   C     0.52028   0.28024   0.01018   0.00000  Uiso   1.00
C190   C     0.50207   0.27055   0.47962   0.00000  Uiso   1.00
C191   C     0.54248   0.22401   0.53839   0.00000  Uiso   1.00
C192   C     0.59907   0.25722   0.59032   0.00000  Uiso   1.00
C193   C     0.69637   0.28355   0.68916   0.00000  Uiso   1.00
C194   C     0.37072   0.29498   0.44258   0.00000  Uiso   1.00
C195   C     0.30069   0.26897   0.47023   0.00000  Uiso   1.00
C196   C     0.24670   0.32275   0.49100   0.00000  Uiso   1.00
C197   C     0.14005   0.38699   0.53233   0.00000  Uiso   1.00
C198   C     0.46653   0.38780   0.40438   0.00000  Uiso   1.00
C199   C     0.47604   0.34676   0.31266   0.00000  Uiso   1.00
C200   C     0.49762   0.37940   0.22974   0.00000  Uiso   1.00
C201   C     0.50310   0.33225   0.15360   0.00000  Uiso   1.00
C202   C     0.51763   0.34754   0.47297   0.00000  Uiso   1.00
C203   C     0.57417   0.38083   0.52483   0.00000  Uiso   1.00
C204   C     0.61466   0.33435   0.58366   0.00000  Uiso   1.00
C205   C     0.38628   0.37197   0.43592   0.00000  Uiso   1.00
C206   C     0.33239   0.42579   0.45667   0.00000  Uiso   1.00
C207   C     0.26229   0.39987   0.48434   0.00000  Uiso   1.00
H208   H     0.42577   0.18612   0.42182   0.00000  Uiso   1.00
H209   H     0.45389   0.16300   0.24847   0.00000  Uiso   1.00
H210   H     0.53042   0.16443   0.54353   0.00000  Uiso   1.00
H211   H     0.28867   0.20939   0.47537   0.00000  Uiso   1.00
H212   H     0.49195   0.17131   0.05335   0.00000  Uiso   1.00
H213   H     0.65330   0.17434   0.67552   0.00000  Uiso   1.00
H214   H     0.14353   0.26914   0.53181   0.00000  Uiso   1.00
H215   H     0.47864   0.44774   0.39920   0.00000  Uiso   1.00
H216   H     0.50966   0.43897   0.22461   0.00000  Uiso   1.00
H217   H     0.58619   0.44041   0.51967   0.00000  Uiso   1.00
H218   H     0.34445   0.48536   0.45151   0.00000  Uiso   1.00
H219   H     0.53722   0.39530   0.03399   0.00000  Uiso   1.00
H220   H     0.69858   0.39833   0.65616   0.00000  Uiso   1.00
H221   H     0.18880   0.49313   0.51244   0.00000  Uiso   1.00
O222   O     0.53406   0.27281   0.92923   0.00000  Uiso   1.00
O223   O     0.74574   0.27679   0.74551   0.00000  Uiso   1.00
O224   O     0.07693   0.40116   0.55695   0.00000  Uiso   1.00
N225   N     0.49833   0.22523   0.07275   0.00000  Uiso   1.00
N226   N     0.64920   0.22806   0.65443   0.00000  Uiso   1.00
N227   N     0.17261   0.31669   0.52009   0.00000  Uiso   1.00
N228   N     0.52269   0.34576   0.06233   0.00000  Uiso   1.00
N229   N     0.67356   0.34859   0.64401   0.00000  Uiso   1.00
N230   N     0.19697   0.43722   0.50967   0.00000  Uiso   1.00
C231   C     0.93788   0.74606   0.91663   0.00000  Uiso   1.00
C232   C     0.96048   0.76977   0.81931   0.00000  Uiso   1.00
C233   C     0.96593   0.72258   0.74329   0.00000  Uiso   1.00
C234   C     0.98751   0.75513   0.66027   0.00000  Uiso   1.00
C235   C     0.02028   0.78024   0.51018   0.00000  Uiso   1.00
C236   C     0.00207   0.77055   0.97962   0.00000  Uiso   1.00
C237   C     0.04248   0.72401   0.03839   0.00000  Uiso   1.00
C238   C     0.09907   0.75722   0.09032   0.00000  Uiso   1.00
C239   C     0.19637   0.78355   0.18916   0.00000  Uiso   1.00
C240   C     0.87072   0.79498   0.94258   0.00000  Uiso   1.00
C241   C     0.80069   0.76897   0.97023   0.00000  Uiso   1.00
C242   C     0.74670   0.82275   0.99100   0.00000  Uiso   1.00
C243   C     0.64005   0.88699   0.03233   0.00000  Uiso   1.00
C244   C     0.96653   0.88780   0.90438   0.00000  Uiso   1.00
C245   C     0.97604   0.84676   0.81266   0.00000  Uiso   1.00
C246   C     0.99762   0.87940   0.72974   0.00000  Uiso   1.00
C247   C     0.00310   0.83225   0.65360   0.00000  Uiso   1.00
C248   C     0.01763   0.84754   0.97297   0.00000  Uiso   1.00
C249   C     0.07417   0.88083   0.02483   0.00000  Uiso   1.00
C250   C     0.11466   0.83435   0.08366   0.00000  Uiso   1.00
C251   C     0.88628   0.87197   0.93592   0.00000  Uiso   1.00
C252   C     0.83239   0.92579   0.95667   0.00000  Uiso   1.00
C253   C     0.76229   0.89987   0.98434   0.00000  Uiso   1.00
H254   H     0.92577   0.68612   0.92182   0.00000  Uiso   1.00
H255   H     0.95389   0.66300   0.74847   0.00000  Uiso   1.00
H256   H     0.03042   0.66443   0.04353   0.00000  Uiso   1.00
H257   H     0.78867   0.70939   0.97537   0.00000  Uiso   1.00
H258   H     0.99195   0.67131   0.55335   0.00000  Uiso   1.00
H259   H     0.15330   0.67434   0.17552   0.00000  Uiso   1.00
H260   H     0.64353   0.76914   0.03181   0.00000  Uiso   1.00
H261   H     0.97864   0.94774   0.89920   0.00000  Uiso   1.00
H262   H     0.00966   0.93897   0.72461   0.00000  Uiso   1.00
H263   H     0.08619   0.94041   0.01967   0.00000  Uiso   1.00
H264   H     0.84445   0.98536   0.95151   0.00000  Uiso   1.00
H265   H     0.03722   0.89530   0.53399   0.00000  Uiso   1.00
H266   H     0.19858   0.89833   0.15616   0.00000  Uiso   1.00
H267   H     0.68880   0.99313   0.01244   0.00000  Uiso   1.00
O268   O     0.03406   0.77281   0.42923   0.00000  Uiso   1.00
O269   O     0.24574   0.77679   0.24551   0.00000  Uiso   1.00
O270   O     0.57693   0.90116   0.05695   0.00000  Uiso   1.00
N271   N     0.99833   0.72523   0.57275   0.00000  Uiso   1.00
N272   N     0.14920   0.72806   0.15443   0.00000  Uiso   1.00
N273   N     0.67261   0.81669   0.02009   0.00000  Uiso   1.00
N274   N     0.02269   0.84576   0.56233   0.00000  Uiso   1.00
N275   N     0.17356   0.84859   0.14401   0.00000  Uiso   1.00
N276   N     0.69697   0.93722   0.00967   0.00000  Uiso   1.00
C277   C     0.06212   0.25394   0.91663   0.00000  Uiso   1.00
C278   C     0.03952   0.23023   0.81931   0.00000  Uiso   1.00
C279   C     0.03407   0.27742   0.74329   0.00000  Uiso   1.00
C280   C     0.01249   0.24487   0.66027   0.00000  Uiso   1.00
C281   C     0.97972   0.21976   0.51018   0.00000  Uiso   1.00
C282   C     0.99793   0.22945   0.97962   0.00000  Uiso   1.00
C283   C     0.95752   0.27599   0.03839   0.00000  Uiso   1.00
C284   C     0.90093   0.24278   0.09032   0.00000  Uiso   1.00
C285   C     0.80363   0.21645   0.18916   0.00000  Uiso   1.00
C286   C     0.12928   0.20502   0.94258   0.00000  Uiso   1.00
C287   C     0.19931   0.23103   0.97023   0.00000  Uiso   1.00
C288   C     0.25330   0.17725   0.99100   0.00000  Uiso   1.00
C289   C     0.35995   0.11301   0.03233   0.00000  Uiso   1.00
C290   C     0.03347   0.11220   0.90438   0.00000  Uiso   1.00
C291   C     0.02396   0.15324   0.81266   0.00000  Uiso   1.00
C292   C     0.00238   0.12060   0.72974   0.00000  Uiso   1.00
C293   C     0.99690   0.16775   0.65360   0.00000  Uiso   1.00
C294   C     0.98237   0.15246   0.97297   0.00000  Uiso   1.00
C295   C     0.92583   0.11917   0.02483   0.00000  Uiso   1.00
C296   C     0.88534   0.16565   0.08366   0.00000  Uiso   1.00
C297   C     0.11372   0.12803   0.93592   0.00000  Uiso   1.00
C298   C     0.16761   0.07421   0.95667   0.00000  Uiso   1.00
C299   C     0.23771   0.10013   0.98434   0.00000  Uiso   1.00
H300   H     0.07423   0.31388   0.92182   0.00000  Uiso   1.00
H301   H     0.04611   0.33700   0.74847   0.00000  Uiso   1.00
H302   H     0.96958   0.33557   0.04353   0.00000  Uiso   1.00
H303   H     0.21133   0.29061   0.97537   0.00000  Uiso   1.00
H304   H     0.00805   0.32869   0.55335   0.00000  Uiso   1.00
H305   H     0.84670   0.32566   0.17552   0.00000  Uiso   1.00
H306   H     0.35647   0.23086   0.03181   0.00000  Uiso   1.00
H307   H     0.02136   0.05226   0.89920   0.00000  Uiso   1.00
H308   H     0.99034   0.06103   0.72461   0.00000  Uiso   1.00
H309   H     0.91381   0.05959   0.01967   0.00000  Uiso   1.00
H310   H     0.15555   0.01464   0.95151   0.00000  Uiso   1.00
H311   H     0.96278   0.10470   0.53399   0.00000  Uiso   1.00
H312   H     0.80142   0.10167   0.15616   0.00000  Uiso   1.00
H313   H     0.31120   0.00687   0.01244   0.00000  Uiso   1.00
O314   O     0.96594   0.22719   0.42923   0.00000  Uiso   1.00
O315   O     0.75426   0.22321   0.24551   0.00000  Uiso   1.00
O316   O     0.42307   0.09884   0.05695   0.00000  Uiso   1.00
N317   N     0.00167   0.27477   0.57275   0.00000  Uiso   1.00
N318   N     0.85080   0.27194   0.15443   0.00000  Uiso   1.00
N319   N     0.32739   0.18331   0.02009   0.00000  Uiso   1.00
N320   N     0.97731   0.15424   0.56233   0.00000  Uiso   1.00
N321   N     0.82644   0.15141   0.14401   0.00000  Uiso   1.00
N322   N     0.30303   0.06278   0.00967   0.00000  Uiso   1.00
C323   C     0.56212   0.75394   0.41663   0.00000  Uiso   1.00
C324   C     0.53952   0.73023   0.31931   0.00000  Uiso   1.00
C325   C     0.53407   0.77742   0.24329   0.00000  Uiso   1.00
C326   C     0.51249   0.74487   0.16027   0.00000  Uiso   1.00
C327   C     0.47972   0.71976   0.01018   0.00000  Uiso   1.00
C328   C     0.49793   0.72945   0.47962   0.00000  Uiso   1.00
C329   C     0.45752   0.77599   0.53839   0.00000  Uiso   1.00
C330   C     0.40093   0.74278   0.59032   0.00000  Uiso   1.00
C331   C     0.30363   0.71645   0.68916   0.00000  Uiso   1.00
C332   C     0.62928   0.70502   0.44258   0.00000  Uiso   1.00
C333   C     0.69931   0.73103   0.47023   0.00000  Uiso   1.00
C334   C     0.75330   0.67725   0.49100   0.00000  Uiso   1.00
C335   C     0.85995   0.61301   0.53233   0.00000  Uiso   1.00
C336   C     0.53347   0.61220   0.40438   0.00000  Uiso   1.00
C337   C     0.52396   0.65324   0.31266   0.00000  Uiso   1.00
C338   C     0.50238   0.62060   0.22974   0.00000  Uiso   1.00
C339   C     0.49690   0.66775   0.15360   0.00000  Uiso   1.00
C340   C     0.48237   0.65246   0.47297   0.00000  Uiso   1.00
C341   C     0.42583   0.61917   0.52483   0.00000  Uiso   1.00
C342   C     0.38534   0.66565   0.58366   0.00000  Uiso   1.00
C343   C     0.61372   0.62803   0.43592   0.00000  Uiso   1.00
C344   C     0.66761   0.57421   0.45667   0.00000  Uiso   1.00
C345   C     0.73771   0.60013   0.48434   0.00000  Uiso   1.00
H346   H     0.57423   0.81388   0.42182   0.00000  Uiso   1.00
H347   H     0.54611   0.83700   0.24847   0.00000  Uiso   1.00
H348   H     0.46958   0.83557   0.54353   0.00000  Uiso   1.00
H349   H     0.71133   0.79061   0.47537   0.00000  Uiso   1.00
H350   H     0.50805   0.82869   0.05335   0.00000  Uiso   1.00
H351   H     0.34670   0.82566   0.67552   0.00000  Uiso   1.00
H352   H     0.85647   0.73086   0.53181   0.00000  Uiso   1.00
H353   H     0.52136   0.55226   0.39920   0.00000  Uiso   1.00
H354   H     0.49034   0.56103   0.22461   0.00000  Uiso   1.00
H355   H     0.41381   0.55959   0.51967   0.00000  Uiso   1.00
H356   H     0.65555   0.51464   0.45151   0.00000  Uiso   1.00
H357   H     0.46278   0.60470   0.03399   0.00000  Uiso   1.00
H358   H     0.30142   0.60167   0.65616   0.00000  Uiso   1.00
H359   H     0.81120   0.50687   0.51244   0.00000  Uiso   1.00
O360   O     0.46594   0.72719   0.92923   0.00000  Uiso   1.00
O361   O     0.25426   0.72321   0.74551   0.00000  Uiso   1.00
O362   O     0.92307   0.59884   0.55695   0.00000  Uiso   1.00
N363   N     0.50167   0.77477   0.07275   0.00000  Uiso   1.00
N364   N     0.35080   0.77194   0.65443   0.00000  Uiso   1.00
N365   N     0.82739   0.68331   0.52009   0.00000  Uiso   1.00
N366   N     0.47731   0.65424   0.06233   0.00000  Uiso   1.00
N367   N     0.32644   0.65141   0.64401   0.00000  Uiso   1.00
N368   N     0.80303   0.56278   0.50967   0.00000  Uiso   1.00
