data_job_05792
_audit_creation_date              2018-12-19
_audit_creation_method            'Materials Studio'
_symmetry_space_group_name_H-M    'P1'
_symmetry_Int_Tables_number       1
_symmetry_cell_setting            triclinic
loop_
_symmetry_equiv_pos_as_xyz
  x,y,z
_cell_length_a                    44.8042
_cell_length_b                    12.4526
_cell_length_c                    12.3800
_cell_angle_alpha                 90.0000
_cell_angle_beta                  90.0000
_cell_angle_gamma                 90.0000
loop_
_atom_site_label
_atom_site_type_symbol
_atom_site_fract_x
_atom_site_fract_y
_atom_site_fract_z
_atom_site_U_iso_or_equiv
_atom_site_adp_type
_atom_site_occupancy
C1     C     0.64638   0.40404   0.89801   0.00000  Uiso   1.00
C2     C     0.62115   0.38803   0.81691   0.00000  Uiso   1.00
C3     C     0.59094   0.40098   0.83798   0.00000  Uiso   1.00
C4     C     0.57139   0.38253   0.75298   0.00000  Uiso   1.00
C5     C     0.53065   0.36222   0.64264   0.00000  Uiso   1.00
C6     C     0.66376   0.29877   0.89990   0.00000  Uiso   1.00
C7     C     0.66938   0.23668   0.99075   0.00000  Uiso   1.00
C8     C     0.68570   0.14309   0.97561   0.00000  Uiso   1.00
C9     C     0.71112   0.98424   0.99413   0.00000  Uiso   1.00
C10    C     0.66725   0.48709   0.84810   0.00000  Uiso   1.00
C11    C     0.67581   0.58333   0.89539   0.00000  Uiso   1.00
C12    C     0.69507   0.64828   0.83664   0.00000  Uiso   1.00
C13    C     0.72590   0.78183   0.77472   0.00000  Uiso   1.00
C14    C     0.66538   0.34826   0.70960   0.00000  Uiso   1.00
C15    C     0.63147   0.35773   0.71458   0.00000  Uiso   1.00
C16    C     0.61196   0.33925   0.62952   0.00000  Uiso   1.00
C17    C     0.58173   0.35217   0.65045   0.00000  Uiso   1.00
C18    C     0.67408   0.26846   0.79757   0.00000  Uiso   1.00
C19    C     0.69039   0.17495   0.78229   0.00000  Uiso   1.00
C20    C     0.69603   0.11273   0.87309   0.00000  Uiso   1.00
C21    C     0.67756   0.45679   0.74575   0.00000  Uiso   1.00
C22    C     0.69682   0.52160   0.68693   0.00000  Uiso   1.00
C23    C     0.70540   0.61793   0.73412   0.00000  Uiso   1.00
H24    H     0.63835   0.42763   0.97769   0.00000  Uiso   1.00
H25    H     0.58297   0.42442   0.91719   0.00000  Uiso   1.00
H26    H     0.66140   0.26015   0.06994   0.00000  Uiso   1.00
H27    H     0.66782   0.60675   0.97459   0.00000  Uiso   1.00
H28    H     0.52612   0.40746   0.80500   0.00000  Uiso   1.00
H29    H     0.69149   0.06111   0.12708   0.00000  Uiso   1.00
H30    H     0.70504   0.79198   0.92602   0.00000  Uiso   1.00
H31    H     0.67341   0.32466   0.62992   0.00000  Uiso   1.00
H32    H     0.61995   0.31580   0.55033   0.00000  Uiso   1.00
H33    H     0.69837   0.15153   0.70309   0.00000  Uiso   1.00
H34    H     0.70480   0.49813   0.60774   0.00000  Uiso   1.00
H35    H     0.55613   0.31930   0.50725   0.00000  Uiso   1.00
H36    H     0.72150   0.97295   0.82933   0.00000  Uiso   1.00
H37    H     0.73505   0.70382   0.62827   0.00000  Uiso   1.00
O38    O     0.50532   0.35937   0.61005   0.00000  Uiso   1.00
O39    O     0.72229   0.90499   0.03262   0.00000  Uiso   1.00
O40    O     0.74006   0.86387   0.76883   0.00000  Uiso   1.00
N41    N     0.54052   0.38795   0.74584   0.00000  Uiso   1.00
N42    N     0.69513   0.06412   0.04696   0.00000  Uiso   1.00
N43    N     0.70780   0.74741   0.85900   0.00000  Uiso   1.00
N44    N     0.55667   0.34051   0.58562   0.00000  Uiso   1.00
N45    N     0.71128   0.01668   0.88675   0.00000  Uiso   1.00
N46    N     0.72395   0.69997   0.69878   0.00000  Uiso   1.00
C47    C     0.85362   0.59596   0.89801   0.00000  Uiso   1.00
C48    C     0.87885   0.61197   0.81691   0.00000  Uiso   1.00
C49    C     0.90906   0.59902   0.83798   0.00000  Uiso   1.00
C50    C     0.92861   0.61747   0.75298   0.00000  Uiso   1.00
C51    C     0.96935   0.63778   0.64264   0.00000  Uiso   1.00
C52    C     0.83624   0.70123   0.89990   0.00000  Uiso   1.00
C53    C     0.83062   0.76332   0.99075   0.00000  Uiso   1.00
C54    C     0.81430   0.85691   0.97561   0.00000  Uiso   1.00
C55    C     0.78888   0.01576   0.99413   0.00000  Uiso   1.00
C56    C     0.83275   0.51291   0.84810   0.00000  Uiso   1.00
C57    C     0.82419   0.41667   0.89539   0.00000  Uiso   1.00
C58    C     0.80493   0.35172   0.83664   0.00000  Uiso   1.00
C59    C     0.77410   0.21817   0.77472   0.00000  Uiso   1.00
C60    C     0.83462   0.65174   0.70960   0.00000  Uiso   1.00
C61    C     0.86853   0.64227   0.71458   0.00000  Uiso   1.00
C62    C     0.88804   0.66075   0.62952   0.00000  Uiso   1.00
C63    C     0.91827   0.64783   0.65045   0.00000  Uiso   1.00
C64    C     0.82592   0.73154   0.79757   0.00000  Uiso   1.00
C65    C     0.80961   0.82505   0.78229   0.00000  Uiso   1.00
C66    C     0.80397   0.88727   0.87309   0.00000  Uiso   1.00
C67    C     0.82244   0.54321   0.74575   0.00000  Uiso   1.00
C68    C     0.80318   0.47840   0.68693   0.00000  Uiso   1.00
C69    C     0.79460   0.38207   0.73412   0.00000  Uiso   1.00
H70    H     0.86165   0.57237   0.97769   0.00000  Uiso   1.00
H71    H     0.91703   0.57558   0.91719   0.00000  Uiso   1.00
H72    H     0.83860   0.73985   0.06994   0.00000  Uiso   1.00
H73    H     0.83218   0.39325   0.97459   0.00000  Uiso   1.00
H74    H     0.97388   0.59254   0.80500   0.00000  Uiso   1.00
H75    H     0.80851   0.93889   0.12708   0.00000  Uiso   1.00
H76    H     0.79496   0.20802   0.92602   0.00000  Uiso   1.00
H77    H     0.82659   0.67534   0.62992   0.00000  Uiso   1.00
H78    H     0.88005   0.68420   0.55033   0.00000  Uiso   1.00
H79    H     0.80163   0.84847   0.70309   0.00000  Uiso   1.00
H80    H     0.79520   0.50187   0.60774   0.00000  Uiso   1.00
H81    H     0.94387   0.68070   0.50725   0.00000  Uiso   1.00
H82    H     0.77850   0.02705   0.82933   0.00000  Uiso   1.00
H83    H     0.76495   0.29618   0.62827   0.00000  Uiso   1.00
O84    O     0.99468   0.64063   0.61005   0.00000  Uiso   1.00
O85    O     0.77771   0.09501   0.03262   0.00000  Uiso   1.00
O86    O     0.75994   0.13613   0.76883   0.00000  Uiso   1.00
N87    N     0.95948   0.61205   0.74584   0.00000  Uiso   1.00
N88    N     0.80487   0.93588   0.04696   0.00000  Uiso   1.00
N89    N     0.79220   0.25259   0.85900   0.00000  Uiso   1.00
N90    N     0.94333   0.65949   0.58562   0.00000  Uiso   1.00
N91    N     0.78872   0.98332   0.88675   0.00000  Uiso   1.00
N92    N     0.77605   0.30003   0.69878   0.00000  Uiso   1.00
C93    C     0.35362   0.40404   0.60199   0.00000  Uiso   1.00
C94    C     0.37885   0.38803   0.68309   0.00000  Uiso   1.00
C95    C     0.40906   0.40098   0.66202   0.00000  Uiso   1.00
C96    C     0.42861   0.38253   0.74702   0.00000  Uiso   1.00
C97    C     0.46935   0.36222   0.85736   0.00000  Uiso   1.00
C98    C     0.33624   0.29877   0.60010   0.00000  Uiso   1.00
C99    C     0.33062   0.23668   0.50925   0.00000  Uiso   1.00
C100   C     0.31430   0.14309   0.52439   0.00000  Uiso   1.00
C101   C     0.28888   0.98424   0.50587   0.00000  Uiso   1.00
C102   C     0.33275   0.48709   0.65190   0.00000  Uiso   1.00
C103   C     0.32419   0.58333   0.60461   0.00000  Uiso   1.00
C104   C     0.30493   0.64828   0.66336   0.00000  Uiso   1.00
C105   C     0.27410   0.78183   0.72528   0.00000  Uiso   1.00
C106   C     0.33462   0.34826   0.79040   0.00000  Uiso   1.00
C107   C     0.36853   0.35773   0.78542   0.00000  Uiso   1.00
C108   C     0.38804   0.33925   0.87048   0.00000  Uiso   1.00
C109   C     0.41827   0.35217   0.84955   0.00000  Uiso   1.00
C110   C     0.32592   0.26846   0.70243   0.00000  Uiso   1.00
C111   C     0.30961   0.17495   0.71771   0.00000  Uiso   1.00
C112   C     0.30397   0.11273   0.62691   0.00000  Uiso   1.00
C113   C     0.32244   0.45679   0.75425   0.00000  Uiso   1.00
C114   C     0.30318   0.52160   0.81307   0.00000  Uiso   1.00
C115   C     0.29460   0.61793   0.76588   0.00000  Uiso   1.00
H116   H     0.36165   0.42763   0.52231   0.00000  Uiso   1.00
H117   H     0.41703   0.42442   0.58281   0.00000  Uiso   1.00
H118   H     0.33860   0.26015   0.43006   0.00000  Uiso   1.00
H119   H     0.33218   0.60675   0.52541   0.00000  Uiso   1.00
H120   H     0.47388   0.40746   0.69500   0.00000  Uiso   1.00
H121   H     0.30851   0.06111   0.37292   0.00000  Uiso   1.00
H122   H     0.29496   0.79198   0.57398   0.00000  Uiso   1.00
H123   H     0.32659   0.32466   0.87008   0.00000  Uiso   1.00
H124   H     0.38005   0.31580   0.94967   0.00000  Uiso   1.00
H125   H     0.30163   0.15153   0.79691   0.00000  Uiso   1.00
H126   H     0.29520   0.49813   0.89226   0.00000  Uiso   1.00
H127   H     0.44387   0.31930   0.99275   0.00000  Uiso   1.00
H128   H     0.27850   0.97295   0.67067   0.00000  Uiso   1.00
H129   H     0.26495   0.70382   0.87173   0.00000  Uiso   1.00
O130   O     0.49468   0.35937   0.88995   0.00000  Uiso   1.00
O131   O     0.27771   0.90499   0.46738   0.00000  Uiso   1.00
O132   O     0.25994   0.86387   0.73117   0.00000  Uiso   1.00
N133   N     0.45948   0.38795   0.75416   0.00000  Uiso   1.00
N134   N     0.30487   0.06412   0.45304   0.00000  Uiso   1.00
N135   N     0.29220   0.74741   0.64100   0.00000  Uiso   1.00
N136   N     0.44333   0.34051   0.91438   0.00000  Uiso   1.00
N137   N     0.28872   0.01668   0.61325   0.00000  Uiso   1.00
N138   N     0.27605   0.69997   0.80122   0.00000  Uiso   1.00
C139   C     0.14638   0.59596   0.60199   0.00000  Uiso   1.00
C140   C     0.12115   0.61197   0.68309   0.00000  Uiso   1.00
C141   C     0.09094   0.59902   0.66202   0.00000  Uiso   1.00
C142   C     0.07139   0.61747   0.74702   0.00000  Uiso   1.00
C143   C     0.03065   0.63778   0.85736   0.00000  Uiso   1.00
C144   C     0.16376   0.70123   0.60010   0.00000  Uiso   1.00
C145   C     0.16938   0.76332   0.50925   0.00000  Uiso   1.00
C146   C     0.18570   0.85691   0.52439   0.00000  Uiso   1.00
C147   C     0.21112   0.01576   0.50587   0.00000  Uiso   1.00
C148   C     0.16725   0.51291   0.65190   0.00000  Uiso   1.00
C149   C     0.17581   0.41667   0.60461   0.00000  Uiso   1.00
C150   C     0.19507   0.35172   0.66336   0.00000  Uiso   1.00
C151   C     0.22590   0.21817   0.72528   0.00000  Uiso   1.00
C152   C     0.16538   0.65174   0.79040   0.00000  Uiso   1.00
C153   C     0.13147   0.64227   0.78542   0.00000  Uiso   1.00
C154   C     0.11196   0.66075   0.87048   0.00000  Uiso   1.00
C155   C     0.08173   0.64783   0.84955   0.00000  Uiso   1.00
C156   C     0.17408   0.73154   0.70243   0.00000  Uiso   1.00
C157   C     0.19039   0.82505   0.71771   0.00000  Uiso   1.00
C158   C     0.19603   0.88727   0.62691   0.00000  Uiso   1.00
C159   C     0.17756   0.54321   0.75425   0.00000  Uiso   1.00
C160   C     0.19682   0.47840   0.81307   0.00000  Uiso   1.00
C161   C     0.20540   0.38207   0.76588   0.00000  Uiso   1.00
H162   H     0.13835   0.57237   0.52231   0.00000  Uiso   1.00
H163   H     0.08297   0.57558   0.58281   0.00000  Uiso   1.00
H164   H     0.16140   0.73985   0.43006   0.00000  Uiso   1.00
H165   H     0.16782   0.39325   0.52541   0.00000  Uiso   1.00
H166   H     0.02612   0.59254   0.69500   0.00000  Uiso   1.00
H167   H     0.19149   0.93889   0.37292   0.00000  Uiso   1.00
H168   H     0.20504   0.20802   0.57398   0.00000  Uiso   1.00
H169   H     0.17341   0.67534   0.87008   0.00000  Uiso   1.00
H170   H     0.11995   0.68420   0.94967   0.00000  Uiso   1.00
H171   H     0.19837   0.84847   0.79691   0.00000  Uiso   1.00
H172   H     0.20480   0.50187   0.89226   0.00000  Uiso   1.00
H173   H     0.05613   0.68070   0.99275   0.00000  Uiso   1.00
H174   H     0.22150   0.02705   0.67067   0.00000  Uiso   1.00
H175   H     0.23505   0.29618   0.87173   0.00000  Uiso   1.00
O176   O     0.00532   0.64063   0.88995   0.00000  Uiso   1.00
O177   O     0.22229   0.09501   0.46738   0.00000  Uiso   1.00
O178   O     0.24006   0.13613   0.73117   0.00000  Uiso   1.00
N179   N     0.04052   0.61205   0.75416   0.00000  Uiso   1.00
N180   N     0.19513   0.93588   0.45304   0.00000  Uiso   1.00
N181   N     0.20780   0.25259   0.64100   0.00000  Uiso   1.00
N182   N     0.05667   0.65949   0.91438   0.00000  Uiso   1.00
N183   N     0.21128   0.98332   0.61325   0.00000  Uiso   1.00
N184   N     0.22395   0.30003   0.80122   0.00000  Uiso   1.00
C185   C     0.35362   0.59596   0.10199   0.00000  Uiso   1.00
C186   C     0.37885   0.61197   0.18309   0.00000  Uiso   1.00
C187   C     0.40906   0.59902   0.16202   0.00000  Uiso   1.00
C188   C     0.42861   0.61747   0.24702   0.00000  Uiso   1.00
C189   C     0.46935   0.63778   0.35736   0.00000  Uiso   1.00
C190   C     0.33624   0.70123   0.10010   0.00000  Uiso   1.00
C191   C     0.33062   0.76332   0.00925   0.00000  Uiso   1.00
C192   C     0.31430   0.85691   0.02439   0.00000  Uiso   1.00
C193   C     0.28888   0.01576   0.00587   0.00000  Uiso   1.00
C194   C     0.33275   0.51291   0.15190   0.00000  Uiso   1.00
C195   C     0.32419   0.41667   0.10461   0.00000  Uiso   1.00
C196   C     0.30493   0.35172   0.16336   0.00000  Uiso   1.00
C197   C     0.27410   0.21817   0.22528   0.00000  Uiso   1.00
C198   C     0.33462   0.65174   0.29040   0.00000  Uiso   1.00
C199   C     0.36853   0.64227   0.28542   0.00000  Uiso   1.00
C200   C     0.38804   0.66075   0.37048   0.00000  Uiso   1.00
C201   C     0.41827   0.64783   0.34955   0.00000  Uiso   1.00
C202   C     0.32592   0.73154   0.20243   0.00000  Uiso   1.00
C203   C     0.30961   0.82505   0.21771   0.00000  Uiso   1.00
C204   C     0.30397   0.88727   0.12691   0.00000  Uiso   1.00
C205   C     0.32244   0.54321   0.25425   0.00000  Uiso   1.00
C206   C     0.30318   0.47840   0.31307   0.00000  Uiso   1.00
C207   C     0.29460   0.38207   0.26588   0.00000  Uiso   1.00
H208   H     0.36165   0.57237   0.02231   0.00000  Uiso   1.00
H209   H     0.41703   0.57558   0.08281   0.00000  Uiso   1.00
H210   H     0.33860   0.73985   0.93006   0.00000  Uiso   1.00
H211   H     0.33218   0.39325   0.02541   0.00000  Uiso   1.00
H212   H     0.47388   0.59254   0.19500   0.00000  Uiso   1.00
H213   H     0.30851   0.93889   0.87292   0.00000  Uiso   1.00
H214   H     0.29496   0.20802   0.07398   0.00000  Uiso   1.00
H215   H     0.32659   0.67534   0.37008   0.00000  Uiso   1.00
H216   H     0.38005   0.68420   0.44967   0.00000  Uiso   1.00
H217   H     0.30163   0.84847   0.29691   0.00000  Uiso   1.00
H218   H     0.29520   0.50187   0.39226   0.00000  Uiso   1.00
H219   H     0.44387   0.68070   0.49275   0.00000  Uiso   1.00
H220   H     0.27850   0.02705   0.17067   0.00000  Uiso   1.00
H221   H     0.26495   0.29618   0.37173   0.00000  Uiso   1.00
O222   O     0.49468   0.64063   0.38995   0.00000  Uiso   1.00
O223   O     0.27771   0.09501   0.96738   0.00000  Uiso   1.00
O224   O     0.25994   0.13613   0.23117   0.00000  Uiso   1.00
N225   N     0.45948   0.61205   0.25416   0.00000  Uiso   1.00
N226   N     0.30487   0.93588   0.95304   0.00000  Uiso   1.00
N227   N     0.29220   0.25259   0.14100   0.00000  Uiso   1.00
N228   N     0.44333   0.65949   0.41438   0.00000  Uiso   1.00
N229   N     0.28872   0.98332   0.11325   0.00000  Uiso   1.00
N230   N     0.27605   0.30003   0.30122   0.00000  Uiso   1.00
C231   C     0.14638   0.40404   0.10199   0.00000  Uiso   1.00
C232   C     0.12115   0.38803   0.18309   0.00000  Uiso   1.00
C233   C     0.09094   0.40098   0.16202   0.00000  Uiso   1.00
C234   C     0.07139   0.38253   0.24702   0.00000  Uiso   1.00
C235   C     0.03065   0.36222   0.35736   0.00000  Uiso   1.00
C236   C     0.16376   0.29877   0.10010   0.00000  Uiso   1.00
C237   C     0.16938   0.23668   0.00925   0.00000  Uiso   1.00
C238   C     0.18570   0.14309   0.02439   0.00000  Uiso   1.00
C239   C     0.21112   0.98424   0.00587   0.00000  Uiso   1.00
C240   C     0.16725   0.48709   0.15190   0.00000  Uiso   1.00
C241   C     0.17581   0.58333   0.10461   0.00000  Uiso   1.00
C242   C     0.19507   0.64828   0.16336   0.00000  Uiso   1.00
C243   C     0.22590   0.78183   0.22528   0.00000  Uiso   1.00
C244   C     0.16538   0.34826   0.29040   0.00000  Uiso   1.00
C245   C     0.13147   0.35773   0.28542   0.00000  Uiso   1.00
C246   C     0.11196   0.33925   0.37048   0.00000  Uiso   1.00
C247   C     0.08173   0.35217   0.34955   0.00000  Uiso   1.00
C248   C     0.17408   0.26846   0.20243   0.00000  Uiso   1.00
C249   C     0.19039   0.17495   0.21771   0.00000  Uiso   1.00
C250   C     0.19603   0.11273   0.12691   0.00000  Uiso   1.00
C251   C     0.17756   0.45679   0.25425   0.00000  Uiso   1.00
C252   C     0.19682   0.52160   0.31307   0.00000  Uiso   1.00
C253   C     0.20540   0.61793   0.26588   0.00000  Uiso   1.00
H254   H     0.13835   0.42763   0.02231   0.00000  Uiso   1.00
H255   H     0.08297   0.42442   0.08281   0.00000  Uiso   1.00
H256   H     0.16140   0.26015   0.93006   0.00000  Uiso   1.00
H257   H     0.16782   0.60675   0.02541   0.00000  Uiso   1.00
H258   H     0.02612   0.40746   0.19500   0.00000  Uiso   1.00
H259   H     0.19149   0.06111   0.87292   0.00000  Uiso   1.00
H260   H     0.20504   0.79198   0.07398   0.00000  Uiso   1.00
H261   H     0.17341   0.32466   0.37008   0.00000  Uiso   1.00
H262   H     0.11995   0.31580   0.44967   0.00000  Uiso   1.00
H263   H     0.19837   0.15153   0.29691   0.00000  Uiso   1.00
H264   H     0.20480   0.49813   0.39226   0.00000  Uiso   1.00
H265   H     0.05613   0.31930   0.49275   0.00000  Uiso   1.00
H266   H     0.22150   0.97295   0.17067   0.00000  Uiso   1.00
H267   H     0.23505   0.70382   0.37173   0.00000  Uiso   1.00
O268   O     0.00532   0.35937   0.38995   0.00000  Uiso   1.00
O269   O     0.22229   0.90499   0.96738   0.00000  Uiso   1.00
O270   O     0.24006   0.86387   0.23117   0.00000  Uiso   1.00
N271   N     0.04052   0.38795   0.25416   0.00000  Uiso   1.00
N272   N     0.19513   0.06412   0.95304   0.00000  Uiso   1.00
N273   N     0.20780   0.74741   0.14100   0.00000  Uiso   1.00
N274   N     0.05667   0.34051   0.41438   0.00000  Uiso   1.00
N275   N     0.21128   0.01668   0.11325   0.00000  Uiso   1.00
N276   N     0.22395   0.69997   0.30122   0.00000  Uiso   1.00
C277   C     0.64638   0.59596   0.39801   0.00000  Uiso   1.00
C278   C     0.62115   0.61197   0.31691   0.00000  Uiso   1.00
C279   C     0.59094   0.59902   0.33798   0.00000  Uiso   1.00
C280   C     0.57139   0.61747   0.25298   0.00000  Uiso   1.00
C281   C     0.53065   0.63778   0.14264   0.00000  Uiso   1.00
C282   C     0.66376   0.70123   0.39990   0.00000  Uiso   1.00
C283   C     0.66938   0.76332   0.49075   0.00000  Uiso   1.00
C284   C     0.68570   0.85691   0.47561   0.00000  Uiso   1.00
C285   C     0.71112   0.01576   0.49413   0.00000  Uiso   1.00
C286   C     0.66725   0.51291   0.34810   0.00000  Uiso   1.00
C287   C     0.67581   0.41667   0.39539   0.00000  Uiso   1.00
C288   C     0.69507   0.35172   0.33664   0.00000  Uiso   1.00
C289   C     0.72590   0.21817   0.27472   0.00000  Uiso   1.00
C290   C     0.66538   0.65174   0.20960   0.00000  Uiso   1.00
C291   C     0.63147   0.64227   0.21458   0.00000  Uiso   1.00
C292   C     0.61196   0.66075   0.12952   0.00000  Uiso   1.00
C293   C     0.58173   0.64783   0.15045   0.00000  Uiso   1.00
C294   C     0.67408   0.73154   0.29757   0.00000  Uiso   1.00
C295   C     0.69039   0.82505   0.28229   0.00000  Uiso   1.00
C296   C     0.69603   0.88727   0.37309   0.00000  Uiso   1.00
C297   C     0.67756   0.54321   0.24575   0.00000  Uiso   1.00
C298   C     0.69682   0.47840   0.18693   0.00000  Uiso   1.00
C299   C     0.70540   0.38207   0.23412   0.00000  Uiso   1.00
H300   H     0.63835   0.57237   0.47769   0.00000  Uiso   1.00
H301   H     0.58297   0.57558   0.41719   0.00000  Uiso   1.00
H302   H     0.66140   0.73985   0.56994   0.00000  Uiso   1.00
H303   H     0.66782   0.39325   0.47459   0.00000  Uiso   1.00
H304   H     0.52612   0.59254   0.30500   0.00000  Uiso   1.00
H305   H     0.69149   0.93889   0.62708   0.00000  Uiso   1.00
H306   H     0.70504   0.20802   0.42602   0.00000  Uiso   1.00
H307   H     0.67341   0.67534   0.12992   0.00000  Uiso   1.00
H308   H     0.61995   0.68420   0.05033   0.00000  Uiso   1.00
H309   H     0.69837   0.84847   0.20309   0.00000  Uiso   1.00
H310   H     0.70480   0.50187   0.10774   0.00000  Uiso   1.00
H311   H     0.55613   0.68070   0.00725   0.00000  Uiso   1.00
H312   H     0.72150   0.02705   0.32933   0.00000  Uiso   1.00
H313   H     0.73505   0.29618   0.12827   0.00000  Uiso   1.00
O314   O     0.50532   0.64063   0.11005   0.00000  Uiso   1.00
O315   O     0.72229   0.09501   0.53262   0.00000  Uiso   1.00
O316   O     0.74006   0.13613   0.26883   0.00000  Uiso   1.00
N317   N     0.54052   0.61205   0.24584   0.00000  Uiso   1.00
N318   N     0.69513   0.93588   0.54696   0.00000  Uiso   1.00
N319   N     0.70780   0.25259   0.35900   0.00000  Uiso   1.00
N320   N     0.55667   0.65949   0.08562   0.00000  Uiso   1.00
N321   N     0.71128   0.98332   0.38675   0.00000  Uiso   1.00
N322   N     0.72395   0.30003   0.19878   0.00000  Uiso   1.00
C323   C     0.85362   0.40404   0.39801   0.00000  Uiso   1.00
C324   C     0.87885   0.38803   0.31691   0.00000  Uiso   1.00
C325   C     0.90906   0.40098   0.33798   0.00000  Uiso   1.00
C326   C     0.92861   0.38253   0.25298   0.00000  Uiso   1.00
C327   C     0.96935   0.36222   0.14264   0.00000  Uiso   1.00
C328   C     0.83624   0.29877   0.39990   0.00000  Uiso   1.00
C329   C     0.83062   0.23668   0.49075   0.00000  Uiso   1.00
C330   C     0.81430   0.14309   0.47561   0.00000  Uiso   1.00
C331   C     0.78888   0.98424   0.49413   0.00000  Uiso   1.00
C332   C     0.83275   0.48709   0.34810   0.00000  Uiso   1.00
C333   C     0.82419   0.58333   0.39539   0.00000  Uiso   1.00
C334   C     0.80493   0.64828   0.33664   0.00000  Uiso   1.00
C335   C     0.77410   0.78183   0.27472   0.00000  Uiso   1.00
C336   C     0.83462   0.34826   0.20960   0.00000  Uiso   1.00
C337   C     0.86853   0.35773   0.21458   0.00000  Uiso   1.00
C338   C     0.88804   0.33925   0.12952   0.00000  Uiso   1.00
C339   C     0.91827   0.35217   0.15045   0.00000  Uiso   1.00
C340   C     0.82592   0.26846   0.29757   0.00000  Uiso   1.00
C341   C     0.80961   0.17495   0.28229   0.00000  Uiso   1.00
C342   C     0.80397   0.11273   0.37309   0.00000  Uiso   1.00
C343   C     0.82244   0.45679   0.24575   0.00000  Uiso   1.00
C344   C     0.80318   0.52160   0.18693   0.00000  Uiso   1.00
C345   C     0.79460   0.61793   0.23412   0.00000  Uiso   1.00
H346   H     0.86165   0.42763   0.47769   0.00000  Uiso   1.00
H347   H     0.91703   0.42442   0.41719   0.00000  Uiso   1.00
H348   H     0.83860   0.26015   0.56994   0.00000  Uiso   1.00
H349   H     0.83218   0.60675   0.47459   0.00000  Uiso   1.00
H350   H     0.97388   0.40746   0.30500   0.00000  Uiso   1.00
H351   H     0.80851   0.06111   0.62708   0.00000  Uiso   1.00
H352   H     0.79496   0.79198   0.42602   0.00000  Uiso   1.00
H353   H     0.82659   0.32466   0.12992   0.00000  Uiso   1.00
H354   H     0.88005   0.31580   0.05033   0.00000  Uiso   1.00
H355   H     0.80163   0.15153   0.20309   0.00000  Uiso   1.00
H356   H     0.79520   0.49813   0.10774   0.00000  Uiso   1.00
H357   H     0.94387   0.31930   0.00725   0.00000  Uiso   1.00
H358   H     0.77850   0.97295   0.32933   0.00000  Uiso   1.00
H359   H     0.76495   0.70382   0.12827   0.00000  Uiso   1.00
O360   O     0.99468   0.35937   0.11005   0.00000  Uiso   1.00
O361   O     0.77771   0.90499   0.53262   0.00000  Uiso   1.00
O362   O     0.75994   0.86387   0.26883   0.00000  Uiso   1.00
N363   N     0.95948   0.38795   0.24584   0.00000  Uiso   1.00
N364   N     0.80487   0.06412   0.54696   0.00000  Uiso   1.00
N365   N     0.79220   0.74741   0.35900   0.00000  Uiso   1.00
N366   N     0.94333   0.34051   0.08562   0.00000  Uiso   1.00
N367   N     0.78872   0.01668   0.38675   0.00000  Uiso   1.00
N368   N     0.77605   0.69997   0.19878   0.00000  Uiso   1.00
