data_job_03666
_audit_creation_date              2018-12-19
_audit_creation_method            'Materials Studio'
_symmetry_space_group_name_H-M    'P1'
_symmetry_Int_Tables_number       1
_symmetry_cell_setting            triclinic
loop_
_symmetry_equiv_pos_as_xyz
  x,y,z
_cell_length_a                    20.1754
_cell_length_b                    17.1884
_cell_length_c                    23.6642
_cell_angle_alpha                 90.0000
_cell_angle_beta                  90.0000
_cell_angle_gamma                 90.0000
loop_
_atom_site_label
_atom_site_type_symbol
_atom_site_fract_x
_atom_site_fract_y
_atom_site_fract_z
_atom_site_U_iso_or_equiv
_atom_site_adp_type
_atom_site_occupancy
C1     C     0.16812   0.53790   0.41843   0.00000  Uiso   1.00
C2     C     0.12386   0.59164   0.38372   0.00000  Uiso   1.00
C3     C     0.08122   0.56861   0.34085   0.00000  Uiso   1.00
C4     C     0.04499   0.62664   0.31418   0.00000  Uiso   1.00
C5     C     0.97534   0.69819   0.25787   0.00000  Uiso   1.00
C6     C     0.23854   0.56857   0.41126   0.00000  Uiso   1.00
C7     C     0.29232   0.52614   0.39157   0.00000  Uiso   1.00
C8     C     0.35263   0.56476   0.38810   0.00000  Uiso   1.00
C9     C     0.46104   0.60048   0.37460   0.00000  Uiso   1.00
C10    C     0.14984   0.55218   0.48009   0.00000  Uiso   1.00
C11    C     0.12904   0.49596   0.51827   0.00000  Uiso   1.00
C12    C     0.11468   0.52077   0.57275   0.00000  Uiso   1.00
C13    C     0.08536   0.53104   0.66611   0.00000  Uiso   1.00
C14    C     0.17961   0.68191   0.44729   0.00000  Uiso   1.00
C15    C     0.13011   0.66986   0.39939   0.00000  Uiso   1.00
C16    C     0.09393   0.72794   0.37278   0.00000  Uiso   1.00
C17    C     0.05124   0.70500   0.32989   0.00000  Uiso   1.00
C18    C     0.24479   0.64679   0.42694   0.00000  Uiso   1.00
C19    C     0.30503   0.68548   0.42350   0.00000  Uiso   1.00
C20    C     0.35888   0.64312   0.40380   0.00000  Uiso   1.00
C21    C     0.15608   0.63040   0.49577   0.00000  Uiso   1.00
C22    C     0.14175   0.65530   0.55020   0.00000  Uiso   1.00
C23    C     0.12094   0.59913   0.58846   0.00000  Uiso   1.00
H24    H     0.16327   0.47700   0.40623   0.00000  Uiso   1.00
H25    H     0.07641   0.50806   0.32873   0.00000  Uiso   1.00
H26    H     0.28748   0.46561   0.37945   0.00000  Uiso   1.00
H27    H     0.12422   0.43543   0.50613   0.00000  Uiso   1.00
H28    H     0.98287   0.57701   0.24971   0.00000  Uiso   1.00
H29    H     0.42793   0.48748   0.35666   0.00000  Uiso   1.00
H30    H     0.08368   0.42385   0.62380   0.00000  Uiso   1.00
H31    H     0.18447   0.74281   0.45950   0.00000  Uiso   1.00
H32    H     0.09877   0.78847   0.38492   0.00000  Uiso   1.00
H33    H     0.30984   0.74601   0.43564   0.00000  Uiso   1.00
H34    H     0.14659   0.71584   0.56232   0.00000  Uiso   1.00
H35    H     0.00103   0.80459   0.29531   0.00000  Uiso   1.00
H36    H     0.44609   0.71506   0.40227   0.00000  Uiso   1.00
H37    H     0.10183   0.65143   0.66940   0.00000  Uiso   1.00
O38    O     0.93521   0.71604   0.22248   0.00000  Uiso   1.00
O39    O     0.51911   0.59857   0.36281   0.00000  Uiso   1.00
O40    O     0.06745   0.51510   0.71328   0.00000  Uiso   1.00
N41    N     0.99890   0.62430   0.27068   0.00000  Uiso   1.00
N42    N     0.41500   0.54060   0.37067   0.00000  Uiso   1.00
N43    N     0.09317   0.48111   0.62042   0.00000  Uiso   1.00
N44    N     0.00867   0.74677   0.29522   0.00000  Uiso   1.00
N45    N     0.42477   0.66306   0.39521   0.00000  Uiso   1.00
N46    N     0.10293   0.60357   0.64496   0.00000  Uiso   1.00
C47    C     0.66812   0.03790   0.91843   0.00000  Uiso   1.00
C48    C     0.62386   0.09164   0.88372   0.00000  Uiso   1.00
C49    C     0.58122   0.06861   0.84085   0.00000  Uiso   1.00
C50    C     0.54499   0.12664   0.81418   0.00000  Uiso   1.00
C51    C     0.47534   0.19819   0.75787   0.00000  Uiso   1.00
C52    C     0.73854   0.06857   0.91126   0.00000  Uiso   1.00
C53    C     0.79232   0.02614   0.89157   0.00000  Uiso   1.00
C54    C     0.85263   0.06476   0.88810   0.00000  Uiso   1.00
C55    C     0.96104   0.10048   0.87460   0.00000  Uiso   1.00
C56    C     0.64984   0.05218   0.98009   0.00000  Uiso   1.00
C57    C     0.62904   0.99596   0.01827   0.00000  Uiso   1.00
C58    C     0.61468   0.02077   0.07275   0.00000  Uiso   1.00
C59    C     0.58536   0.03104   0.16611   0.00000  Uiso   1.00
C60    C     0.67961   0.18191   0.94729   0.00000  Uiso   1.00
C61    C     0.63011   0.16986   0.89939   0.00000  Uiso   1.00
C62    C     0.59393   0.22794   0.87278   0.00000  Uiso   1.00
C63    C     0.55124   0.20500   0.82989   0.00000  Uiso   1.00
C64    C     0.74479   0.14679   0.92694   0.00000  Uiso   1.00
C65    C     0.80503   0.18548   0.92350   0.00000  Uiso   1.00
C66    C     0.85888   0.14312   0.90380   0.00000  Uiso   1.00
C67    C     0.65608   0.13040   0.99577   0.00000  Uiso   1.00
C68    C     0.64175   0.15530   0.05020   0.00000  Uiso   1.00
C69    C     0.62094   0.09913   0.08846   0.00000  Uiso   1.00
H70    H     0.66327   0.97700   0.90623   0.00000  Uiso   1.00
H71    H     0.57641   0.00806   0.82873   0.00000  Uiso   1.00
H72    H     0.78748   0.96561   0.87945   0.00000  Uiso   1.00
H73    H     0.62422   0.93543   0.00613   0.00000  Uiso   1.00
H74    H     0.48287   0.07701   0.74971   0.00000  Uiso   1.00
H75    H     0.92793   0.98748   0.85666   0.00000  Uiso   1.00
H76    H     0.58368   0.92385   0.12380   0.00000  Uiso   1.00
H77    H     0.68447   0.24281   0.95950   0.00000  Uiso   1.00
H78    H     0.59877   0.28847   0.88492   0.00000  Uiso   1.00
H79    H     0.80984   0.24601   0.93564   0.00000  Uiso   1.00
H80    H     0.64659   0.21584   0.06232   0.00000  Uiso   1.00
H81    H     0.50103   0.30459   0.79531   0.00000  Uiso   1.00
H82    H     0.94609   0.21506   0.90227   0.00000  Uiso   1.00
H83    H     0.60183   0.15143   0.16940   0.00000  Uiso   1.00
O84    O     0.43521   0.21604   0.72248   0.00000  Uiso   1.00
O85    O     0.01911   0.09857   0.86281   0.00000  Uiso   1.00
O86    O     0.56745   0.01510   0.21328   0.00000  Uiso   1.00
N87    N     0.49890   0.12430   0.77068   0.00000  Uiso   1.00
N88    N     0.91500   0.04060   0.87067   0.00000  Uiso   1.00
N89    N     0.59317   0.98111   0.12042   0.00000  Uiso   1.00
N90    N     0.50867   0.24677   0.79522   0.00000  Uiso   1.00
N91    N     0.92477   0.16306   0.89521   0.00000  Uiso   1.00
N92    N     0.60293   0.10357   0.14496   0.00000  Uiso   1.00
C93    C     0.83188   0.46210   0.41843   0.00000  Uiso   1.00
C94    C     0.87614   0.40836   0.38372   0.00000  Uiso   1.00
C95    C     0.91878   0.43139   0.34085   0.00000  Uiso   1.00
C96    C     0.95501   0.37336   0.31418   0.00000  Uiso   1.00
C97    C     0.02466   0.30181   0.25787   0.00000  Uiso   1.00
C98    C     0.76146   0.43143   0.41126   0.00000  Uiso   1.00
C99    C     0.70768   0.47386   0.39157   0.00000  Uiso   1.00
C100   C     0.64737   0.43524   0.38810   0.00000  Uiso   1.00
C101   C     0.53896   0.39952   0.37460   0.00000  Uiso   1.00
C102   C     0.85016   0.44782   0.48009   0.00000  Uiso   1.00
C103   C     0.87096   0.50404   0.51827   0.00000  Uiso   1.00
C104   C     0.88532   0.47923   0.57275   0.00000  Uiso   1.00
C105   C     0.91464   0.46896   0.66611   0.00000  Uiso   1.00
C106   C     0.82039   0.31809   0.44729   0.00000  Uiso   1.00
C107   C     0.86989   0.33014   0.39939   0.00000  Uiso   1.00
C108   C     0.90607   0.27206   0.37278   0.00000  Uiso   1.00
C109   C     0.94876   0.29500   0.32989   0.00000  Uiso   1.00
C110   C     0.75521   0.35321   0.42694   0.00000  Uiso   1.00
C111   C     0.69497   0.31452   0.42350   0.00000  Uiso   1.00
C112   C     0.64112   0.35688   0.40380   0.00000  Uiso   1.00
C113   C     0.84392   0.36960   0.49577   0.00000  Uiso   1.00
C114   C     0.85825   0.34470   0.55020   0.00000  Uiso   1.00
C115   C     0.87906   0.40087   0.58846   0.00000  Uiso   1.00
H116   H     0.83673   0.52300   0.40623   0.00000  Uiso   1.00
H117   H     0.92359   0.49194   0.32873   0.00000  Uiso   1.00
H118   H     0.71252   0.53439   0.37945   0.00000  Uiso   1.00
H119   H     0.87578   0.56457   0.50613   0.00000  Uiso   1.00
H120   H     0.01713   0.42299   0.24971   0.00000  Uiso   1.00
H121   H     0.57207   0.51252   0.35666   0.00000  Uiso   1.00
H122   H     0.91632   0.57615   0.62380   0.00000  Uiso   1.00
H123   H     0.81553   0.25719   0.45950   0.00000  Uiso   1.00
H124   H     0.90123   0.21153   0.38492   0.00000  Uiso   1.00
H125   H     0.69016   0.25399   0.43564   0.00000  Uiso   1.00
H126   H     0.85341   0.28416   0.56232   0.00000  Uiso   1.00
H127   H     0.99897   0.19541   0.29531   0.00000  Uiso   1.00
H128   H     0.55391   0.28494   0.40227   0.00000  Uiso   1.00
H129   H     0.89817   0.34857   0.66940   0.00000  Uiso   1.00
O130   O     0.06479   0.28396   0.22248   0.00000  Uiso   1.00
O131   O     0.48089   0.40143   0.36281   0.00000  Uiso   1.00
O132   O     0.93255   0.48490   0.71328   0.00000  Uiso   1.00
N133   N     0.00110   0.37570   0.27068   0.00000  Uiso   1.00
N134   N     0.58500   0.45940   0.37067   0.00000  Uiso   1.00
N135   N     0.90683   0.51889   0.62042   0.00000  Uiso   1.00
N136   N     0.99133   0.25323   0.29522   0.00000  Uiso   1.00
N137   N     0.57523   0.33694   0.39521   0.00000  Uiso   1.00
N138   N     0.89707   0.39643   0.64496   0.00000  Uiso   1.00
C139   C     0.33188   0.96210   0.91843   0.00000  Uiso   1.00
C140   C     0.37614   0.90836   0.88372   0.00000  Uiso   1.00
C141   C     0.41878   0.93139   0.84085   0.00000  Uiso   1.00
C142   C     0.45501   0.87336   0.81418   0.00000  Uiso   1.00
C143   C     0.52466   0.80181   0.75787   0.00000  Uiso   1.00
C144   C     0.26146   0.93143   0.91126   0.00000  Uiso   1.00
C145   C     0.20768   0.97386   0.89157   0.00000  Uiso   1.00
C146   C     0.14737   0.93524   0.88810   0.00000  Uiso   1.00
C147   C     0.03896   0.89952   0.87460   0.00000  Uiso   1.00
C148   C     0.35016   0.94782   0.98009   0.00000  Uiso   1.00
C149   C     0.37096   0.00404   0.01827   0.00000  Uiso   1.00
C150   C     0.38532   0.97923   0.07275   0.00000  Uiso   1.00
C151   C     0.41464   0.96896   0.16611   0.00000  Uiso   1.00
C152   C     0.32039   0.81809   0.94729   0.00000  Uiso   1.00
C153   C     0.36989   0.83014   0.89939   0.00000  Uiso   1.00
C154   C     0.40607   0.77206   0.87278   0.00000  Uiso   1.00
C155   C     0.44876   0.79500   0.82989   0.00000  Uiso   1.00
C156   C     0.25521   0.85321   0.92694   0.00000  Uiso   1.00
C157   C     0.19497   0.81452   0.92350   0.00000  Uiso   1.00
C158   C     0.14112   0.85688   0.90380   0.00000  Uiso   1.00
C159   C     0.34392   0.86960   0.99577   0.00000  Uiso   1.00
C160   C     0.35825   0.84470   0.05020   0.00000  Uiso   1.00
C161   C     0.37906   0.90087   0.08846   0.00000  Uiso   1.00
H162   H     0.33673   0.02300   0.90623   0.00000  Uiso   1.00
H163   H     0.42359   0.99194   0.82873   0.00000  Uiso   1.00
H164   H     0.21252   0.03439   0.87945   0.00000  Uiso   1.00
H165   H     0.37578   0.06457   0.00613   0.00000  Uiso   1.00
H166   H     0.51713   0.92299   0.74971   0.00000  Uiso   1.00
H167   H     0.07207   0.01252   0.85666   0.00000  Uiso   1.00
H168   H     0.41632   0.07615   0.12380   0.00000  Uiso   1.00
H169   H     0.31553   0.75719   0.95950   0.00000  Uiso   1.00
H170   H     0.40123   0.71153   0.88492   0.00000  Uiso   1.00
H171   H     0.19016   0.75399   0.93564   0.00000  Uiso   1.00
H172   H     0.35341   0.78416   0.06232   0.00000  Uiso   1.00
H173   H     0.49897   0.69541   0.79531   0.00000  Uiso   1.00
H174   H     0.05391   0.78494   0.90227   0.00000  Uiso   1.00
H175   H     0.39817   0.84857   0.16940   0.00000  Uiso   1.00
O176   O     0.56479   0.78396   0.72248   0.00000  Uiso   1.00
O177   O     0.98089   0.90143   0.86281   0.00000  Uiso   1.00
O178   O     0.43255   0.98490   0.21328   0.00000  Uiso   1.00
N179   N     0.50110   0.87570   0.77068   0.00000  Uiso   1.00
N180   N     0.08500   0.95940   0.87067   0.00000  Uiso   1.00
N181   N     0.40683   0.01889   0.12042   0.00000  Uiso   1.00
N182   N     0.49133   0.75323   0.79522   0.00000  Uiso   1.00
N183   N     0.07523   0.83694   0.89521   0.00000  Uiso   1.00
N184   N     0.39707   0.89643   0.14496   0.00000  Uiso   1.00
C185   C     0.66812   0.96210   0.41843   0.00000  Uiso   1.00
C186   C     0.62386   0.90836   0.38372   0.00000  Uiso   1.00
C187   C     0.58122   0.93139   0.34085   0.00000  Uiso   1.00
C188   C     0.54499   0.87336   0.31418   0.00000  Uiso   1.00
C189   C     0.47534   0.80181   0.25787   0.00000  Uiso   1.00
C190   C     0.73854   0.93143   0.41126   0.00000  Uiso   1.00
C191   C     0.79232   0.97386   0.39157   0.00000  Uiso   1.00
C192   C     0.85263   0.93524   0.38810   0.00000  Uiso   1.00
C193   C     0.96104   0.89952   0.37460   0.00000  Uiso   1.00
C194   C     0.64984   0.94782   0.48009   0.00000  Uiso   1.00
C195   C     0.62904   0.00404   0.51827   0.00000  Uiso   1.00
C196   C     0.61468   0.97923   0.57275   0.00000  Uiso   1.00
C197   C     0.58536   0.96896   0.66611   0.00000  Uiso   1.00
C198   C     0.67961   0.81809   0.44729   0.00000  Uiso   1.00
C199   C     0.63011   0.83014   0.39939   0.00000  Uiso   1.00
C200   C     0.59393   0.77206   0.37278   0.00000  Uiso   1.00
C201   C     0.55124   0.79500   0.32989   0.00000  Uiso   1.00
C202   C     0.74479   0.85321   0.42694   0.00000  Uiso   1.00
C203   C     0.80503   0.81452   0.42350   0.00000  Uiso   1.00
C204   C     0.85888   0.85688   0.40380   0.00000  Uiso   1.00
C205   C     0.65608   0.86960   0.49577   0.00000  Uiso   1.00
C206   C     0.64175   0.84470   0.55020   0.00000  Uiso   1.00
C207   C     0.62094   0.90087   0.58846   0.00000  Uiso   1.00
H208   H     0.66327   0.02300   0.40623   0.00000  Uiso   1.00
H209   H     0.57641   0.99194   0.32873   0.00000  Uiso   1.00
H210   H     0.78748   0.03439   0.37945   0.00000  Uiso   1.00
H211   H     0.62422   0.06457   0.50613   0.00000  Uiso   1.00
H212   H     0.48287   0.92299   0.24971   0.00000  Uiso   1.00
H213   H     0.92793   0.01252   0.35666   0.00000  Uiso   1.00
H214   H     0.58368   0.07615   0.62380   0.00000  Uiso   1.00
H215   H     0.68447   0.75719   0.45950   0.00000  Uiso   1.00
H216   H     0.59877   0.71153   0.38492   0.00000  Uiso   1.00
H217   H     0.80984   0.75399   0.43564   0.00000  Uiso   1.00
H218   H     0.64659   0.78416   0.56232   0.00000  Uiso   1.00
H219   H     0.50103   0.69541   0.29531   0.00000  Uiso   1.00
H220   H     0.94609   0.78494   0.40227   0.00000  Uiso   1.00
H221   H     0.60183   0.84857   0.66940   0.00000  Uiso   1.00
O222   O     0.43521   0.78396   0.22248   0.00000  Uiso   1.00
O223   O     0.01911   0.90143   0.36281   0.00000  Uiso   1.00
O224   O     0.56745   0.98490   0.71328   0.00000  Uiso   1.00
N225   N     0.49890   0.87570   0.27068   0.00000  Uiso   1.00
N226   N     0.91500   0.95940   0.37067   0.00000  Uiso   1.00
N227   N     0.59317   0.01889   0.62042   0.00000  Uiso   1.00
N228   N     0.50867   0.75323   0.29522   0.00000  Uiso   1.00
N229   N     0.92477   0.83694   0.39521   0.00000  Uiso   1.00
N230   N     0.60293   0.89643   0.64496   0.00000  Uiso   1.00
C231   C     0.16812   0.46210   0.91843   0.00000  Uiso   1.00
C232   C     0.12386   0.40836   0.88372   0.00000  Uiso   1.00
C233   C     0.08122   0.43139   0.84085   0.00000  Uiso   1.00
C234   C     0.04499   0.37336   0.81418   0.00000  Uiso   1.00
C235   C     0.97534   0.30181   0.75787   0.00000  Uiso   1.00
C236   C     0.23854   0.43143   0.91126   0.00000  Uiso   1.00
C237   C     0.29232   0.47386   0.89157   0.00000  Uiso   1.00
C238   C     0.35263   0.43524   0.88810   0.00000  Uiso   1.00
C239   C     0.46104   0.39952   0.87460   0.00000  Uiso   1.00
C240   C     0.14984   0.44782   0.98009   0.00000  Uiso   1.00
C241   C     0.12904   0.50404   0.01827   0.00000  Uiso   1.00
C242   C     0.11468   0.47923   0.07275   0.00000  Uiso   1.00
C243   C     0.08536   0.46896   0.16611   0.00000  Uiso   1.00
C244   C     0.17961   0.31809   0.94729   0.00000  Uiso   1.00
C245   C     0.13011   0.33014   0.89939   0.00000  Uiso   1.00
C246   C     0.09393   0.27206   0.87278   0.00000  Uiso   1.00
C247   C     0.05124   0.29500   0.82989   0.00000  Uiso   1.00
C248   C     0.24479   0.35321   0.92694   0.00000  Uiso   1.00
C249   C     0.30503   0.31452   0.92350   0.00000  Uiso   1.00
C250   C     0.35888   0.35688   0.90380   0.00000  Uiso   1.00
C251   C     0.15608   0.36960   0.99577   0.00000  Uiso   1.00
C252   C     0.14175   0.34470   0.05020   0.00000  Uiso   1.00
C253   C     0.12094   0.40087   0.08846   0.00000  Uiso   1.00
H254   H     0.16327   0.52300   0.90623   0.00000  Uiso   1.00
H255   H     0.07641   0.49194   0.82873   0.00000  Uiso   1.00
H256   H     0.28748   0.53439   0.87945   0.00000  Uiso   1.00
H257   H     0.12422   0.56457   0.00613   0.00000  Uiso   1.00
H258   H     0.98287   0.42299   0.74971   0.00000  Uiso   1.00
H259   H     0.42793   0.51252   0.85666   0.00000  Uiso   1.00
H260   H     0.08368   0.57615   0.12380   0.00000  Uiso   1.00
H261   H     0.18447   0.25719   0.95950   0.00000  Uiso   1.00
H262   H     0.09877   0.21153   0.88492   0.00000  Uiso   1.00
H263   H     0.30984   0.25399   0.93564   0.00000  Uiso   1.00
H264   H     0.14659   0.28416   0.06232   0.00000  Uiso   1.00
H265   H     0.00103   0.19541   0.79531   0.00000  Uiso   1.00
H266   H     0.44609   0.28494   0.90227   0.00000  Uiso   1.00
H267   H     0.10183   0.34857   0.16940   0.00000  Uiso   1.00
O268   O     0.93521   0.28396   0.72248   0.00000  Uiso   1.00
O269   O     0.51911   0.40143   0.86281   0.00000  Uiso   1.00
O270   O     0.06745   0.48490   0.21328   0.00000  Uiso   1.00
N271   N     0.99890   0.37570   0.77068   0.00000  Uiso   1.00
N272   N     0.41500   0.45940   0.87067   0.00000  Uiso   1.00
N273   N     0.09317   0.51889   0.12042   0.00000  Uiso   1.00
N274   N     0.00867   0.25323   0.79522   0.00000  Uiso   1.00
N275   N     0.42477   0.33694   0.89521   0.00000  Uiso   1.00
N276   N     0.10293   0.39643   0.14496   0.00000  Uiso   1.00
C277   C     0.33188   0.03790   0.41843   0.00000  Uiso   1.00
C278   C     0.37614   0.09164   0.38372   0.00000  Uiso   1.00
C279   C     0.41878   0.06861   0.34085   0.00000  Uiso   1.00
C280   C     0.45501   0.12664   0.31418   0.00000  Uiso   1.00
C281   C     0.52466   0.19819   0.25787   0.00000  Uiso   1.00
C282   C     0.26146   0.06857   0.41126   0.00000  Uiso   1.00
C283   C     0.20768   0.02614   0.39157   0.00000  Uiso   1.00
C284   C     0.14737   0.06476   0.38810   0.00000  Uiso   1.00
C285   C     0.03896   0.10048   0.37460   0.00000  Uiso   1.00
C286   C     0.35016   0.05218   0.48009   0.00000  Uiso   1.00
C287   C     0.37096   0.99596   0.51827   0.00000  Uiso   1.00
C288   C     0.38532   0.02077   0.57275   0.00000  Uiso   1.00
C289   C     0.41464   0.03104   0.66611   0.00000  Uiso   1.00
C290   C     0.32039   0.18191   0.44729   0.00000  Uiso   1.00
C291   C     0.36989   0.16986   0.39939   0.00000  Uiso   1.00
C292   C     0.40607   0.22794   0.37278   0.00000  Uiso   1.00
C293   C     0.44876   0.20500   0.32989   0.00000  Uiso   1.00
C294   C     0.25521   0.14679   0.42694   0.00000  Uiso   1.00
C295   C     0.19497   0.18548   0.42350   0.00000  Uiso   1.00
C296   C     0.14112   0.14312   0.40380   0.00000  Uiso   1.00
C297   C     0.34392   0.13040   0.49577   0.00000  Uiso   1.00
C298   C     0.35825   0.15530   0.55020   0.00000  Uiso   1.00
C299   C     0.37906   0.09913   0.58846   0.00000  Uiso   1.00
H300   H     0.33673   0.97700   0.40623   0.00000  Uiso   1.00
H301   H     0.42359   0.00806   0.32873   0.00000  Uiso   1.00
H302   H     0.21252   0.96561   0.37945   0.00000  Uiso   1.00
H303   H     0.37578   0.93543   0.50613   0.00000  Uiso   1.00
H304   H     0.51713   0.07701   0.24971   0.00000  Uiso   1.00
H305   H     0.07207   0.98748   0.35666   0.00000  Uiso   1.00
H306   H     0.41632   0.92385   0.62380   0.00000  Uiso   1.00
H307   H     0.31553   0.24281   0.45950   0.00000  Uiso   1.00
H308   H     0.40123   0.28847   0.38492   0.00000  Uiso   1.00
H309   H     0.19016   0.24601   0.43564   0.00000  Uiso   1.00
H310   H     0.35341   0.21584   0.56232   0.00000  Uiso   1.00
H311   H     0.49897   0.30459   0.29531   0.00000  Uiso   1.00
H312   H     0.05391   0.21506   0.40227   0.00000  Uiso   1.00
H313   H     0.39817   0.15143   0.66940   0.00000  Uiso   1.00
O314   O     0.56479   0.21604   0.22248   0.00000  Uiso   1.00
O315   O     0.98089   0.09857   0.36281   0.00000  Uiso   1.00
O316   O     0.43255   0.01510   0.71328   0.00000  Uiso   1.00
N317   N     0.50110   0.12430   0.27068   0.00000  Uiso   1.00
N318   N     0.08500   0.04060   0.37067   0.00000  Uiso   1.00
N319   N     0.40683   0.98111   0.62042   0.00000  Uiso   1.00
N320   N     0.49133   0.24677   0.29522   0.00000  Uiso   1.00
N321   N     0.07523   0.16306   0.39521   0.00000  Uiso   1.00
N322   N     0.39707   0.10357   0.64496   0.00000  Uiso   1.00
C323   C     0.83188   0.53790   0.91843   0.00000  Uiso   1.00
C324   C     0.87614   0.59164   0.88372   0.00000  Uiso   1.00
C325   C     0.91878   0.56861   0.84085   0.00000  Uiso   1.00
C326   C     0.95501   0.62664   0.81418   0.00000  Uiso   1.00
C327   C     0.02466   0.69819   0.75787   0.00000  Uiso   1.00
C328   C     0.76146   0.56857   0.91126   0.00000  Uiso   1.00
C329   C     0.70768   0.52614   0.89157   0.00000  Uiso   1.00
C330   C     0.64737   0.56476   0.88810   0.00000  Uiso   1.00
C331   C     0.53896   0.60048   0.87460   0.00000  Uiso   1.00
C332   C     0.85016   0.55218   0.98009   0.00000  Uiso   1.00
C333   C     0.87096   0.49596   0.01827   0.00000  Uiso   1.00
C334   C     0.88532   0.52077   0.07275   0.00000  Uiso   1.00
C335   C     0.91464   0.53104   0.16611   0.00000  Uiso   1.00
C336   C     0.82039   0.68191   0.94729   0.00000  Uiso   1.00
C337   C     0.86989   0.66986   0.89939   0.00000  Uiso   1.00
C338   C     0.90607   0.72794   0.87278   0.00000  Uiso   1.00
C339   C     0.94876   0.70500   0.82989   0.00000  Uiso   1.00
C340   C     0.75521   0.64679   0.92694   0.00000  Uiso   1.00
C341   C     0.69497   0.68548   0.92350   0.00000  Uiso   1.00
C342   C     0.64112   0.64312   0.90380   0.00000  Uiso   1.00
C343   C     0.84392   0.63040   0.99577   0.00000  Uiso   1.00
C344   C     0.85825   0.65530   0.05020   0.00000  Uiso   1.00
C345   C     0.87906   0.59913   0.08846   0.00000  Uiso   1.00
H346   H     0.83673   0.47700   0.90623   0.00000  Uiso   1.00
H347   H     0.92359   0.50806   0.82873   0.00000  Uiso   1.00
H348   H     0.71252   0.46561   0.87945   0.00000  Uiso   1.00
H349   H     0.87578   0.43543   0.00613   0.00000  Uiso   1.00
H350   H     0.01713   0.57701   0.74971   0.00000  Uiso   1.00
H351   H     0.57207   0.48748   0.85666   0.00000  Uiso   1.00
H352   H     0.91632   0.42385   0.12380   0.00000  Uiso   1.00
H353   H     0.81553   0.74281   0.95950   0.00000  Uiso   1.00
H354   H     0.90123   0.78847   0.88492   0.00000  Uiso   1.00
H355   H     0.69016   0.74601   0.93564   0.00000  Uiso   1.00
H356   H     0.85341   0.71584   0.06232   0.00000  Uiso   1.00
H357   H     0.99897   0.80459   0.79531   0.00000  Uiso   1.00
H358   H     0.55391   0.71506   0.90227   0.00000  Uiso   1.00
H359   H     0.89817   0.65143   0.16940   0.00000  Uiso   1.00
O360   O     0.06479   0.71604   0.72248   0.00000  Uiso   1.00
O361   O     0.48089   0.59857   0.86281   0.00000  Uiso   1.00
O362   O     0.93255   0.51510   0.21328   0.00000  Uiso   1.00
N363   N     0.00110   0.62430   0.77068   0.00000  Uiso   1.00
N364   N     0.58500   0.54060   0.87067   0.00000  Uiso   1.00
N365   N     0.90683   0.48111   0.12042   0.00000  Uiso   1.00
N366   N     0.99133   0.74677   0.79522   0.00000  Uiso   1.00
N367   N     0.57523   0.66306   0.89521   0.00000  Uiso   1.00
N368   N     0.89707   0.60357   0.14496   0.00000  Uiso   1.00
