data_job_01812
_audit_creation_date              2018-12-19
_audit_creation_method            'Materials Studio'
_symmetry_space_group_name_H-M    'P1'
_symmetry_Int_Tables_number       1
_symmetry_cell_setting            triclinic
loop_
_symmetry_equiv_pos_as_xyz
  x,y,z
_cell_length_a                    12.2820
_cell_length_b                    13.5131
_cell_length_c                    14.3980
_cell_angle_alpha                 90.0000
_cell_angle_beta                  90.0000
_cell_angle_gamma                 90.0000
loop_
_atom_site_label
_atom_site_type_symbol
_atom_site_fract_x
_atom_site_fract_y
_atom_site_fract_z
_atom_site_U_iso_or_equiv
_atom_site_adp_type
_atom_site_occupancy
C1     C     0.83441   0.84160   0.25483   0.00000  Uiso   1.00
C2     C     0.75779   0.75901   0.28544   0.00000  Uiso   1.00
C3     C     0.66504   0.77083   0.33937   0.00000  Uiso   1.00
C4     C     0.60585   0.68607   0.35987   0.00000  Uiso   1.00
C5     C     0.48197   0.57200   0.41236   0.00000  Uiso   1.00
C6     C     0.94730   0.81212   0.28917   0.00000  Uiso   1.00
C7     C     0.01389   0.86861   0.34622   0.00000  Uiso   1.00
C8     C     0.11424   0.82855   0.36985   0.00000  Uiso   1.00
C9     C     0.28459   0.79697   0.42807   0.00000  Uiso   1.00
C10    C     0.83915   0.83610   0.14913   0.00000  Uiso   1.00
C11    C     0.81484   0.91275   0.08842   0.00000  Uiso   1.00
C12    C     0.82416   0.89289   0.99414   0.00000  Uiso   1.00
C13    C     0.82660   0.89853   0.83491   0.00000  Uiso   1.00
C14    C     0.89423   0.67004   0.19535   0.00000  Uiso   1.00
C15    C     0.79028   0.66583   0.25314   0.00000  Uiso   1.00
C16    C     0.73122   0.58102   0.27356   0.00000  Uiso   1.00
C17    C     0.63840   0.59272   0.32750   0.00000  Uiso   1.00
C18    C     0.97979   0.71894   0.25687   0.00000  Uiso   1.00
C19    C     0.08006   0.67880   0.28041   0.00000  Uiso   1.00
C20    C     0.14679   0.73520   0.33749   0.00000  Uiso   1.00
C21    C     0.87164   0.74291   0.11682   0.00000  Uiso   1.00
C22    C     0.88101   0.72293   0.02261   0.00000  Uiso   1.00
C23    C     0.85671   0.79953   0.96177   0.00000  Uiso   1.00
H24    H     0.80913   0.91415   0.27999   0.00000  Uiso   1.00
H25    H     0.63993   0.84296   0.36436   0.00000  Uiso   1.00
H26    H     0.98873   0.94072   0.37120   0.00000  Uiso   1.00
H27    H     0.78970   0.98485   0.11344   0.00000  Uiso   1.00
H28    H     0.46670   0.72293   0.44369   0.00000  Uiso   1.00
H29    H     0.20217   0.92908   0.45809   0.00000  Uiso   1.00
H30    H     0.78249   0.02214   0.91455   0.00000  Uiso   1.00
H31    H     0.91953   0.59749   0.17020   0.00000  Uiso   1.00
H32    H     0.75638   0.50892   0.24855   0.00000  Uiso   1.00
H33    H     0.10518   0.60668   0.25540   0.00000  Uiso   1.00
H34    H     0.90615   0.65081   0.99764   0.00000  Uiso   1.00
H35    H     0.56122   0.45182   0.34970   0.00000  Uiso   1.00
H36    H     0.29669   0.65797   0.36410   0.00000  Uiso   1.00
H37    H     0.87700   0.75102   0.82056   0.00000  Uiso   1.00
O38    O     0.40466   0.53482   0.45024   0.00000  Uiso   1.00
O39    O     0.36958   0.80529   0.46912   0.00000  Uiso   1.00
O40    O     0.81896   0.92738   0.75601   0.00000  Uiso   1.00
N41    N     0.51132   0.67128   0.41080   0.00000  Uiso   1.00
N42    N     0.19893   0.86401   0.42428   0.00000  Uiso   1.00
N43    N     0.80659   0.95102   0.91611   0.00000  Uiso   1.00
N44    N     0.56218   0.52540   0.36022   0.00000  Uiso   1.00
N45    N     0.24979   0.71813   0.37370   0.00000  Uiso   1.00
N46    N     0.85745   0.80514   0.86554   0.00000  Uiso   1.00
C47    C     0.66559   0.15840   0.75483   0.00000  Uiso   1.00
C48    C     0.74221   0.24099   0.78544   0.00000  Uiso   1.00
C49    C     0.83496   0.22917   0.83937   0.00000  Uiso   1.00
C50    C     0.89415   0.31393   0.85987   0.00000  Uiso   1.00
C51    C     0.01803   0.42800   0.91236   0.00000  Uiso   1.00
C52    C     0.55270   0.18788   0.78917   0.00000  Uiso   1.00
C53    C     0.48611   0.13139   0.84622   0.00000  Uiso   1.00
C54    C     0.38576   0.17145   0.86985   0.00000  Uiso   1.00
C55    C     0.21541   0.20303   0.92807   0.00000  Uiso   1.00
C56    C     0.66085   0.16390   0.64913   0.00000  Uiso   1.00
C57    C     0.68516   0.08725   0.58842   0.00000  Uiso   1.00
C58    C     0.67584   0.10711   0.49414   0.00000  Uiso   1.00
C59    C     0.67340   0.10147   0.33491   0.00000  Uiso   1.00
C60    C     0.60577   0.32996   0.69535   0.00000  Uiso   1.00
C61    C     0.70972   0.33417   0.75314   0.00000  Uiso   1.00
C62    C     0.76878   0.41898   0.77356   0.00000  Uiso   1.00
C63    C     0.86160   0.40728   0.82750   0.00000  Uiso   1.00
C64    C     0.52021   0.28106   0.75687   0.00000  Uiso   1.00
C65    C     0.41994   0.32120   0.78041   0.00000  Uiso   1.00
C66    C     0.35321   0.26480   0.83749   0.00000  Uiso   1.00
C67    C     0.62836   0.25709   0.61682   0.00000  Uiso   1.00
C68    C     0.61899   0.27707   0.52261   0.00000  Uiso   1.00
C69    C     0.64329   0.20047   0.46177   0.00000  Uiso   1.00
H70    H     0.69087   0.08585   0.77999   0.00000  Uiso   1.00
H71    H     0.86007   0.15704   0.86436   0.00000  Uiso   1.00
H72    H     0.51127   0.05928   0.87120   0.00000  Uiso   1.00
H73    H     0.71030   0.01515   0.61344   0.00000  Uiso   1.00
H74    H     0.03330   0.27707   0.94369   0.00000  Uiso   1.00
H75    H     0.29783   0.07092   0.95809   0.00000  Uiso   1.00
H76    H     0.71751   0.97786   0.41455   0.00000  Uiso   1.00
H77    H     0.58047   0.40251   0.67020   0.00000  Uiso   1.00
H78    H     0.74362   0.49108   0.74855   0.00000  Uiso   1.00
H79    H     0.39482   0.39332   0.75540   0.00000  Uiso   1.00
H80    H     0.59385   0.34919   0.49764   0.00000  Uiso   1.00
H81    H     0.93878   0.54818   0.84970   0.00000  Uiso   1.00
H82    H     0.20331   0.34203   0.86410   0.00000  Uiso   1.00
H83    H     0.62300   0.24898   0.32056   0.00000  Uiso   1.00
O84    O     0.09534   0.46518   0.95024   0.00000  Uiso   1.00
O85    O     0.13042   0.19471   0.96912   0.00000  Uiso   1.00
O86    O     0.68104   0.07262   0.25601   0.00000  Uiso   1.00
N87    N     0.98868   0.32872   0.91080   0.00000  Uiso   1.00
N88    N     0.30107   0.13599   0.92428   0.00000  Uiso   1.00
N89    N     0.69341   0.04898   0.41611   0.00000  Uiso   1.00
N90    N     0.93782   0.47460   0.86022   0.00000  Uiso   1.00
N91    N     0.25021   0.28187   0.87370   0.00000  Uiso   1.00
N92    N     0.64255   0.19486   0.36554   0.00000  Uiso   1.00
C93    C     0.16559   0.34160   0.24517   0.00000  Uiso   1.00
C94    C     0.24221   0.25901   0.21456   0.00000  Uiso   1.00
C95    C     0.33496   0.27083   0.16063   0.00000  Uiso   1.00
C96    C     0.39415   0.18607   0.14013   0.00000  Uiso   1.00
C97    C     0.51803   0.07200   0.08764   0.00000  Uiso   1.00
C98    C     0.05270   0.31212   0.21083   0.00000  Uiso   1.00
C99    C     0.98611   0.36861   0.15378   0.00000  Uiso   1.00
C100   C     0.88576   0.32855   0.13015   0.00000  Uiso   1.00
C101   C     0.71541   0.29697   0.07193   0.00000  Uiso   1.00
C102   C     0.16085   0.33610   0.35087   0.00000  Uiso   1.00
C103   C     0.18516   0.41275   0.41158   0.00000  Uiso   1.00
C104   C     0.17584   0.39289   0.50586   0.00000  Uiso   1.00
C105   C     0.17340   0.39853   0.66509   0.00000  Uiso   1.00
C106   C     0.10577   0.17004   0.30465   0.00000  Uiso   1.00
C107   C     0.20972   0.16583   0.24686   0.00000  Uiso   1.00
C108   C     0.26878   0.08102   0.22644   0.00000  Uiso   1.00
C109   C     0.36160   0.09272   0.17250   0.00000  Uiso   1.00
C110   C     0.02021   0.21894   0.24313   0.00000  Uiso   1.00
C111   C     0.91994   0.17880   0.21959   0.00000  Uiso   1.00
C112   C     0.85321   0.23520   0.16251   0.00000  Uiso   1.00
C113   C     0.12836   0.24291   0.38318   0.00000  Uiso   1.00
C114   C     0.11899   0.22293   0.47739   0.00000  Uiso   1.00
C115   C     0.14329   0.29953   0.53823   0.00000  Uiso   1.00
H116   H     0.19087   0.41415   0.22001   0.00000  Uiso   1.00
H117   H     0.36007   0.34296   0.13564   0.00000  Uiso   1.00
H118   H     0.01127   0.44072   0.12880   0.00000  Uiso   1.00
H119   H     0.21030   0.48485   0.38656   0.00000  Uiso   1.00
H120   H     0.53330   0.22293   0.05631   0.00000  Uiso   1.00
H121   H     0.79783   0.42908   0.04191   0.00000  Uiso   1.00
H122   H     0.21751   0.52214   0.58545   0.00000  Uiso   1.00
H123   H     0.08047   0.09749   0.32980   0.00000  Uiso   1.00
H124   H     0.24362   0.00892   0.25145   0.00000  Uiso   1.00
H125   H     0.89482   0.10668   0.24460   0.00000  Uiso   1.00
H126   H     0.09385   0.15081   0.50236   0.00000  Uiso   1.00
H127   H     0.43878   0.95182   0.15030   0.00000  Uiso   1.00
H128   H     0.70331   0.15797   0.13590   0.00000  Uiso   1.00
H129   H     0.12300   0.25102   0.67944   0.00000  Uiso   1.00
O130   O     0.59534   0.03482   0.04976   0.00000  Uiso   1.00
O131   O     0.63042   0.30529   0.03088   0.00000  Uiso   1.00
O132   O     0.18104   0.42738   0.74399   0.00000  Uiso   1.00
N133   N     0.48868   0.17128   0.08920   0.00000  Uiso   1.00
N134   N     0.80107   0.36401   0.07572   0.00000  Uiso   1.00
N135   N     0.19341   0.45102   0.58389   0.00000  Uiso   1.00
N136   N     0.43782   0.02540   0.13978   0.00000  Uiso   1.00
N137   N     0.75021   0.21813   0.12630   0.00000  Uiso   1.00
N138   N     0.14255   0.30514   0.63446   0.00000  Uiso   1.00
C139   C     0.33441   0.65840   0.74517   0.00000  Uiso   1.00
C140   C     0.25779   0.74099   0.71456   0.00000  Uiso   1.00
C141   C     0.16504   0.72917   0.66063   0.00000  Uiso   1.00
C142   C     0.10585   0.81393   0.64013   0.00000  Uiso   1.00
C143   C     0.98197   0.92800   0.58764   0.00000  Uiso   1.00
C144   C     0.44730   0.68788   0.71083   0.00000  Uiso   1.00
C145   C     0.51389   0.63139   0.65378   0.00000  Uiso   1.00
C146   C     0.61424   0.67145   0.63015   0.00000  Uiso   1.00
C147   C     0.78459   0.70303   0.57193   0.00000  Uiso   1.00
C148   C     0.33915   0.66390   0.85087   0.00000  Uiso   1.00
C149   C     0.31484   0.58725   0.91158   0.00000  Uiso   1.00
C150   C     0.32416   0.60711   0.00586   0.00000  Uiso   1.00
C151   C     0.32660   0.60147   0.16509   0.00000  Uiso   1.00
C152   C     0.39423   0.82996   0.80465   0.00000  Uiso   1.00
C153   C     0.29028   0.83417   0.74686   0.00000  Uiso   1.00
C154   C     0.23122   0.91898   0.72644   0.00000  Uiso   1.00
C155   C     0.13840   0.90728   0.67250   0.00000  Uiso   1.00
C156   C     0.47979   0.78106   0.74313   0.00000  Uiso   1.00
C157   C     0.58006   0.82120   0.71959   0.00000  Uiso   1.00
C158   C     0.64679   0.76480   0.66251   0.00000  Uiso   1.00
C159   C     0.37164   0.75709   0.88318   0.00000  Uiso   1.00
C160   C     0.38101   0.77707   0.97739   0.00000  Uiso   1.00
C161   C     0.35671   0.70047   0.03823   0.00000  Uiso   1.00
H162   H     0.30913   0.58585   0.72001   0.00000  Uiso   1.00
H163   H     0.13993   0.65704   0.63564   0.00000  Uiso   1.00
H164   H     0.48873   0.55928   0.62880   0.00000  Uiso   1.00
H165   H     0.28970   0.51515   0.88656   0.00000  Uiso   1.00
H166   H     0.96670   0.77707   0.55631   0.00000  Uiso   1.00
H167   H     0.70217   0.57092   0.54191   0.00000  Uiso   1.00
H168   H     0.28249   0.47786   0.08545   0.00000  Uiso   1.00
H169   H     0.41953   0.90251   0.82980   0.00000  Uiso   1.00
H170   H     0.25638   0.99108   0.75145   0.00000  Uiso   1.00
H171   H     0.60518   0.89332   0.74460   0.00000  Uiso   1.00
H172   H     0.40615   0.84919   0.00236   0.00000  Uiso   1.00
H173   H     0.06122   0.04818   0.65030   0.00000  Uiso   1.00
H174   H     0.79669   0.84203   0.63590   0.00000  Uiso   1.00
H175   H     0.37700   0.74898   0.17944   0.00000  Uiso   1.00
O176   O     0.90466   0.96518   0.54976   0.00000  Uiso   1.00
O177   O     0.86958   0.69471   0.53088   0.00000  Uiso   1.00
O178   O     0.31896   0.57262   0.24399   0.00000  Uiso   1.00
N179   N     0.01132   0.82872   0.58920   0.00000  Uiso   1.00
N180   N     0.69893   0.63599   0.57572   0.00000  Uiso   1.00
N181   N     0.30659   0.54898   0.08389   0.00000  Uiso   1.00
N182   N     0.06218   0.97460   0.63978   0.00000  Uiso   1.00
N183   N     0.74979   0.78187   0.62630   0.00000  Uiso   1.00
N184   N     0.35745   0.69486   0.13446   0.00000  Uiso   1.00
