data_job_04857
_audit_creation_date              2018-12-19
_audit_creation_method            'Materials Studio'
_symmetry_space_group_name_H-M    'P1'
_symmetry_Int_Tables_number       1
_symmetry_cell_setting            triclinic
loop_
_symmetry_equiv_pos_as_xyz
  x,y,z
_cell_length_a                    10.7278
_cell_length_b                    12.0623
_cell_length_c                    24.0148
_cell_angle_alpha                 90.0000
_cell_angle_beta                  122.0029
_cell_angle_gamma                 90.0000
loop_
_atom_site_label
_atom_site_type_symbol
_atom_site_fract_x
_atom_site_fract_y
_atom_site_fract_z
_atom_site_U_iso_or_equiv
_atom_site_adp_type
_atom_site_occupancy
C1     C     0.99049   0.13164   0.24617   0.00000  Uiso   1.00
C2     C     0.99667   0.20702   0.19671   0.00000  Uiso   1.00
C3     C     0.09932   0.20077   0.17838   0.00000  Uiso   1.00
C4     C     0.08628   0.27730   0.13239   0.00000  Uiso   1.00
C5     C     0.11291   0.38224   0.05967   0.00000  Uiso   1.00
C6     C     0.99668   0.20807   0.29816   0.00000  Uiso   1.00
C7     C     0.09933   0.20269   0.36513   0.00000  Uiso   1.00
C8     C     0.08628   0.28010   0.40454   0.00000  Uiso   1.00
C9     C     0.11287   0.38661   0.48933   0.00000  Uiso   1.00
C10    C     0.83715   0.08058   0.21001   0.00000  Uiso   1.00
C11    C     0.80566   0.96801   0.20287   0.00000  Uiso   1.00
C12    C     0.65828   0.93808   0.16808   0.00000  Uiso   1.00
C13    C     0.43718   0.84665   0.11600   0.00000  Uiso   1.00
C14    C     0.78478   0.27866   0.19709   0.00000  Uiso   1.00
C15    C     0.88494   0.28688   0.17005   0.00000  Uiso   1.00
C16    C     0.87173   0.36344   0.12408   0.00000  Uiso   1.00
C17    C     0.97434   0.35730   0.10568   0.00000  Uiso   1.00
C18    C     0.88496   0.28793   0.27150   0.00000  Uiso   1.00
C19    C     0.87174   0.36536   0.31083   0.00000  Uiso   1.00
C20    C     0.97434   0.36010   0.37783   0.00000  Uiso   1.00
C21    C     0.72541   0.16044   0.18335   0.00000  Uiso   1.00
C22    C     0.57806   0.13068   0.14856   0.00000  Uiso   1.00
C23    C     0.54635   0.01808   0.14137   0.00000  Uiso   1.00
H24    H     0.07748   0.06947   0.26692   0.00000  Uiso   1.00
H25    H     0.18578   0.13896   0.19902   0.00000  Uiso   1.00
H26    H     0.18578   0.14087   0.38574   0.00000  Uiso   1.00
H27    H     0.89215   0.90623   0.22350   0.00000  Uiso   1.00
H28    H     0.25661   0.25126   0.11200   0.00000  Uiso   1.00
H29    H     0.25658   0.25526   0.50571   0.00000  Uiso   1.00
H30    H     0.63740   0.76047   0.16361   0.00000  Uiso   1.00
H31    H     0.69779   0.34084   0.17633   0.00000  Uiso   1.00
H32    H     0.78525   0.42523   0.10346   0.00000  Uiso   1.00
H33    H     0.78525   0.42714   0.29018   0.00000  Uiso   1.00
H34    H     0.49163   0.19250   0.12794   0.00000  Uiso   1.00
H35    H     0.93153   0.48361   0.03444   0.00000  Uiso   1.00
H36    H     0.93149   0.48761   0.42815   0.00000  Uiso   1.00
H37    H     0.31232   0.99282   0.08604   0.00000  Uiso   1.00
O38    O     0.15849   0.41807   0.02693   0.00000  Uiso   1.00
O39    O     0.15843   0.42331   0.54347   0.00000  Uiso   1.00
O40    O     0.34609   0.77417   0.09463   0.00000  Uiso   1.00
N41    N     0.16808   0.29434   0.10374   0.00000  Uiso   1.00
N42    N     0.16807   0.29810   0.47184   0.00000  Uiso   1.00
N43    N     0.58919   0.83552   0.15201   0.00000  Uiso   1.00
N44    N     0.99316   0.41937   0.06200   0.00000  Uiso   1.00
N45    N     0.99314   0.42313   0.43010   0.00000  Uiso   1.00
N46    N     0.41427   0.96054   0.11027   0.00000  Uiso   1.00
C47    C     0.00951   0.63164   0.25383   0.00000  Uiso   1.00
C48    C     0.00333   0.70702   0.30329   0.00000  Uiso   1.00
C49    C     0.90068   0.70077   0.32162   0.00000  Uiso   1.00
C50    C     0.91372   0.77730   0.36761   0.00000  Uiso   1.00
C51    C     0.88709   0.88224   0.44033   0.00000  Uiso   1.00
C52    C     0.00332   0.70807   0.20184   0.00000  Uiso   1.00
C53    C     0.90067   0.70269   0.13487   0.00000  Uiso   1.00
C54    C     0.91372   0.78010   0.09546   0.00000  Uiso   1.00
C55    C     0.88713   0.88661   0.01067   0.00000  Uiso   1.00
C56    C     0.16285   0.58058   0.28999   0.00000  Uiso   1.00
C57    C     0.19434   0.46801   0.29713   0.00000  Uiso   1.00
C58    C     0.34172   0.43808   0.33192   0.00000  Uiso   1.00
C59    C     0.56282   0.34665   0.38400   0.00000  Uiso   1.00
C60    C     0.21522   0.77866   0.30291   0.00000  Uiso   1.00
C61    C     0.11506   0.78688   0.32995   0.00000  Uiso   1.00
C62    C     0.12827   0.86344   0.37592   0.00000  Uiso   1.00
C63    C     0.02566   0.85730   0.39432   0.00000  Uiso   1.00
C64    C     0.11504   0.78793   0.22850   0.00000  Uiso   1.00
C65    C     0.12826   0.86536   0.18917   0.00000  Uiso   1.00
C66    C     0.02566   0.86010   0.12217   0.00000  Uiso   1.00
C67    C     0.27459   0.66044   0.31665   0.00000  Uiso   1.00
C68    C     0.42194   0.63068   0.35144   0.00000  Uiso   1.00
C69    C     0.45365   0.51808   0.35863   0.00000  Uiso   1.00
H70    H     0.92252   0.56947   0.23308   0.00000  Uiso   1.00
H71    H     0.81422   0.63896   0.30098   0.00000  Uiso   1.00
H72    H     0.81422   0.64087   0.11426   0.00000  Uiso   1.00
H73    H     0.10785   0.40623   0.27650   0.00000  Uiso   1.00
H74    H     0.74339   0.75126   0.38800   0.00000  Uiso   1.00
H75    H     0.74342   0.75526   0.99429   0.00000  Uiso   1.00
H76    H     0.36260   0.26047   0.33639   0.00000  Uiso   1.00
H77    H     0.30221   0.84084   0.32367   0.00000  Uiso   1.00
H78    H     0.21475   0.92523   0.39654   0.00000  Uiso   1.00
H79    H     0.21475   0.92714   0.20982   0.00000  Uiso   1.00
H80    H     0.50837   0.69250   0.37206   0.00000  Uiso   1.00
H81    H     0.06847   0.98361   0.46556   0.00000  Uiso   1.00
H82    H     0.06851   0.98761   0.07185   0.00000  Uiso   1.00
H83    H     0.68768   0.49282   0.41396   0.00000  Uiso   1.00
O84    O     0.84151   0.91807   0.47307   0.00000  Uiso   1.00
O85    O     0.84157   0.92331   0.95653   0.00000  Uiso   1.00
O86    O     0.65391   0.27417   0.40537   0.00000  Uiso   1.00
N87    N     0.83192   0.79434   0.39626   0.00000  Uiso   1.00
N88    N     0.83193   0.79810   0.02816   0.00000  Uiso   1.00
N89    N     0.41081   0.33552   0.34799   0.00000  Uiso   1.00
N90    N     0.00684   0.91937   0.43800   0.00000  Uiso   1.00
N91    N     0.00686   0.92313   0.06990   0.00000  Uiso   1.00
N92    N     0.58573   0.46054   0.38973   0.00000  Uiso   1.00
C93    C     0.00951   0.86836   0.75383   0.00000  Uiso   1.00
C94    C     0.00333   0.79298   0.80329   0.00000  Uiso   1.00
C95    C     0.90068   0.79923   0.82162   0.00000  Uiso   1.00
C96    C     0.91372   0.72270   0.86761   0.00000  Uiso   1.00
C97    C     0.88709   0.61776   0.94033   0.00000  Uiso   1.00
C98    C     0.00332   0.79193   0.70184   0.00000  Uiso   1.00
C99    C     0.90067   0.79731   0.63487   0.00000  Uiso   1.00
C100   C     0.91372   0.71990   0.59546   0.00000  Uiso   1.00
C101   C     0.88713   0.61339   0.51067   0.00000  Uiso   1.00
C102   C     0.16285   0.91942   0.78999   0.00000  Uiso   1.00
C103   C     0.19434   0.03199   0.79713   0.00000  Uiso   1.00
C104   C     0.34172   0.06192   0.83192   0.00000  Uiso   1.00
C105   C     0.56282   0.15335   0.88400   0.00000  Uiso   1.00
C106   C     0.21522   0.72134   0.80291   0.00000  Uiso   1.00
C107   C     0.11506   0.71312   0.82995   0.00000  Uiso   1.00
C108   C     0.12827   0.63656   0.87592   0.00000  Uiso   1.00
C109   C     0.02566   0.64270   0.89432   0.00000  Uiso   1.00
C110   C     0.11504   0.71207   0.72850   0.00000  Uiso   1.00
C111   C     0.12826   0.63464   0.68917   0.00000  Uiso   1.00
C112   C     0.02566   0.63990   0.62217   0.00000  Uiso   1.00
C113   C     0.27459   0.83956   0.81665   0.00000  Uiso   1.00
C114   C     0.42194   0.86932   0.85144   0.00000  Uiso   1.00
C115   C     0.45365   0.98192   0.85863   0.00000  Uiso   1.00
H116   H     0.92252   0.93053   0.73308   0.00000  Uiso   1.00
H117   H     0.81422   0.86104   0.80098   0.00000  Uiso   1.00
H118   H     0.81422   0.85913   0.61426   0.00000  Uiso   1.00
H119   H     0.10785   0.09377   0.77650   0.00000  Uiso   1.00
H120   H     0.74339   0.74874   0.88800   0.00000  Uiso   1.00
H121   H     0.74342   0.74474   0.49429   0.00000  Uiso   1.00
H122   H     0.36260   0.23953   0.83639   0.00000  Uiso   1.00
H123   H     0.30221   0.65916   0.82367   0.00000  Uiso   1.00
H124   H     0.21475   0.57477   0.89654   0.00000  Uiso   1.00
H125   H     0.21475   0.57286   0.70982   0.00000  Uiso   1.00
H126   H     0.50837   0.80750   0.87206   0.00000  Uiso   1.00
H127   H     0.06847   0.51639   0.96556   0.00000  Uiso   1.00
H128   H     0.06851   0.51239   0.57185   0.00000  Uiso   1.00
H129   H     0.68768   0.00718   0.91396   0.00000  Uiso   1.00
O130   O     0.84151   0.58193   0.97307   0.00000  Uiso   1.00
O131   O     0.84157   0.57669   0.45653   0.00000  Uiso   1.00
O132   O     0.65391   0.22583   0.90537   0.00000  Uiso   1.00
N133   N     0.83192   0.70566   0.89626   0.00000  Uiso   1.00
N134   N     0.83193   0.70190   0.52816   0.00000  Uiso   1.00
N135   N     0.41081   0.16448   0.84799   0.00000  Uiso   1.00
N136   N     0.00684   0.58063   0.93800   0.00000  Uiso   1.00
N137   N     0.00686   0.57687   0.56990   0.00000  Uiso   1.00
N138   N     0.58573   0.03946   0.88973   0.00000  Uiso   1.00
C139   C     0.99049   0.36836   0.74617   0.00000  Uiso   1.00
C140   C     0.99667   0.29298   0.69671   0.00000  Uiso   1.00
C141   C     0.09932   0.29923   0.67838   0.00000  Uiso   1.00
C142   C     0.08628   0.22270   0.63239   0.00000  Uiso   1.00
C143   C     0.11291   0.11776   0.55967   0.00000  Uiso   1.00
C144   C     0.99668   0.29193   0.79816   0.00000  Uiso   1.00
C145   C     0.09933   0.29731   0.86513   0.00000  Uiso   1.00
C146   C     0.08628   0.21990   0.90454   0.00000  Uiso   1.00
C147   C     0.11287   0.11339   0.98933   0.00000  Uiso   1.00
C148   C     0.83715   0.41942   0.71001   0.00000  Uiso   1.00
C149   C     0.80566   0.53199   0.70287   0.00000  Uiso   1.00
C150   C     0.65828   0.56192   0.66808   0.00000  Uiso   1.00
C151   C     0.43718   0.65335   0.61600   0.00000  Uiso   1.00
C152   C     0.78478   0.22134   0.69709   0.00000  Uiso   1.00
C153   C     0.88494   0.21312   0.67005   0.00000  Uiso   1.00
C154   C     0.87173   0.13656   0.62408   0.00000  Uiso   1.00
C155   C     0.97434   0.14270   0.60568   0.00000  Uiso   1.00
C156   C     0.88496   0.21207   0.77150   0.00000  Uiso   1.00
C157   C     0.87174   0.13464   0.81083   0.00000  Uiso   1.00
C158   C     0.97434   0.13990   0.87783   0.00000  Uiso   1.00
C159   C     0.72541   0.33956   0.68335   0.00000  Uiso   1.00
C160   C     0.57806   0.36932   0.64856   0.00000  Uiso   1.00
C161   C     0.54635   0.48192   0.64137   0.00000  Uiso   1.00
H162   H     0.07748   0.43053   0.76692   0.00000  Uiso   1.00
H163   H     0.18578   0.36104   0.69902   0.00000  Uiso   1.00
H164   H     0.18578   0.35913   0.88574   0.00000  Uiso   1.00
H165   H     0.89215   0.59377   0.72350   0.00000  Uiso   1.00
H166   H     0.25661   0.24874   0.61200   0.00000  Uiso   1.00
H167   H     0.25658   0.24474   0.00571   0.00000  Uiso   1.00
H168   H     0.63740   0.73953   0.66361   0.00000  Uiso   1.00
H169   H     0.69779   0.15916   0.67633   0.00000  Uiso   1.00
H170   H     0.78525   0.07477   0.60346   0.00000  Uiso   1.00
H171   H     0.78525   0.07286   0.79018   0.00000  Uiso   1.00
H172   H     0.49163   0.30750   0.62794   0.00000  Uiso   1.00
H173   H     0.93153   0.01639   0.53444   0.00000  Uiso   1.00
H174   H     0.93149   0.01239   0.92815   0.00000  Uiso   1.00
H175   H     0.31232   0.50718   0.58604   0.00000  Uiso   1.00
O176   O     0.15849   0.08193   0.52693   0.00000  Uiso   1.00
O177   O     0.15843   0.07669   0.04347   0.00000  Uiso   1.00
O178   O     0.34609   0.72583   0.59463   0.00000  Uiso   1.00
N179   N     0.16808   0.20566   0.60374   0.00000  Uiso   1.00
N180   N     0.16807   0.20190   0.97184   0.00000  Uiso   1.00
N181   N     0.58919   0.66448   0.65201   0.00000  Uiso   1.00
N182   N     0.99316   0.08063   0.56200   0.00000  Uiso   1.00
N183   N     0.99314   0.07687   0.93010   0.00000  Uiso   1.00
N184   N     0.41427   0.53946   0.61027   0.00000  Uiso   1.00
