data_job_03113
_audit_creation_date              2018-12-19
_audit_creation_method            'Materials Studio'
_symmetry_space_group_name_H-M    'P1'
_symmetry_Int_Tables_number       1
_symmetry_cell_setting            triclinic
loop_
_symmetry_equiv_pos_as_xyz
  x,y,z
_cell_length_a                    13.7770
_cell_length_b                    22.0525
_cell_length_c                    24.3949
_cell_angle_alpha                 90.0000
_cell_angle_beta                  90.0000
_cell_angle_gamma                 90.0000
loop_
_atom_site_label
_atom_site_type_symbol
_atom_site_fract_x
_atom_site_fract_y
_atom_site_fract_z
_atom_site_U_iso_or_equiv
_atom_site_adp_type
_atom_site_occupancy
C1     C     0.78031   0.64969   0.05466   0.00000  Uiso   1.00
C2     C     0.74978   0.61809   0.00180   0.00000  Uiso   1.00
C3     C     0.80397   0.57533   0.97342   0.00000  Uiso   1.00
C4     C     0.76330   0.55177   0.92591   0.00000  Uiso   1.00
C5     C     0.72984   0.49989   0.84662   0.00000  Uiso   1.00
C6     C     0.77558   0.71753   0.04281   0.00000  Uiso   1.00
C7     C     0.85146   0.75837   0.04892   0.00000  Uiso   1.00
C8     C     0.83251   0.81851   0.03593   0.00000  Uiso   1.00
C9     C     0.83909   0.92102   0.02034   0.00000  Uiso   1.00
C10    C     0.70005   0.63691   0.09612   0.00000  Uiso   1.00
C11    C     0.71242   0.60998   0.14707   0.00000  Uiso   1.00
C12    C     0.62988   0.60226   0.17897   0.00000  Uiso   1.00
C13    C     0.51919   0.57959   0.24616   0.00000  Uiso   1.00
C14    C     0.61173   0.68389   0.02074   0.00000  Uiso   1.00
C15    C     0.65821   0.63667   0.98338   0.00000  Uiso   1.00
C16    C     0.61745   0.61316   0.93589   0.00000  Uiso   1.00
C17    C     0.67157   0.57037   0.90745   0.00000  Uiso   1.00
C18    C     0.68402   0.73610   0.02439   0.00000  Uiso   1.00
C19    C     0.66495   0.79620   0.01139   0.00000  Uiso   1.00
C20    C     0.74078   0.83712   0.01747   0.00000  Uiso   1.00
C21    C     0.60849   0.65548   0.07770   0.00000  Uiso   1.00
C22    C     0.52591   0.64781   0.10953   0.00000  Uiso   1.00
C23    C     0.53815   0.62087   0.16051   0.00000  Uiso   1.00
H24    H     0.85160   0.63524   0.06901   0.00000  Uiso   1.00
H25    H     0.87483   0.56097   0.98769   0.00000  Uiso   1.00
H26    H     0.92231   0.74398   0.06318   0.00000  Uiso   1.00
H27    H     0.78329   0.59561   0.16131   0.00000  Uiso   1.00
H28    H     0.86022   0.48684   0.88941   0.00000  Uiso   1.00
H29    H     0.96032   0.87273   0.04859   0.00000  Uiso   1.00
H30    H     0.66718   0.55986   0.25552   0.00000  Uiso   1.00
H31    H     0.54044   0.69835   0.00640   0.00000  Uiso   1.00
H32    H     0.54659   0.62754   0.92165   0.00000  Uiso   1.00
H33    H     0.59408   0.81056   0.99713   0.00000  Uiso   1.00
H34    H     0.45506   0.66219   0.09526   0.00000  Uiso   1.00
H35    H     0.59381   0.54087   0.83580   0.00000  Uiso   1.00
H36    H     0.69392   0.92677   0.99499   0.00000  Uiso   1.00
H37    H     0.40078   0.61390   0.20191   0.00000  Uiso   1.00
O38    O     0.73669   0.46615   0.80797   0.00000  Uiso   1.00
O39    O     0.86802   0.97242   0.01683   0.00000  Uiso   1.00
O40    O     0.48343   0.56195   0.28831   0.00000  Uiso   1.00
N41    N     0.79666   0.50926   0.88843   0.00000  Uiso   1.00
N42    N     0.89027   0.87005   0.03725   0.00000  Uiso   1.00
N43    N     0.61620   0.57755   0.23071   0.00000  Uiso   1.00
N44    N     0.65331   0.53834   0.85958   0.00000  Uiso   1.00
N45    N     0.74691   0.89912   0.00840   0.00000  Uiso   1.00
N46    N     0.47285   0.60663   0.20187   0.00000  Uiso   1.00
C47    C     0.28764   0.30081   0.44090   0.00000  Uiso   1.00
C48    C     0.25696   0.33102   0.49439   0.00000  Uiso   1.00
C49    C     0.31015   0.37399   0.52312   0.00000  Uiso   1.00
C50    C     0.26951   0.39612   0.57121   0.00000  Uiso   1.00
C51    C     0.23566   0.44607   0.65145   0.00000  Uiso   1.00
C52    C     0.28546   0.23273   0.45175   0.00000  Uiso   1.00
C53    C     0.36262   0.19304   0.44462   0.00000  Uiso   1.00
C54    C     0.34597   0.13243   0.45680   0.00000  Uiso   1.00
C55    C     0.35636   0.02976   0.47079   0.00000  Uiso   1.00
C56    C     0.20624   0.31327   0.40007   0.00000  Uiso   1.00
C57    C     0.21679   0.34129   0.34948   0.00000  Uiso   1.00
C58    C     0.13344   0.34847   0.31815   0.00000  Uiso   1.00
C59    C     0.02083   0.37086   0.25191   0.00000  Uiso   1.00
C60    C     0.12088   0.26372   0.47520   0.00000  Uiso   1.00
C61    C     0.16638   0.31088   0.51302   0.00000  Uiso   1.00
C62    C     0.12565   0.33295   0.56108   0.00000  Uiso   1.00
C63    C     0.17877   0.37594   0.58987   0.00000  Uiso   1.00
C64    C     0.19489   0.21258   0.47038   0.00000  Uiso   1.00
C65    C     0.17812   0.15201   0.48257   0.00000  Uiso   1.00
C66    C     0.25523   0.11224   0.47546   0.00000  Uiso   1.00
C67    C     0.11566   0.29312   0.41870   0.00000  Uiso   1.00
C68    C     0.03229   0.30026   0.38744   0.00000  Uiso   1.00
C69    C     0.04270   0.32829   0.33681   0.00000  Uiso   1.00
H70    H     0.35816   0.31649   0.42639   0.00000  Uiso   1.00
H71    H     0.38025   0.38956   0.50869   0.00000  Uiso   1.00
H72    H     0.43270   0.20864   0.43019   0.00000  Uiso   1.00
H73    H     0.28689   0.35687   0.33508   0.00000  Uiso   1.00
H74    H     0.36480   0.46167   0.60816   0.00000  Uiso   1.00
H75    H     0.47540   0.08019   0.44262   0.00000  Uiso   1.00
H76    H     0.16793   0.39276   0.24205   0.00000  Uiso   1.00
H77    H     0.05036   0.24804   0.48971   0.00000  Uiso   1.00
H78    H     0.05555   0.31735   0.57548   0.00000  Uiso   1.00
H79    H     0.10801   0.13643   0.49698   0.00000  Uiso   1.00
H80    H     0.96221   0.28466   0.40187   0.00000  Uiso   1.00
H81    H     0.10127   0.40306   0.66238   0.00000  Uiso   1.00
H82    H     0.21187   0.02158   0.49683   0.00000  Uiso   1.00
H83    H     0.90440   0.33415   0.29626   0.00000  Uiso   1.00
O84    O     0.24202   0.47918   0.69056   0.00000  Uiso   1.00
O85    O     0.38712   0.97870   0.47337   0.00000  Uiso   1.00
O86    O     0.98373   0.38878   0.21023   0.00000  Uiso   1.00
N87    N     0.30206   0.43837   0.60915   0.00000  Uiso   1.00
N88    N     0.40547   0.08172   0.45438   0.00000  Uiso   1.00
N89    N     0.11802   0.37393   0.26686   0.00000  Uiso   1.00
N90    N     0.16025   0.40683   0.63832   0.00000  Uiso   1.00
N91    N     0.26366   0.05018   0.48355   0.00000  Uiso   1.00
N92    N     0.97621   0.34239   0.29603   0.00000  Uiso   1.00
C93    C     0.21969   0.35031   0.05466   0.00000  Uiso   1.00
C94    C     0.25022   0.38191   0.00180   0.00000  Uiso   1.00
C95    C     0.19603   0.42467   0.97342   0.00000  Uiso   1.00
C96    C     0.23670   0.44823   0.92591   0.00000  Uiso   1.00
C97    C     0.27016   0.50011   0.84662   0.00000  Uiso   1.00
C98    C     0.22442   0.28247   0.04281   0.00000  Uiso   1.00
C99    C     0.14854   0.24163   0.04892   0.00000  Uiso   1.00
C100   C     0.16749   0.18149   0.03593   0.00000  Uiso   1.00
C101   C     0.16091   0.07898   0.02034   0.00000  Uiso   1.00
C102   C     0.29995   0.36309   0.09612   0.00000  Uiso   1.00
C103   C     0.28758   0.39002   0.14707   0.00000  Uiso   1.00
C104   C     0.37012   0.39774   0.17897   0.00000  Uiso   1.00
C105   C     0.48081   0.42041   0.24616   0.00000  Uiso   1.00
C106   C     0.38827   0.31611   0.02074   0.00000  Uiso   1.00
C107   C     0.34179   0.36333   0.98338   0.00000  Uiso   1.00
C108   C     0.38255   0.38684   0.93589   0.00000  Uiso   1.00
C109   C     0.32843   0.42963   0.90745   0.00000  Uiso   1.00
C110   C     0.31598   0.26390   0.02439   0.00000  Uiso   1.00
C111   C     0.33505   0.20380   0.01139   0.00000  Uiso   1.00
C112   C     0.25922   0.16288   0.01747   0.00000  Uiso   1.00
C113   C     0.39151   0.34452   0.07770   0.00000  Uiso   1.00
C114   C     0.47409   0.35219   0.10953   0.00000  Uiso   1.00
C115   C     0.46185   0.37913   0.16051   0.00000  Uiso   1.00
H116   H     0.14840   0.36476   0.06901   0.00000  Uiso   1.00
H117   H     0.12517   0.43903   0.98769   0.00000  Uiso   1.00
H118   H     0.07769   0.25602   0.06318   0.00000  Uiso   1.00
H119   H     0.21671   0.40439   0.16131   0.00000  Uiso   1.00
H120   H     0.13978   0.51316   0.88941   0.00000  Uiso   1.00
H121   H     0.03968   0.12727   0.04859   0.00000  Uiso   1.00
H122   H     0.33282   0.44014   0.25552   0.00000  Uiso   1.00
H123   H     0.45956   0.30165   0.00640   0.00000  Uiso   1.00
H124   H     0.45341   0.37246   0.92165   0.00000  Uiso   1.00
H125   H     0.40592   0.18944   0.99713   0.00000  Uiso   1.00
H126   H     0.54494   0.33781   0.09526   0.00000  Uiso   1.00
H127   H     0.40619   0.45913   0.83580   0.00000  Uiso   1.00
H128   H     0.30608   0.07323   0.99499   0.00000  Uiso   1.00
H129   H     0.59922   0.38610   0.20191   0.00000  Uiso   1.00
O130   O     0.26331   0.53385   0.80797   0.00000  Uiso   1.00
O131   O     0.13198   0.02758   0.01683   0.00000  Uiso   1.00
O132   O     0.51657   0.43805   0.28831   0.00000  Uiso   1.00
N133   N     0.20334   0.49074   0.88843   0.00000  Uiso   1.00
N134   N     0.10973   0.12995   0.03725   0.00000  Uiso   1.00
N135   N     0.38380   0.42245   0.23071   0.00000  Uiso   1.00
N136   N     0.34669   0.46166   0.85958   0.00000  Uiso   1.00
N137   N     0.25309   0.10088   0.00840   0.00000  Uiso   1.00
N138   N     0.52715   0.39337   0.20187   0.00000  Uiso   1.00
C139   C     0.71236   0.69919   0.44090   0.00000  Uiso   1.00
C140   C     0.74304   0.66898   0.49439   0.00000  Uiso   1.00
C141   C     0.68985   0.62601   0.52312   0.00000  Uiso   1.00
C142   C     0.73049   0.60388   0.57121   0.00000  Uiso   1.00
C143   C     0.76434   0.55393   0.65145   0.00000  Uiso   1.00
C144   C     0.71454   0.76727   0.45175   0.00000  Uiso   1.00
C145   C     0.63738   0.80696   0.44462   0.00000  Uiso   1.00
C146   C     0.65403   0.86757   0.45680   0.00000  Uiso   1.00
C147   C     0.64364   0.97024   0.47079   0.00000  Uiso   1.00
C148   C     0.79376   0.68673   0.40007   0.00000  Uiso   1.00
C149   C     0.78321   0.65871   0.34948   0.00000  Uiso   1.00
C150   C     0.86656   0.65153   0.31815   0.00000  Uiso   1.00
C151   C     0.97917   0.62914   0.25191   0.00000  Uiso   1.00
C152   C     0.87912   0.73628   0.47520   0.00000  Uiso   1.00
C153   C     0.83362   0.68912   0.51302   0.00000  Uiso   1.00
C154   C     0.87435   0.66705   0.56108   0.00000  Uiso   1.00
C155   C     0.82123   0.62406   0.58987   0.00000  Uiso   1.00
C156   C     0.80511   0.78742   0.47038   0.00000  Uiso   1.00
C157   C     0.82188   0.84799   0.48257   0.00000  Uiso   1.00
C158   C     0.74477   0.88776   0.47546   0.00000  Uiso   1.00
C159   C     0.88434   0.70688   0.41870   0.00000  Uiso   1.00
C160   C     0.96771   0.69974   0.38744   0.00000  Uiso   1.00
C161   C     0.95730   0.67171   0.33681   0.00000  Uiso   1.00
H162   H     0.64184   0.68351   0.42639   0.00000  Uiso   1.00
H163   H     0.61975   0.61044   0.50869   0.00000  Uiso   1.00
H164   H     0.56730   0.79136   0.43019   0.00000  Uiso   1.00
H165   H     0.71311   0.64313   0.33508   0.00000  Uiso   1.00
H166   H     0.63520   0.53833   0.60816   0.00000  Uiso   1.00
H167   H     0.52460   0.91981   0.44262   0.00000  Uiso   1.00
H168   H     0.83207   0.60724   0.24205   0.00000  Uiso   1.00
H169   H     0.94964   0.75196   0.48971   0.00000  Uiso   1.00
H170   H     0.94445   0.68265   0.57548   0.00000  Uiso   1.00
H171   H     0.89199   0.86357   0.49698   0.00000  Uiso   1.00
H172   H     0.03779   0.71534   0.40187   0.00000  Uiso   1.00
H173   H     0.89873   0.59694   0.66238   0.00000  Uiso   1.00
H174   H     0.78813   0.97842   0.49683   0.00000  Uiso   1.00
H175   H     0.09560   0.66585   0.29626   0.00000  Uiso   1.00
O176   O     0.75798   0.52082   0.69056   0.00000  Uiso   1.00
O177   O     0.61288   0.02130   0.47337   0.00000  Uiso   1.00
O178   O     0.01627   0.61122   0.21023   0.00000  Uiso   1.00
N179   N     0.69794   0.56163   0.60915   0.00000  Uiso   1.00
N180   N     0.59453   0.91828   0.45438   0.00000  Uiso   1.00
N181   N     0.88198   0.62607   0.26686   0.00000  Uiso   1.00
N182   N     0.83975   0.59317   0.63832   0.00000  Uiso   1.00
N183   N     0.73634   0.94982   0.48355   0.00000  Uiso   1.00
N184   N     0.02379   0.65761   0.29603   0.00000  Uiso   1.00
C185   C     0.78031   0.35031   0.55466   0.00000  Uiso   1.00
C186   C     0.74978   0.38191   0.50180   0.00000  Uiso   1.00
C187   C     0.80397   0.42467   0.47342   0.00000  Uiso   1.00
C188   C     0.76330   0.44823   0.42591   0.00000  Uiso   1.00
C189   C     0.72984   0.50011   0.34662   0.00000  Uiso   1.00
C190   C     0.77558   0.28247   0.54281   0.00000  Uiso   1.00
C191   C     0.85146   0.24163   0.54892   0.00000  Uiso   1.00
C192   C     0.83251   0.18149   0.53593   0.00000  Uiso   1.00
C193   C     0.83909   0.07898   0.52034   0.00000  Uiso   1.00
C194   C     0.70005   0.36309   0.59612   0.00000  Uiso   1.00
C195   C     0.71242   0.39002   0.64707   0.00000  Uiso   1.00
C196   C     0.62988   0.39774   0.67897   0.00000  Uiso   1.00
C197   C     0.51919   0.42041   0.74616   0.00000  Uiso   1.00
C198   C     0.61173   0.31611   0.52074   0.00000  Uiso   1.00
C199   C     0.65821   0.36333   0.48338   0.00000  Uiso   1.00
C200   C     0.61745   0.38684   0.43589   0.00000  Uiso   1.00
C201   C     0.67157   0.42963   0.40745   0.00000  Uiso   1.00
C202   C     0.68402   0.26390   0.52439   0.00000  Uiso   1.00
C203   C     0.66495   0.20380   0.51139   0.00000  Uiso   1.00
C204   C     0.74078   0.16288   0.51747   0.00000  Uiso   1.00
C205   C     0.60849   0.34452   0.57770   0.00000  Uiso   1.00
C206   C     0.52591   0.35219   0.60953   0.00000  Uiso   1.00
C207   C     0.53815   0.37913   0.66051   0.00000  Uiso   1.00
H208   H     0.85160   0.36476   0.56901   0.00000  Uiso   1.00
H209   H     0.87483   0.43903   0.48769   0.00000  Uiso   1.00
H210   H     0.92231   0.25602   0.56318   0.00000  Uiso   1.00
H211   H     0.78329   0.40439   0.66131   0.00000  Uiso   1.00
H212   H     0.86022   0.51316   0.38941   0.00000  Uiso   1.00
H213   H     0.96032   0.12727   0.54859   0.00000  Uiso   1.00
H214   H     0.66718   0.44014   0.75552   0.00000  Uiso   1.00
H215   H     0.54044   0.30165   0.50640   0.00000  Uiso   1.00
H216   H     0.54659   0.37246   0.42165   0.00000  Uiso   1.00
H217   H     0.59408   0.18944   0.49713   0.00000  Uiso   1.00
H218   H     0.45506   0.33781   0.59526   0.00000  Uiso   1.00
H219   H     0.59381   0.45913   0.33580   0.00000  Uiso   1.00
H220   H     0.69392   0.07323   0.49499   0.00000  Uiso   1.00
H221   H     0.40078   0.38610   0.70191   0.00000  Uiso   1.00
O222   O     0.73669   0.53385   0.30797   0.00000  Uiso   1.00
O223   O     0.86802   0.02758   0.51683   0.00000  Uiso   1.00
O224   O     0.48343   0.43805   0.78831   0.00000  Uiso   1.00
N225   N     0.79666   0.49074   0.38843   0.00000  Uiso   1.00
N226   N     0.89027   0.12995   0.53725   0.00000  Uiso   1.00
N227   N     0.61620   0.42245   0.73071   0.00000  Uiso   1.00
N228   N     0.65331   0.46166   0.35958   0.00000  Uiso   1.00
N229   N     0.74691   0.10088   0.50840   0.00000  Uiso   1.00
N230   N     0.47285   0.39337   0.70187   0.00000  Uiso   1.00
C231   C     0.28764   0.69919   0.94090   0.00000  Uiso   1.00
C232   C     0.25696   0.66898   0.99439   0.00000  Uiso   1.00
C233   C     0.31015   0.62601   0.02312   0.00000  Uiso   1.00
C234   C     0.26951   0.60388   0.07121   0.00000  Uiso   1.00
C235   C     0.23566   0.55393   0.15145   0.00000  Uiso   1.00
C236   C     0.28546   0.76727   0.95175   0.00000  Uiso   1.00
C237   C     0.36262   0.80696   0.94462   0.00000  Uiso   1.00
C238   C     0.34597   0.86757   0.95680   0.00000  Uiso   1.00
C239   C     0.35636   0.97024   0.97079   0.00000  Uiso   1.00
C240   C     0.20624   0.68673   0.90007   0.00000  Uiso   1.00
C241   C     0.21679   0.65871   0.84948   0.00000  Uiso   1.00
C242   C     0.13344   0.65153   0.81815   0.00000  Uiso   1.00
C243   C     0.02083   0.62914   0.75191   0.00000  Uiso   1.00
C244   C     0.12088   0.73628   0.97520   0.00000  Uiso   1.00
C245   C     0.16638   0.68912   0.01302   0.00000  Uiso   1.00
C246   C     0.12565   0.66705   0.06108   0.00000  Uiso   1.00
C247   C     0.17877   0.62406   0.08987   0.00000  Uiso   1.00
C248   C     0.19489   0.78742   0.97038   0.00000  Uiso   1.00
C249   C     0.17812   0.84799   0.98257   0.00000  Uiso   1.00
C250   C     0.25523   0.88776   0.97546   0.00000  Uiso   1.00
C251   C     0.11566   0.70688   0.91870   0.00000  Uiso   1.00
C252   C     0.03229   0.69974   0.88744   0.00000  Uiso   1.00
C253   C     0.04270   0.67171   0.83681   0.00000  Uiso   1.00
H254   H     0.35816   0.68351   0.92639   0.00000  Uiso   1.00
H255   H     0.38025   0.61044   0.00869   0.00000  Uiso   1.00
H256   H     0.43270   0.79136   0.93019   0.00000  Uiso   1.00
H257   H     0.28689   0.64313   0.83508   0.00000  Uiso   1.00
H258   H     0.36480   0.53833   0.10816   0.00000  Uiso   1.00
H259   H     0.47540   0.91981   0.94262   0.00000  Uiso   1.00
H260   H     0.16793   0.60724   0.74205   0.00000  Uiso   1.00
H261   H     0.05036   0.75196   0.98971   0.00000  Uiso   1.00
H262   H     0.05555   0.68265   0.07548   0.00000  Uiso   1.00
H263   H     0.10801   0.86357   0.99698   0.00000  Uiso   1.00
H264   H     0.96221   0.71534   0.90187   0.00000  Uiso   1.00
H265   H     0.10127   0.59694   0.16238   0.00000  Uiso   1.00
H266   H     0.21187   0.97842   0.99683   0.00000  Uiso   1.00
H267   H     0.90440   0.66585   0.79626   0.00000  Uiso   1.00
O268   O     0.24202   0.52082   0.19056   0.00000  Uiso   1.00
O269   O     0.38712   0.02130   0.97337   0.00000  Uiso   1.00
O270   O     0.98373   0.61122   0.71023   0.00000  Uiso   1.00
N271   N     0.30206   0.56163   0.10915   0.00000  Uiso   1.00
N272   N     0.40547   0.91828   0.95438   0.00000  Uiso   1.00
N273   N     0.11802   0.62607   0.76686   0.00000  Uiso   1.00
N274   N     0.16025   0.59317   0.13832   0.00000  Uiso   1.00
N275   N     0.26366   0.94982   0.98355   0.00000  Uiso   1.00
N276   N     0.97621   0.65761   0.79603   0.00000  Uiso   1.00
C277   C     0.21969   0.64969   0.55466   0.00000  Uiso   1.00
C278   C     0.25022   0.61809   0.50180   0.00000  Uiso   1.00
C279   C     0.19603   0.57533   0.47342   0.00000  Uiso   1.00
C280   C     0.23670   0.55177   0.42591   0.00000  Uiso   1.00
C281   C     0.27016   0.49989   0.34662   0.00000  Uiso   1.00
C282   C     0.22442   0.71753   0.54281   0.00000  Uiso   1.00
C283   C     0.14854   0.75837   0.54892   0.00000  Uiso   1.00
C284   C     0.16749   0.81851   0.53593   0.00000  Uiso   1.00
C285   C     0.16091   0.92102   0.52034   0.00000  Uiso   1.00
C286   C     0.29995   0.63691   0.59612   0.00000  Uiso   1.00
C287   C     0.28758   0.60998   0.64707   0.00000  Uiso   1.00
C288   C     0.37012   0.60226   0.67897   0.00000  Uiso   1.00
C289   C     0.48081   0.57959   0.74616   0.00000  Uiso   1.00
C290   C     0.38827   0.68389   0.52074   0.00000  Uiso   1.00
C291   C     0.34179   0.63667   0.48338   0.00000  Uiso   1.00
C292   C     0.38255   0.61316   0.43589   0.00000  Uiso   1.00
C293   C     0.32843   0.57037   0.40745   0.00000  Uiso   1.00
C294   C     0.31598   0.73610   0.52439   0.00000  Uiso   1.00
C295   C     0.33505   0.79620   0.51139   0.00000  Uiso   1.00
C296   C     0.25922   0.83712   0.51747   0.00000  Uiso   1.00
C297   C     0.39151   0.65548   0.57770   0.00000  Uiso   1.00
C298   C     0.47409   0.64781   0.60953   0.00000  Uiso   1.00
C299   C     0.46185   0.62087   0.66051   0.00000  Uiso   1.00
H300   H     0.14840   0.63524   0.56901   0.00000  Uiso   1.00
H301   H     0.12517   0.56097   0.48769   0.00000  Uiso   1.00
H302   H     0.07769   0.74398   0.56318   0.00000  Uiso   1.00
H303   H     0.21671   0.59561   0.66131   0.00000  Uiso   1.00
H304   H     0.13978   0.48684   0.38941   0.00000  Uiso   1.00
H305   H     0.03968   0.87273   0.54859   0.00000  Uiso   1.00
H306   H     0.33282   0.55986   0.75552   0.00000  Uiso   1.00
H307   H     0.45956   0.69835   0.50640   0.00000  Uiso   1.00
H308   H     0.45341   0.62754   0.42165   0.00000  Uiso   1.00
H309   H     0.40592   0.81056   0.49713   0.00000  Uiso   1.00
H310   H     0.54494   0.66219   0.59526   0.00000  Uiso   1.00
H311   H     0.40619   0.54087   0.33580   0.00000  Uiso   1.00
H312   H     0.30608   0.92677   0.49499   0.00000  Uiso   1.00
H313   H     0.59922   0.61390   0.70191   0.00000  Uiso   1.00
O314   O     0.26331   0.46615   0.30797   0.00000  Uiso   1.00
O315   O     0.13198   0.97242   0.51683   0.00000  Uiso   1.00
O316   O     0.51657   0.56195   0.78831   0.00000  Uiso   1.00
N317   N     0.20334   0.50926   0.38843   0.00000  Uiso   1.00
N318   N     0.10973   0.87005   0.53725   0.00000  Uiso   1.00
N319   N     0.38380   0.57755   0.73071   0.00000  Uiso   1.00
N320   N     0.34669   0.53834   0.35958   0.00000  Uiso   1.00
N321   N     0.25309   0.89912   0.50840   0.00000  Uiso   1.00
N322   N     0.52715   0.60663   0.70187   0.00000  Uiso   1.00
C323   C     0.71236   0.30081   0.94090   0.00000  Uiso   1.00
C324   C     0.74304   0.33102   0.99439   0.00000  Uiso   1.00
C325   C     0.68985   0.37399   0.02312   0.00000  Uiso   1.00
C326   C     0.73049   0.39612   0.07121   0.00000  Uiso   1.00
C327   C     0.76434   0.44607   0.15145   0.00000  Uiso   1.00
C328   C     0.71454   0.23273   0.95175   0.00000  Uiso   1.00
C329   C     0.63738   0.19304   0.94462   0.00000  Uiso   1.00
C330   C     0.65403   0.13243   0.95680   0.00000  Uiso   1.00
C331   C     0.64364   0.02976   0.97079   0.00000  Uiso   1.00
C332   C     0.79376   0.31327   0.90007   0.00000  Uiso   1.00
C333   C     0.78321   0.34129   0.84948   0.00000  Uiso   1.00
C334   C     0.86656   0.34847   0.81815   0.00000  Uiso   1.00
C335   C     0.97917   0.37086   0.75191   0.00000  Uiso   1.00
C336   C     0.87912   0.26372   0.97520   0.00000  Uiso   1.00
C337   C     0.83362   0.31088   0.01302   0.00000  Uiso   1.00
C338   C     0.87435   0.33295   0.06108   0.00000  Uiso   1.00
C339   C     0.82123   0.37594   0.08987   0.00000  Uiso   1.00
C340   C     0.80511   0.21258   0.97038   0.00000  Uiso   1.00
C341   C     0.82188   0.15201   0.98257   0.00000  Uiso   1.00
C342   C     0.74477   0.11224   0.97546   0.00000  Uiso   1.00
C343   C     0.88434   0.29312   0.91870   0.00000  Uiso   1.00
C344   C     0.96771   0.30026   0.88744   0.00000  Uiso   1.00
C345   C     0.95730   0.32829   0.83681   0.00000  Uiso   1.00
H346   H     0.64184   0.31649   0.92639   0.00000  Uiso   1.00
H347   H     0.61975   0.38956   0.00869   0.00000  Uiso   1.00
H348   H     0.56730   0.20864   0.93019   0.00000  Uiso   1.00
H349   H     0.71311   0.35687   0.83508   0.00000  Uiso   1.00
H350   H     0.63520   0.46167   0.10816   0.00000  Uiso   1.00
H351   H     0.52460   0.08019   0.94262   0.00000  Uiso   1.00
H352   H     0.83207   0.39276   0.74205   0.00000  Uiso   1.00
H353   H     0.94964   0.24804   0.98971   0.00000  Uiso   1.00
H354   H     0.94445   0.31735   0.07548   0.00000  Uiso   1.00
H355   H     0.89199   0.13643   0.99698   0.00000  Uiso   1.00
H356   H     0.03779   0.28466   0.90187   0.00000  Uiso   1.00
H357   H     0.89873   0.40306   0.16238   0.00000  Uiso   1.00
H358   H     0.78813   0.02158   0.99683   0.00000  Uiso   1.00
H359   H     0.09560   0.33415   0.79626   0.00000  Uiso   1.00
O360   O     0.75798   0.47918   0.19056   0.00000  Uiso   1.00
O361   O     0.61288   0.97870   0.97337   0.00000  Uiso   1.00
O362   O     0.01627   0.38878   0.71023   0.00000  Uiso   1.00
N363   N     0.69794   0.43837   0.10915   0.00000  Uiso   1.00
N364   N     0.59453   0.08172   0.95438   0.00000  Uiso   1.00
N365   N     0.88198   0.37393   0.76686   0.00000  Uiso   1.00
N366   N     0.83975   0.40683   0.13832   0.00000  Uiso   1.00
N367   N     0.73634   0.05018   0.98355   0.00000  Uiso   1.00
N368   N     0.02379   0.34239   0.79603   0.00000  Uiso   1.00
