data_job_03473
_audit_creation_date              2018-12-19
_audit_creation_method            'Materials Studio'
_symmetry_space_group_name_H-M    'P1'
_symmetry_Int_Tables_number       1
_symmetry_cell_setting            triclinic
loop_
_symmetry_equiv_pos_as_xyz
  x,y,z
_cell_length_a                    12.3804
_cell_length_b                    12.3804
_cell_length_c                    35.2685
_cell_angle_alpha                 90.0000
_cell_angle_beta                  90.0000
_cell_angle_gamma                 120.0000
loop_
_atom_site_label
_atom_site_type_symbol
_atom_site_fract_x
_atom_site_fract_y
_atom_site_fract_z
_atom_site_U_iso_or_equiv
_atom_site_adp_type
_atom_site_occupancy
C1     C     0.70590   0.98028   0.10236   0.00000  Uiso   1.00
C2     C     0.61803   0.91167   0.06948   0.00000  Uiso   1.00
C3     C     0.48891   0.85434   0.07048   0.00000  Uiso   1.00
C4     C     0.42530   0.79649   0.03743   0.00000  Uiso   1.00
C5     C     0.27923   0.68997   0.99138   0.00000  Uiso   1.00
C6     C     0.78362   0.91738   0.10828   0.00000  Uiso   1.00
C7     C     0.79373   0.86486   0.14190   0.00000  Uiso   1.00
C8     C     0.86953   0.81183   0.14152   0.00000  Uiso   1.00
C9     C     0.98061   0.71425   0.15571   0.00000  Uiso   1.00
C10    C     0.79597   0.11125   0.08788   0.00000  Uiso   1.00
C11    C     0.81649   0.22175   0.10435   0.00000  Uiso   1.00
C12    C     0.90270   0.33195   0.08679   0.00000  Uiso   1.00
C13    C     0.03295   0.53538   0.06931   0.00000  Uiso   1.00
C14    C     0.82254   0.97951   0.04189   0.00000  Uiso   1.00
C15    C     0.68140   0.91125   0.03663   0.00000  Uiso   1.00
C16    C     0.61796   0.85348   0.00357   0.00000  Uiso   1.00
C17    C     0.48877   0.79607   0.00452   0.00000  Uiso   1.00
C18    C     0.84698   0.91695   0.07543   0.00000  Uiso   1.00
C19    C     0.92278   0.86400   0.07500   0.00000  Uiso   1.00
C20    C     0.93300   0.81141   0.10861   0.00000  Uiso   1.00
C21    C     0.85932   0.11083   0.05503   0.00000  Uiso   1.00
C22    C     0.94553   0.22088   0.03745   0.00000  Uiso   1.00
C23    C     0.96617   0.33152   0.05389   0.00000  Uiso   1.00
H24    H     0.65658   0.98060   0.12793   0.00000  Uiso   1.00
H25    H     0.43991   0.85467   0.09590   0.00000  Uiso   1.00
H26    H     0.74470   0.86521   0.16731   0.00000  Uiso   1.00
H27    H     0.76744   0.22203   0.12977   0.00000  Uiso   1.00
H28    H     0.22764   0.71483   0.04591   0.00000  Uiso   1.00
H29    H     0.87033   0.73708   0.19650   0.00000  Uiso   1.00
H30    H     0.91830   0.48952   0.11733   0.00000  Uiso   1.00
H31    H     0.87187   0.97918   0.01631   0.00000  Uiso   1.00
H32    H     0.66702   0.85317   0.97816   0.00000  Uiso   1.00
H33    H     0.97180   0.86370   0.04958   0.00000  Uiso   1.00
H34    H     0.99455   0.22052   0.01203   0.00000  Uiso   1.00
H35    H     0.41197   0.71361   0.95035   0.00000  Uiso   1.00
H36    H     0.05466   0.73585   0.10094   0.00000  Uiso   1.00
H37    H     0.10262   0.48829   0.02176   0.00000  Uiso   1.00
O38    O     0.18116   0.63132   0.97505   0.00000  Uiso   1.00
O39    O     0.02436   0.66053   0.17262   0.00000  Uiso   1.00
O40    O     0.08728   0.64770   0.06874   0.00000  Uiso   1.00
N41    N     0.29914   0.73186   0.02866   0.00000  Uiso   1.00
N42    N     0.90000   0.75264   0.16944   0.00000  Uiso   1.00
N43    N     0.94486   0.45611   0.09543   0.00000  Uiso   1.00
N44    N     0.39832   0.73120   0.97723   0.00000  Uiso   1.00
N45    N     0.99918   0.75198   0.11802   0.00000  Uiso   1.00
N46    N     0.04405   0.45545   0.04401   0.00000  Uiso   1.00
C47    C     0.01972   0.72562   0.76902   0.00000  Uiso   1.00
C48    C     0.08833   0.70636   0.73614   0.00000  Uiso   1.00
C49    C     0.14566   0.63457   0.73714   0.00000  Uiso   1.00
C50    C     0.20351   0.62881   0.70409   0.00000  Uiso   1.00
C51    C     0.31003   0.58926   0.65804   0.00000  Uiso   1.00
C52    C     0.08262   0.86625   0.77494   0.00000  Uiso   1.00
C53    C     0.13514   0.92887   0.80857   0.00000  Uiso   1.00
C54    C     0.18817   0.05770   0.80818   0.00000  Uiso   1.00
C55    C     0.28575   0.26636   0.82238   0.00000  Uiso   1.00
C56    C     0.88875   0.68472   0.75454   0.00000  Uiso   1.00
C57    C     0.77825   0.59474   0.77102   0.00000  Uiso   1.00
C58    C     0.66805   0.57076   0.75346   0.00000  Uiso   1.00
C59    C     0.46462   0.49757   0.73598   0.00000  Uiso   1.00
C60    C     0.02049   0.84304   0.70855   0.00000  Uiso   1.00
C61    C     0.08875   0.77015   0.70330   0.00000  Uiso   1.00
C62    C     0.14652   0.76448   0.67024   0.00000  Uiso   1.00
C63    C     0.20393   0.69269   0.67119   0.00000  Uiso   1.00
C64    C     0.08305   0.93002   0.74210   0.00000  Uiso   1.00
C65    C     0.13600   0.05878   0.74167   0.00000  Uiso   1.00
C66    C     0.18859   0.12159   0.77528   0.00000  Uiso   1.00
C67    C     0.88917   0.74849   0.72170   0.00000  Uiso   1.00
C68    C     0.77912   0.72465   0.70411   0.00000  Uiso   1.00
C69    C     0.66848   0.63465   0.72056   0.00000  Uiso   1.00
H70    H     0.01940   0.67597   0.79459   0.00000  Uiso   1.00
H71    H     0.14533   0.58524   0.76257   0.00000  Uiso   1.00
H72    H     0.13479   0.87949   0.83398   0.00000  Uiso   1.00
H73    H     0.77797   0.54541   0.79644   0.00000  Uiso   1.00
H74    H     0.28517   0.51281   0.71258   0.00000  Uiso   1.00
H75    H     0.26292   0.13325   0.86316   0.00000  Uiso   1.00
H76    H     0.51048   0.42878   0.78399   0.00000  Uiso   1.00
H77    H     0.02082   0.89269   0.68298   0.00000  Uiso   1.00
H78    H     0.14683   0.81385   0.64483   0.00000  Uiso   1.00
H79    H     0.13630   0.10810   0.71624   0.00000  Uiso   1.00
H80    H     0.77948   0.77402   0.67870   0.00000  Uiso   1.00
H81    H     0.28639   0.69836   0.61702   0.00000  Uiso   1.00
H82    H     0.26415   0.31881   0.76760   0.00000  Uiso   1.00
H83    H     0.51171   0.61433   0.68843   0.00000  Uiso   1.00
O84    O     0.36868   0.54984   0.64172   0.00000  Uiso   1.00
O85    O     0.33947   0.36383   0.83928   0.00000  Uiso   1.00
O86    O     0.35230   0.43958   0.73541   0.00000  Uiso   1.00
N87    N     0.26814   0.56728   0.69532   0.00000  Uiso   1.00
N88    N     0.24736   0.14736   0.83611   0.00000  Uiso   1.00
N89    N     0.54389   0.48876   0.76210   0.00000  Uiso   1.00
N90    N     0.26880   0.66712   0.64390   0.00000  Uiso   1.00
N91    N     0.24802   0.24720   0.78469   0.00000  Uiso   1.00
N92    N     0.54455   0.58860   0.71067   0.00000  Uiso   1.00
C93    C     0.27438   0.29410   0.43569   0.00000  Uiso   1.00
C94    C     0.29364   0.38197   0.40281   0.00000  Uiso   1.00
C95    C     0.36543   0.51109   0.40381   0.00000  Uiso   1.00
C96    C     0.37119   0.57470   0.37076   0.00000  Uiso   1.00
C97    C     0.41074   0.72077   0.32471   0.00000  Uiso   1.00
C98    C     0.13375   0.21638   0.44161   0.00000  Uiso   1.00
C99    C     0.07113   0.20627   0.47524   0.00000  Uiso   1.00
C100   C     0.94230   0.13047   0.47485   0.00000  Uiso   1.00
C101   C     0.73364   0.01939   0.48904   0.00000  Uiso   1.00
C102   C     0.31528   0.20403   0.42121   0.00000  Uiso   1.00
C103   C     0.40526   0.18351   0.43769   0.00000  Uiso   1.00
C104   C     0.42924   0.09730   0.42013   0.00000  Uiso   1.00
C105   C     0.50243   0.96705   0.40265   0.00000  Uiso   1.00
C106   C     0.15696   0.17746   0.37522   0.00000  Uiso   1.00
C107   C     0.22985   0.31860   0.36997   0.00000  Uiso   1.00
C108   C     0.23552   0.38204   0.33691   0.00000  Uiso   1.00
C109   C     0.30731   0.51123   0.33786   0.00000  Uiso   1.00
C110   C     0.06998   0.15302   0.40877   0.00000  Uiso   1.00
C111   C     0.94122   0.07722   0.40833   0.00000  Uiso   1.00
C112   C     0.87841   0.06700   0.44195   0.00000  Uiso   1.00
C113   C     0.25151   0.14068   0.38836   0.00000  Uiso   1.00
C114   C     0.27535   0.05447   0.37078   0.00000  Uiso   1.00
C115   C     0.36535   0.03383   0.38722   0.00000  Uiso   1.00
H116   H     0.32403   0.34342   0.46126   0.00000  Uiso   1.00
H117   H     0.41476   0.56009   0.42923   0.00000  Uiso   1.00
H118   H     0.12051   0.25530   0.50065   0.00000  Uiso   1.00
H119   H     0.45459   0.23256   0.46310   0.00000  Uiso   1.00
H120   H     0.48719   0.77236   0.37925   0.00000  Uiso   1.00
H121   H     0.86675   0.12967   0.52983   0.00000  Uiso   1.00
H122   H     0.57122   0.08170   0.45066   0.00000  Uiso   1.00
H123   H     0.10731   0.12813   0.34965   0.00000  Uiso   1.00
H124   H     0.18615   0.33298   0.31149   0.00000  Uiso   1.00
H125   H     0.89190   0.02820   0.38291   0.00000  Uiso   1.00
H126   H     0.22598   0.00545   0.34536   0.00000  Uiso   1.00
H127   H     0.30164   0.58803   0.28368   0.00000  Uiso   1.00
H128   H     0.68119   0.94534   0.43427   0.00000  Uiso   1.00
H129   H     0.38567   0.89738   0.35510   0.00000  Uiso   1.00
O130   O     0.45016   0.81884   0.30838   0.00000  Uiso   1.00
O131   O     0.63617   0.97564   0.50595   0.00000  Uiso   1.00
O132   O     0.56042   0.91272   0.40208   0.00000  Uiso   1.00
N133   N     0.43272   0.70086   0.36199   0.00000  Uiso   1.00
N134   N     0.85264   0.10000   0.50278   0.00000  Uiso   1.00
N135   N     0.51124   0.05514   0.42876   0.00000  Uiso   1.00
N136   N     0.33288   0.60168   0.31057   0.00000  Uiso   1.00
N137   N     0.75280   0.00082   0.45135   0.00000  Uiso   1.00
N138   N     0.41140   0.95595   0.37734   0.00000  Uiso   1.00
C139   C     0.98028   0.70590   0.89764   0.00000  Uiso   1.00
C140   C     0.91167   0.61803   0.93052   0.00000  Uiso   1.00
C141   C     0.85434   0.48891   0.92952   0.00000  Uiso   1.00
C142   C     0.79649   0.42530   0.96257   0.00000  Uiso   1.00
C143   C     0.68997   0.27923   0.00862   0.00000  Uiso   1.00
C144   C     0.91738   0.78362   0.89172   0.00000  Uiso   1.00
C145   C     0.86486   0.79373   0.85810   0.00000  Uiso   1.00
C146   C     0.81183   0.86953   0.85848   0.00000  Uiso   1.00
C147   C     0.71425   0.98061   0.84429   0.00000  Uiso   1.00
C148   C     0.11125   0.79597   0.91212   0.00000  Uiso   1.00
C149   C     0.22175   0.81649   0.89565   0.00000  Uiso   1.00
C150   C     0.33195   0.90270   0.91321   0.00000  Uiso   1.00
C151   C     0.53538   0.03295   0.93069   0.00000  Uiso   1.00
C152   C     0.97951   0.82254   0.95811   0.00000  Uiso   1.00
C153   C     0.91125   0.68140   0.96337   0.00000  Uiso   1.00
C154   C     0.85348   0.61796   0.99643   0.00000  Uiso   1.00
C155   C     0.79607   0.48877   0.99548   0.00000  Uiso   1.00
C156   C     0.91695   0.84698   0.92457   0.00000  Uiso   1.00
C157   C     0.86400   0.92278   0.92500   0.00000  Uiso   1.00
C158   C     0.81141   0.93300   0.89139   0.00000  Uiso   1.00
C159   C     0.11083   0.85932   0.94497   0.00000  Uiso   1.00
C160   C     0.22088   0.94553   0.96255   0.00000  Uiso   1.00
C161   C     0.33152   0.96617   0.94611   0.00000  Uiso   1.00
H162   H     0.98060   0.65658   0.87207   0.00000  Uiso   1.00
H163   H     0.85467   0.43991   0.90410   0.00000  Uiso   1.00
H164   H     0.86521   0.74470   0.83269   0.00000  Uiso   1.00
H165   H     0.22203   0.76744   0.87023   0.00000  Uiso   1.00
H166   H     0.71483   0.22764   0.95409   0.00000  Uiso   1.00
H167   H     0.73708   0.87033   0.80350   0.00000  Uiso   1.00
H168   H     0.48952   0.91830   0.88267   0.00000  Uiso   1.00
H169   H     0.97918   0.87187   0.98369   0.00000  Uiso   1.00
H170   H     0.85317   0.66702   0.02184   0.00000  Uiso   1.00
H171   H     0.86370   0.97180   0.95042   0.00000  Uiso   1.00
H172   H     0.22052   0.99455   0.98797   0.00000  Uiso   1.00
H173   H     0.71361   0.41197   0.04965   0.00000  Uiso   1.00
H174   H     0.73585   0.05466   0.89906   0.00000  Uiso   1.00
H175   H     0.48829   0.10262   0.97824   0.00000  Uiso   1.00
O176   O     0.63132   0.18116   0.02495   0.00000  Uiso   1.00
O177   O     0.66053   0.02436   0.82738   0.00000  Uiso   1.00
O178   O     0.64770   0.08728   0.93126   0.00000  Uiso   1.00
N179   N     0.73186   0.29914   0.97134   0.00000  Uiso   1.00
N180   N     0.75264   0.90000   0.83056   0.00000  Uiso   1.00
N181   N     0.45611   0.94486   0.90457   0.00000  Uiso   1.00
N182   N     0.73120   0.39832   0.02277   0.00000  Uiso   1.00
N183   N     0.75198   0.99918   0.88198   0.00000  Uiso   1.00
N184   N     0.45545   0.04405   0.95599   0.00000  Uiso   1.00
C185   C     0.72562   0.01972   0.23098   0.00000  Uiso   1.00
C186   C     0.70636   0.08833   0.26386   0.00000  Uiso   1.00
C187   C     0.63457   0.14566   0.26286   0.00000  Uiso   1.00
C188   C     0.62881   0.20351   0.29591   0.00000  Uiso   1.00
C189   C     0.58926   0.31003   0.34196   0.00000  Uiso   1.00
C190   C     0.86625   0.08262   0.22506   0.00000  Uiso   1.00
C191   C     0.92887   0.13514   0.19143   0.00000  Uiso   1.00
C192   C     0.05770   0.18817   0.19182   0.00000  Uiso   1.00
C193   C     0.26636   0.28575   0.17762   0.00000  Uiso   1.00
C194   C     0.68472   0.88875   0.24546   0.00000  Uiso   1.00
C195   C     0.59474   0.77825   0.22898   0.00000  Uiso   1.00
C196   C     0.57076   0.66805   0.24654   0.00000  Uiso   1.00
C197   C     0.49757   0.46462   0.26402   0.00000  Uiso   1.00
C198   C     0.84304   0.02049   0.29145   0.00000  Uiso   1.00
C199   C     0.77015   0.08875   0.29670   0.00000  Uiso   1.00
C200   C     0.76448   0.14652   0.32976   0.00000  Uiso   1.00
C201   C     0.69269   0.20393   0.32881   0.00000  Uiso   1.00
C202   C     0.93002   0.08305   0.25790   0.00000  Uiso   1.00
C203   C     0.05878   0.13600   0.25833   0.00000  Uiso   1.00
C204   C     0.12159   0.18859   0.22472   0.00000  Uiso   1.00
C205   C     0.74849   0.88917   0.27830   0.00000  Uiso   1.00
C206   C     0.72465   0.77912   0.29589   0.00000  Uiso   1.00
C207   C     0.63465   0.66848   0.27944   0.00000  Uiso   1.00
H208   H     0.67597   0.01940   0.20541   0.00000  Uiso   1.00
H209   H     0.58524   0.14533   0.23743   0.00000  Uiso   1.00
H210   H     0.87949   0.13479   0.16602   0.00000  Uiso   1.00
H211   H     0.54541   0.77797   0.20356   0.00000  Uiso   1.00
H212   H     0.51281   0.28517   0.28742   0.00000  Uiso   1.00
H213   H     0.13325   0.26292   0.13684   0.00000  Uiso   1.00
H214   H     0.42878   0.51048   0.21601   0.00000  Uiso   1.00
H215   H     0.89269   0.02082   0.31702   0.00000  Uiso   1.00
H216   H     0.81385   0.14683   0.35517   0.00000  Uiso   1.00
H217   H     0.10810   0.13630   0.28376   0.00000  Uiso   1.00
H218   H     0.77402   0.77948   0.32130   0.00000  Uiso   1.00
H219   H     0.69836   0.28639   0.38298   0.00000  Uiso   1.00
H220   H     0.31881   0.26415   0.23240   0.00000  Uiso   1.00
H221   H     0.61433   0.51171   0.31157   0.00000  Uiso   1.00
O222   O     0.54984   0.36868   0.35828   0.00000  Uiso   1.00
O223   O     0.36383   0.33947   0.16072   0.00000  Uiso   1.00
O224   O     0.43958   0.35230   0.26459   0.00000  Uiso   1.00
N225   N     0.56728   0.26814   0.30468   0.00000  Uiso   1.00
N226   N     0.14736   0.24736   0.16389   0.00000  Uiso   1.00
N227   N     0.48876   0.54389   0.23790   0.00000  Uiso   1.00
N228   N     0.66712   0.26880   0.35610   0.00000  Uiso   1.00
N229   N     0.24720   0.24802   0.21531   0.00000  Uiso   1.00
N230   N     0.58860   0.54455   0.28933   0.00000  Uiso   1.00
C231   C     0.29410   0.27438   0.56431   0.00000  Uiso   1.00
C232   C     0.38197   0.29364   0.59719   0.00000  Uiso   1.00
C233   C     0.51109   0.36543   0.59619   0.00000  Uiso   1.00
C234   C     0.57470   0.37119   0.62924   0.00000  Uiso   1.00
C235   C     0.72077   0.41074   0.67529   0.00000  Uiso   1.00
C236   C     0.21638   0.13375   0.55839   0.00000  Uiso   1.00
C237   C     0.20627   0.07113   0.52476   0.00000  Uiso   1.00
C238   C     0.13047   0.94230   0.52515   0.00000  Uiso   1.00
C239   C     0.01939   0.73364   0.51096   0.00000  Uiso   1.00
C240   C     0.20403   0.31528   0.57879   0.00000  Uiso   1.00
C241   C     0.18351   0.40526   0.56231   0.00000  Uiso   1.00
C242   C     0.09730   0.42924   0.57987   0.00000  Uiso   1.00
C243   C     0.96705   0.50243   0.59735   0.00000  Uiso   1.00
C244   C     0.17746   0.15696   0.62478   0.00000  Uiso   1.00
C245   C     0.31860   0.22985   0.63003   0.00000  Uiso   1.00
C246   C     0.38204   0.23552   0.66309   0.00000  Uiso   1.00
C247   C     0.51123   0.30731   0.66214   0.00000  Uiso   1.00
C248   C     0.15302   0.06998   0.59123   0.00000  Uiso   1.00
C249   C     0.07722   0.94122   0.59167   0.00000  Uiso   1.00
C250   C     0.06700   0.87841   0.55805   0.00000  Uiso   1.00
C251   C     0.14068   0.25151   0.61164   0.00000  Uiso   1.00
C252   C     0.05447   0.27535   0.62922   0.00000  Uiso   1.00
C253   C     0.03383   0.36535   0.61278   0.00000  Uiso   1.00
H254   H     0.34342   0.32403   0.53874   0.00000  Uiso   1.00
H255   H     0.56009   0.41476   0.57077   0.00000  Uiso   1.00
H256   H     0.25530   0.12051   0.49935   0.00000  Uiso   1.00
H257   H     0.23256   0.45459   0.53690   0.00000  Uiso   1.00
H258   H     0.77236   0.48719   0.62075   0.00000  Uiso   1.00
H259   H     0.12967   0.86675   0.47017   0.00000  Uiso   1.00
H260   H     0.08170   0.57122   0.54934   0.00000  Uiso   1.00
H261   H     0.12813   0.10731   0.65035   0.00000  Uiso   1.00
H262   H     0.33298   0.18615   0.68851   0.00000  Uiso   1.00
H263   H     0.02820   0.89190   0.61709   0.00000  Uiso   1.00
H264   H     0.00545   0.22598   0.65464   0.00000  Uiso   1.00
H265   H     0.58803   0.30164   0.71632   0.00000  Uiso   1.00
H266   H     0.94534   0.68119   0.56573   0.00000  Uiso   1.00
H267   H     0.89738   0.38567   0.64490   0.00000  Uiso   1.00
O268   O     0.81884   0.45016   0.69162   0.00000  Uiso   1.00
O269   O     0.97564   0.63617   0.49405   0.00000  Uiso   1.00
O270   O     0.91272   0.56042   0.59792   0.00000  Uiso   1.00
N271   N     0.70086   0.43272   0.63801   0.00000  Uiso   1.00
N272   N     0.10000   0.85264   0.49722   0.00000  Uiso   1.00
N273   N     0.05514   0.51124   0.57124   0.00000  Uiso   1.00
N274   N     0.60168   0.33288   0.68943   0.00000  Uiso   1.00
N275   N     0.00082   0.75280   0.54865   0.00000  Uiso   1.00
N276   N     0.95595   0.41140   0.62266   0.00000  Uiso   1.00
