data_job_02808
_audit_creation_date              2018-12-19
_audit_creation_method            'Materials Studio'
_symmetry_space_group_name_H-M    'P1'
_symmetry_Int_Tables_number       1
_symmetry_cell_setting            triclinic
loop_
_symmetry_equiv_pos_as_xyz
  x,y,z
_cell_length_a                    15.6142
_cell_length_b                    15.6142
_cell_length_c                    20.0136
_cell_angle_alpha                 90.0000
_cell_angle_beta                  90.0000
_cell_angle_gamma                 90.0000
loop_
_atom_site_label
_atom_site_type_symbol
_atom_site_fract_x
_atom_site_fract_y
_atom_site_fract_z
_atom_site_U_iso_or_equiv
_atom_site_adp_type
_atom_site_occupancy
C1     C     0.12346   0.56044   0.92284   0.00000  Uiso   1.00
C2     C     0.12454   0.54021   0.99737   0.00000  Uiso   1.00
C3     C     0.09984   0.46329   0.02628   0.00000  Uiso   1.00
C4     C     0.10553   0.45749   0.09536   0.00000  Uiso   1.00
C5     C     0.10269   0.41564   0.20521   0.00000  Uiso   1.00
C6     C     0.06836   0.64046   0.91503   0.00000  Uiso   1.00
C7     C     0.99643   0.64782   0.87469   0.00000  Uiso   1.00
C8     C     0.95484   0.72642   0.87445   0.00000  Uiso   1.00
C9     C     0.86483   0.84022   0.85642   0.00000  Uiso   1.00
C10    C     0.21450   0.58735   0.90496   0.00000  Uiso   1.00
C11    C     0.26545   0.55008   0.85614   0.00000  Uiso   1.00
C12    C     0.34689   0.58397   0.84741   0.00000  Uiso   1.00
C13    C     0.48379   0.61531   0.81374   0.00000  Uiso   1.00
C14    C     0.17749   0.68693   0.99412   0.00000  Uiso   1.00
C15    C     0.15388   0.60892   0.03609   0.00000  Uiso   1.00
C16    C     0.15962   0.60323   0.10515   0.00000  Uiso   1.00
C17    C     0.13493   0.52632   0.13415   0.00000  Uiso   1.00
C18    C     0.09770   0.70916   0.95375   0.00000  Uiso   1.00
C19    C     0.05622   0.78776   0.95356   0.00000  Uiso   1.00
C20    C     0.98424   0.79525   0.91324   0.00000  Uiso   1.00
C21    C     0.24385   0.65605   0.94368   0.00000  Uiso   1.00
C22    C     0.32523   0.69002   0.93501   0.00000  Uiso   1.00
C23    C     0.37629   0.65280   0.88620   0.00000  Uiso   1.00
H24    H     0.10060   0.50696   0.89269   0.00000  Uiso   1.00
H25    H     0.07712   0.41014   0.99630   0.00000  Uiso   1.00
H26    H     0.97374   0.59465   0.84473   0.00000  Uiso   1.00
H27    H     0.24271   0.49691   0.82619   0.00000  Uiso   1.00
H28    H     0.06399   0.33310   0.12824   0.00000  Uiso   1.00
H29    H     0.84603   0.72216   0.80864   0.00000  Uiso   1.00
H30    H     0.41321   0.51607   0.76953   0.00000  Uiso   1.00
H31    H     0.20034   0.74042   0.02426   0.00000  Uiso   1.00
H32    H     0.18233   0.65641   0.13510   0.00000  Uiso   1.00
H33    H     0.07895   0.84092   0.98353   0.00000  Uiso   1.00
H34    H     0.34792   0.74318   0.96498   0.00000  Uiso   1.00
H35    H     0.14938   0.53299   0.24090   0.00000  Uiso   1.00
H36    H     0.93142   0.92204   0.92128   0.00000  Uiso   1.00
H37    H     0.49860   0.71595   0.88219   0.00000  Uiso   1.00
O38    O     0.09301   0.37358   0.25511   0.00000  Uiso   1.00
O39    O     0.80707   0.88400   0.83578   0.00000  Uiso   1.00
O40    O     0.55119   0.61361   0.78449   0.00000  Uiso   1.00
N41    N     0.08658   0.39167   0.13955   0.00000  Uiso   1.00
N42    N     0.88279   0.75541   0.84074   0.00000  Uiso   1.00
N43    N     0.41305   0.56274   0.80417   0.00000  Uiso   1.00
N44    N     0.13253   0.49923   0.20017   0.00000  Uiso   1.00
N45    N     0.92874   0.86296   0.90136   0.00000  Uiso   1.00
N46    N     0.45899   0.67030   0.86479   0.00000  Uiso   1.00
C47    C     0.87654   0.43956   0.92284   0.00000  Uiso   1.00
C48    C     0.87546   0.45979   0.99737   0.00000  Uiso   1.00
C49    C     0.90016   0.53671   0.02628   0.00000  Uiso   1.00
C50    C     0.89447   0.54251   0.09536   0.00000  Uiso   1.00
C51    C     0.89731   0.58436   0.20521   0.00000  Uiso   1.00
C52    C     0.93164   0.35954   0.91503   0.00000  Uiso   1.00
C53    C     0.00357   0.35218   0.87469   0.00000  Uiso   1.00
C54    C     0.04516   0.27358   0.87445   0.00000  Uiso   1.00
C55    C     0.13517   0.15978   0.85642   0.00000  Uiso   1.00
C56    C     0.78550   0.41265   0.90496   0.00000  Uiso   1.00
C57    C     0.73455   0.44992   0.85614   0.00000  Uiso   1.00
C58    C     0.65311   0.41603   0.84741   0.00000  Uiso   1.00
C59    C     0.51621   0.38469   0.81374   0.00000  Uiso   1.00
C60    C     0.82251   0.31307   0.99412   0.00000  Uiso   1.00
C61    C     0.84612   0.39108   0.03609   0.00000  Uiso   1.00
C62    C     0.84038   0.39677   0.10515   0.00000  Uiso   1.00
C63    C     0.86507   0.47368   0.13415   0.00000  Uiso   1.00
C64    C     0.90230   0.29084   0.95375   0.00000  Uiso   1.00
C65    C     0.94378   0.21224   0.95356   0.00000  Uiso   1.00
C66    C     0.01576   0.20475   0.91324   0.00000  Uiso   1.00
C67    C     0.75615   0.34395   0.94368   0.00000  Uiso   1.00
C68    C     0.67477   0.30998   0.93501   0.00000  Uiso   1.00
C69    C     0.62371   0.34720   0.88620   0.00000  Uiso   1.00
H70    H     0.89940   0.49304   0.89269   0.00000  Uiso   1.00
H71    H     0.92288   0.58986   0.99630   0.00000  Uiso   1.00
H72    H     0.02626   0.40535   0.84473   0.00000  Uiso   1.00
H73    H     0.75729   0.50309   0.82619   0.00000  Uiso   1.00
H74    H     0.93601   0.66690   0.12824   0.00000  Uiso   1.00
H75    H     0.15397   0.27784   0.80864   0.00000  Uiso   1.00
H76    H     0.58679   0.48393   0.76953   0.00000  Uiso   1.00
H77    H     0.79966   0.25958   0.02426   0.00000  Uiso   1.00
H78    H     0.81767   0.34359   0.13510   0.00000  Uiso   1.00
H79    H     0.92105   0.15908   0.98353   0.00000  Uiso   1.00
H80    H     0.65208   0.25682   0.96498   0.00000  Uiso   1.00
H81    H     0.85062   0.46701   0.24090   0.00000  Uiso   1.00
H82    H     0.06858   0.07796   0.92128   0.00000  Uiso   1.00
H83    H     0.50140   0.28405   0.88219   0.00000  Uiso   1.00
O84    O     0.90699   0.62642   0.25511   0.00000  Uiso   1.00
O85    O     0.19293   0.11600   0.83578   0.00000  Uiso   1.00
O86    O     0.44881   0.38639   0.78449   0.00000  Uiso   1.00
N87    N     0.91342   0.60833   0.13955   0.00000  Uiso   1.00
N88    N     0.11721   0.24459   0.84074   0.00000  Uiso   1.00
N89    N     0.58695   0.43726   0.80417   0.00000  Uiso   1.00
N90    N     0.86747   0.50077   0.20017   0.00000  Uiso   1.00
N91    N     0.07126   0.13704   0.90136   0.00000  Uiso   1.00
N92    N     0.54101   0.32970   0.86479   0.00000  Uiso   1.00
C93    C     0.56044   0.87654   0.07716   0.00000  Uiso   1.00
C94    C     0.54021   0.87546   0.00263   0.00000  Uiso   1.00
C95    C     0.46329   0.90016   0.97372   0.00000  Uiso   1.00
C96    C     0.45749   0.89447   0.90464   0.00000  Uiso   1.00
C97    C     0.41564   0.89731   0.79479   0.00000  Uiso   1.00
C98    C     0.64046   0.93164   0.08497   0.00000  Uiso   1.00
C99    C     0.64782   0.00357   0.12531   0.00000  Uiso   1.00
C100   C     0.72642   0.04516   0.12555   0.00000  Uiso   1.00
C101   C     0.84022   0.13517   0.14358   0.00000  Uiso   1.00
C102   C     0.58735   0.78550   0.09504   0.00000  Uiso   1.00
C103   C     0.55008   0.73455   0.14386   0.00000  Uiso   1.00
C104   C     0.58397   0.65311   0.15259   0.00000  Uiso   1.00
C105   C     0.61531   0.51621   0.18626   0.00000  Uiso   1.00
C106   C     0.68693   0.82251   0.00588   0.00000  Uiso   1.00
C107   C     0.60892   0.84612   0.96391   0.00000  Uiso   1.00
C108   C     0.60323   0.84038   0.89485   0.00000  Uiso   1.00
C109   C     0.52632   0.86507   0.86585   0.00000  Uiso   1.00
C110   C     0.70916   0.90230   0.04625   0.00000  Uiso   1.00
C111   C     0.78776   0.94378   0.04644   0.00000  Uiso   1.00
C112   C     0.79525   0.01576   0.08676   0.00000  Uiso   1.00
C113   C     0.65605   0.75615   0.05632   0.00000  Uiso   1.00
C114   C     0.69002   0.67477   0.06499   0.00000  Uiso   1.00
C115   C     0.65280   0.62371   0.11380   0.00000  Uiso   1.00
H116   H     0.50696   0.89940   0.10731   0.00000  Uiso   1.00
H117   H     0.41014   0.92288   0.00370   0.00000  Uiso   1.00
H118   H     0.59465   0.02626   0.15527   0.00000  Uiso   1.00
H119   H     0.49691   0.75729   0.17381   0.00000  Uiso   1.00
H120   H     0.33310   0.93601   0.87176   0.00000  Uiso   1.00
H121   H     0.72216   0.15397   0.19136   0.00000  Uiso   1.00
H122   H     0.51607   0.58679   0.23047   0.00000  Uiso   1.00
H123   H     0.74042   0.79966   0.97574   0.00000  Uiso   1.00
H124   H     0.65641   0.81767   0.86490   0.00000  Uiso   1.00
H125   H     0.84092   0.92105   0.01647   0.00000  Uiso   1.00
H126   H     0.74318   0.65208   0.03502   0.00000  Uiso   1.00
H127   H     0.53299   0.85062   0.75910   0.00000  Uiso   1.00
H128   H     0.92204   0.06858   0.07872   0.00000  Uiso   1.00
H129   H     0.71595   0.50140   0.11781   0.00000  Uiso   1.00
O130   O     0.37358   0.90699   0.74489   0.00000  Uiso   1.00
O131   O     0.88400   0.19293   0.16422   0.00000  Uiso   1.00
O132   O     0.61361   0.44881   0.21551   0.00000  Uiso   1.00
N133   N     0.39167   0.91342   0.86045   0.00000  Uiso   1.00
N134   N     0.75541   0.11721   0.15926   0.00000  Uiso   1.00
N135   N     0.56274   0.58695   0.19583   0.00000  Uiso   1.00
N136   N     0.49923   0.86747   0.79983   0.00000  Uiso   1.00
N137   N     0.86296   0.07126   0.09864   0.00000  Uiso   1.00
N138   N     0.67030   0.54101   0.13521   0.00000  Uiso   1.00
C139   C     0.43956   0.12346   0.07716   0.00000  Uiso   1.00
C140   C     0.45979   0.12454   0.00263   0.00000  Uiso   1.00
C141   C     0.53671   0.09984   0.97372   0.00000  Uiso   1.00
C142   C     0.54251   0.10553   0.90464   0.00000  Uiso   1.00
C143   C     0.58436   0.10269   0.79479   0.00000  Uiso   1.00
C144   C     0.35954   0.06836   0.08497   0.00000  Uiso   1.00
C145   C     0.35218   0.99643   0.12531   0.00000  Uiso   1.00
C146   C     0.27358   0.95484   0.12555   0.00000  Uiso   1.00
C147   C     0.15978   0.86483   0.14358   0.00000  Uiso   1.00
C148   C     0.41265   0.21450   0.09504   0.00000  Uiso   1.00
C149   C     0.44992   0.26545   0.14386   0.00000  Uiso   1.00
C150   C     0.41603   0.34689   0.15259   0.00000  Uiso   1.00
C151   C     0.38469   0.48379   0.18626   0.00000  Uiso   1.00
C152   C     0.31307   0.17749   0.00588   0.00000  Uiso   1.00
C153   C     0.39108   0.15388   0.96391   0.00000  Uiso   1.00
C154   C     0.39677   0.15962   0.89485   0.00000  Uiso   1.00
C155   C     0.47368   0.13493   0.86585   0.00000  Uiso   1.00
C156   C     0.29084   0.09770   0.04625   0.00000  Uiso   1.00
C157   C     0.21224   0.05622   0.04644   0.00000  Uiso   1.00
C158   C     0.20475   0.98424   0.08676   0.00000  Uiso   1.00
C159   C     0.34395   0.24385   0.05632   0.00000  Uiso   1.00
C160   C     0.30998   0.32523   0.06499   0.00000  Uiso   1.00
C161   C     0.34720   0.37629   0.11380   0.00000  Uiso   1.00
H162   H     0.49304   0.10060   0.10731   0.00000  Uiso   1.00
H163   H     0.58986   0.07712   0.00370   0.00000  Uiso   1.00
H164   H     0.40535   0.97374   0.15527   0.00000  Uiso   1.00
H165   H     0.50309   0.24271   0.17381   0.00000  Uiso   1.00
H166   H     0.66690   0.06399   0.87176   0.00000  Uiso   1.00
H167   H     0.27784   0.84603   0.19136   0.00000  Uiso   1.00
H168   H     0.48393   0.41321   0.23047   0.00000  Uiso   1.00
H169   H     0.25958   0.20034   0.97574   0.00000  Uiso   1.00
H170   H     0.34359   0.18233   0.86490   0.00000  Uiso   1.00
H171   H     0.15908   0.07895   0.01647   0.00000  Uiso   1.00
H172   H     0.25682   0.34792   0.03502   0.00000  Uiso   1.00
H173   H     0.46701   0.14938   0.75910   0.00000  Uiso   1.00
H174   H     0.07796   0.93142   0.07872   0.00000  Uiso   1.00
H175   H     0.28405   0.49860   0.11781   0.00000  Uiso   1.00
O176   O     0.62642   0.09301   0.74489   0.00000  Uiso   1.00
O177   O     0.11600   0.80707   0.16422   0.00000  Uiso   1.00
O178   O     0.38639   0.55119   0.21551   0.00000  Uiso   1.00
N179   N     0.60833   0.08658   0.86045   0.00000  Uiso   1.00
N180   N     0.24459   0.88279   0.15926   0.00000  Uiso   1.00
N181   N     0.43726   0.41305   0.19583   0.00000  Uiso   1.00
N182   N     0.50077   0.13253   0.79983   0.00000  Uiso   1.00
N183   N     0.13704   0.92874   0.09864   0.00000  Uiso   1.00
N184   N     0.32970   0.45899   0.13521   0.00000  Uiso   1.00
C185   C     0.37654   0.06044   0.57716   0.00000  Uiso   1.00
C186   C     0.37546   0.04021   0.50263   0.00000  Uiso   1.00
C187   C     0.40016   0.96329   0.47372   0.00000  Uiso   1.00
C188   C     0.39447   0.95749   0.40464   0.00000  Uiso   1.00
C189   C     0.39731   0.91564   0.29479   0.00000  Uiso   1.00
C190   C     0.43164   0.14046   0.58497   0.00000  Uiso   1.00
C191   C     0.50357   0.14782   0.62531   0.00000  Uiso   1.00
C192   C     0.54516   0.22642   0.62555   0.00000  Uiso   1.00
C193   C     0.63517   0.34022   0.64358   0.00000  Uiso   1.00
C194   C     0.28550   0.08735   0.59504   0.00000  Uiso   1.00
C195   C     0.23455   0.05008   0.64386   0.00000  Uiso   1.00
C196   C     0.15311   0.08397   0.65259   0.00000  Uiso   1.00
C197   C     0.01621   0.11531   0.68626   0.00000  Uiso   1.00
C198   C     0.32251   0.18693   0.50588   0.00000  Uiso   1.00
C199   C     0.34612   0.10892   0.46391   0.00000  Uiso   1.00
C200   C     0.34038   0.10323   0.39485   0.00000  Uiso   1.00
C201   C     0.36507   0.02632   0.36585   0.00000  Uiso   1.00
C202   C     0.40230   0.20916   0.54625   0.00000  Uiso   1.00
C203   C     0.44378   0.28776   0.54644   0.00000  Uiso   1.00
C204   C     0.51576   0.29525   0.58676   0.00000  Uiso   1.00
C205   C     0.25615   0.15605   0.55632   0.00000  Uiso   1.00
C206   C     0.17477   0.19002   0.56499   0.00000  Uiso   1.00
C207   C     0.12371   0.15280   0.61380   0.00000  Uiso   1.00
H208   H     0.39940   0.00696   0.60731   0.00000  Uiso   1.00
H209   H     0.42288   0.91014   0.50370   0.00000  Uiso   1.00
H210   H     0.52626   0.09465   0.65527   0.00000  Uiso   1.00
H211   H     0.25729   0.99691   0.67381   0.00000  Uiso   1.00
H212   H     0.43601   0.83310   0.37176   0.00000  Uiso   1.00
H213   H     0.65397   0.22216   0.69136   0.00000  Uiso   1.00
H214   H     0.08679   0.01607   0.73047   0.00000  Uiso   1.00
H215   H     0.29966   0.24042   0.47574   0.00000  Uiso   1.00
H216   H     0.31767   0.15641   0.36490   0.00000  Uiso   1.00
H217   H     0.42105   0.34092   0.51647   0.00000  Uiso   1.00
H218   H     0.15208   0.24318   0.53502   0.00000  Uiso   1.00
H219   H     0.35062   0.03299   0.25910   0.00000  Uiso   1.00
H220   H     0.56858   0.42204   0.57871   0.00000  Uiso   1.00
H221   H     0.00140   0.21595   0.61781   0.00000  Uiso   1.00
O222   O     0.40699   0.87358   0.24489   0.00000  Uiso   1.00
O223   O     0.69293   0.38400   0.66422   0.00000  Uiso   1.00
O224   O     0.94881   0.11361   0.71551   0.00000  Uiso   1.00
N225   N     0.41342   0.89167   0.36045   0.00000  Uiso   1.00
N226   N     0.61721   0.25541   0.65926   0.00000  Uiso   1.00
N227   N     0.08695   0.06274   0.69583   0.00000  Uiso   1.00
N228   N     0.36747   0.99923   0.29983   0.00000  Uiso   1.00
N229   N     0.57126   0.36296   0.59864   0.00000  Uiso   1.00
N230   N     0.04101   0.17030   0.63521   0.00000  Uiso   1.00
C231   C     0.62346   0.93956   0.57716   0.00000  Uiso   1.00
C232   C     0.62454   0.95979   0.50263   0.00000  Uiso   1.00
C233   C     0.59984   0.03671   0.47372   0.00000  Uiso   1.00
C234   C     0.60553   0.04251   0.40464   0.00000  Uiso   1.00
C235   C     0.60269   0.08436   0.29479   0.00000  Uiso   1.00
C236   C     0.56836   0.85954   0.58497   0.00000  Uiso   1.00
C237   C     0.49643   0.85218   0.62531   0.00000  Uiso   1.00
C238   C     0.45484   0.77358   0.62555   0.00000  Uiso   1.00
C239   C     0.36483   0.65978   0.64358   0.00000  Uiso   1.00
C240   C     0.71450   0.91265   0.59504   0.00000  Uiso   1.00
C241   C     0.76545   0.94992   0.64386   0.00000  Uiso   1.00
C242   C     0.84689   0.91603   0.65259   0.00000  Uiso   1.00
C243   C     0.98379   0.88469   0.68626   0.00000  Uiso   1.00
C244   C     0.67749   0.81307   0.50588   0.00000  Uiso   1.00
C245   C     0.65388   0.89108   0.46391   0.00000  Uiso   1.00
C246   C     0.65962   0.89677   0.39485   0.00000  Uiso   1.00
C247   C     0.63493   0.97368   0.36585   0.00000  Uiso   1.00
C248   C     0.59770   0.79084   0.54625   0.00000  Uiso   1.00
C249   C     0.55622   0.71224   0.54644   0.00000  Uiso   1.00
C250   C     0.48424   0.70475   0.58676   0.00000  Uiso   1.00
C251   C     0.74385   0.84395   0.55632   0.00000  Uiso   1.00
C252   C     0.82523   0.80998   0.56499   0.00000  Uiso   1.00
C253   C     0.87629   0.84720   0.61380   0.00000  Uiso   1.00
H254   H     0.60060   0.99304   0.60731   0.00000  Uiso   1.00
H255   H     0.57712   0.08986   0.50370   0.00000  Uiso   1.00
H256   H     0.47374   0.90535   0.65527   0.00000  Uiso   1.00
H257   H     0.74271   0.00309   0.67381   0.00000  Uiso   1.00
H258   H     0.56399   0.16690   0.37176   0.00000  Uiso   1.00
H259   H     0.34603   0.77784   0.69136   0.00000  Uiso   1.00
H260   H     0.91321   0.98393   0.73047   0.00000  Uiso   1.00
H261   H     0.70034   0.75958   0.47574   0.00000  Uiso   1.00
H262   H     0.68233   0.84359   0.36490   0.00000  Uiso   1.00
H263   H     0.57895   0.65908   0.51647   0.00000  Uiso   1.00
H264   H     0.84792   0.75682   0.53502   0.00000  Uiso   1.00
H265   H     0.64938   0.96701   0.25910   0.00000  Uiso   1.00
H266   H     0.43142   0.57796   0.57871   0.00000  Uiso   1.00
H267   H     0.99860   0.78405   0.61781   0.00000  Uiso   1.00
O268   O     0.59301   0.12642   0.24489   0.00000  Uiso   1.00
O269   O     0.30707   0.61600   0.66422   0.00000  Uiso   1.00
O270   O     0.05119   0.88639   0.71551   0.00000  Uiso   1.00
N271   N     0.58658   0.10833   0.36045   0.00000  Uiso   1.00
N272   N     0.38279   0.74459   0.65926   0.00000  Uiso   1.00
N273   N     0.91305   0.93726   0.69583   0.00000  Uiso   1.00
N274   N     0.63253   0.00077   0.29983   0.00000  Uiso   1.00
N275   N     0.42874   0.63704   0.59864   0.00000  Uiso   1.00
N276   N     0.95899   0.82970   0.63521   0.00000  Uiso   1.00
C277   C     0.93956   0.37654   0.42284   0.00000  Uiso   1.00
C278   C     0.95979   0.37546   0.49737   0.00000  Uiso   1.00
C279   C     0.03671   0.40016   0.52628   0.00000  Uiso   1.00
C280   C     0.04251   0.39447   0.59536   0.00000  Uiso   1.00
C281   C     0.08436   0.39731   0.70521   0.00000  Uiso   1.00
C282   C     0.85954   0.43164   0.41503   0.00000  Uiso   1.00
C283   C     0.85218   0.50357   0.37469   0.00000  Uiso   1.00
C284   C     0.77358   0.54516   0.37445   0.00000  Uiso   1.00
C285   C     0.65978   0.63517   0.35642   0.00000  Uiso   1.00
C286   C     0.91265   0.28550   0.40496   0.00000  Uiso   1.00
C287   C     0.94992   0.23455   0.35614   0.00000  Uiso   1.00
C288   C     0.91603   0.15311   0.34741   0.00000  Uiso   1.00
C289   C     0.88469   0.01621   0.31374   0.00000  Uiso   1.00
C290   C     0.81307   0.32251   0.49412   0.00000  Uiso   1.00
C291   C     0.89108   0.34612   0.53609   0.00000  Uiso   1.00
C292   C     0.89677   0.34038   0.60515   0.00000  Uiso   1.00
C293   C     0.97368   0.36507   0.63415   0.00000  Uiso   1.00
C294   C     0.79084   0.40230   0.45375   0.00000  Uiso   1.00
C295   C     0.71224   0.44378   0.45356   0.00000  Uiso   1.00
C296   C     0.70475   0.51576   0.41324   0.00000  Uiso   1.00
C297   C     0.84395   0.25615   0.44368   0.00000  Uiso   1.00
C298   C     0.80998   0.17477   0.43501   0.00000  Uiso   1.00
C299   C     0.84720   0.12371   0.38620   0.00000  Uiso   1.00
H300   H     0.99304   0.39940   0.39269   0.00000  Uiso   1.00
H301   H     0.08986   0.42288   0.49630   0.00000  Uiso   1.00
H302   H     0.90535   0.52626   0.34473   0.00000  Uiso   1.00
H303   H     0.00309   0.25729   0.32619   0.00000  Uiso   1.00
H304   H     0.16690   0.43601   0.62824   0.00000  Uiso   1.00
H305   H     0.77784   0.65397   0.30864   0.00000  Uiso   1.00
H306   H     0.98393   0.08679   0.26953   0.00000  Uiso   1.00
H307   H     0.75958   0.29966   0.52426   0.00000  Uiso   1.00
H308   H     0.84359   0.31767   0.63510   0.00000  Uiso   1.00
H309   H     0.65908   0.42105   0.48353   0.00000  Uiso   1.00
H310   H     0.75682   0.15208   0.46498   0.00000  Uiso   1.00
H311   H     0.96701   0.35062   0.74090   0.00000  Uiso   1.00
H312   H     0.57796   0.56858   0.42128   0.00000  Uiso   1.00
H313   H     0.78405   0.00140   0.38219   0.00000  Uiso   1.00
O314   O     0.12642   0.40699   0.75511   0.00000  Uiso   1.00
O315   O     0.61600   0.69293   0.33578   0.00000  Uiso   1.00
O316   O     0.88639   0.94881   0.28449   0.00000  Uiso   1.00
N317   N     0.10833   0.41342   0.63955   0.00000  Uiso   1.00
N318   N     0.74459   0.61721   0.34074   0.00000  Uiso   1.00
N319   N     0.93726   0.08695   0.30417   0.00000  Uiso   1.00
N320   N     0.00077   0.36747   0.70017   0.00000  Uiso   1.00
N321   N     0.63704   0.57126   0.40136   0.00000  Uiso   1.00
N322   N     0.82970   0.04101   0.36479   0.00000  Uiso   1.00
C323   C     0.06044   0.62346   0.42284   0.00000  Uiso   1.00
C324   C     0.04021   0.62454   0.49737   0.00000  Uiso   1.00
C325   C     0.96329   0.59984   0.52628   0.00000  Uiso   1.00
C326   C     0.95749   0.60553   0.59536   0.00000  Uiso   1.00
C327   C     0.91564   0.60269   0.70521   0.00000  Uiso   1.00
C328   C     0.14046   0.56836   0.41503   0.00000  Uiso   1.00
C329   C     0.14782   0.49643   0.37469   0.00000  Uiso   1.00
C330   C     0.22642   0.45484   0.37445   0.00000  Uiso   1.00
C331   C     0.34022   0.36483   0.35642   0.00000  Uiso   1.00
C332   C     0.08735   0.71450   0.40496   0.00000  Uiso   1.00
C333   C     0.05008   0.76545   0.35614   0.00000  Uiso   1.00
C334   C     0.08397   0.84689   0.34741   0.00000  Uiso   1.00
C335   C     0.11531   0.98379   0.31374   0.00000  Uiso   1.00
C336   C     0.18693   0.67749   0.49412   0.00000  Uiso   1.00
C337   C     0.10892   0.65388   0.53609   0.00000  Uiso   1.00
C338   C     0.10323   0.65962   0.60515   0.00000  Uiso   1.00
C339   C     0.02632   0.63493   0.63415   0.00000  Uiso   1.00
C340   C     0.20916   0.59770   0.45375   0.00000  Uiso   1.00
C341   C     0.28776   0.55622   0.45356   0.00000  Uiso   1.00
C342   C     0.29525   0.48424   0.41324   0.00000  Uiso   1.00
C343   C     0.15605   0.74385   0.44368   0.00000  Uiso   1.00
C344   C     0.19002   0.82523   0.43501   0.00000  Uiso   1.00
C345   C     0.15280   0.87629   0.38620   0.00000  Uiso   1.00
H346   H     0.00696   0.60060   0.39269   0.00000  Uiso   1.00
H347   H     0.91014   0.57712   0.49630   0.00000  Uiso   1.00
H348   H     0.09465   0.47374   0.34473   0.00000  Uiso   1.00
H349   H     0.99691   0.74271   0.32619   0.00000  Uiso   1.00
H350   H     0.83310   0.56399   0.62824   0.00000  Uiso   1.00
H351   H     0.22216   0.34603   0.30864   0.00000  Uiso   1.00
H352   H     0.01607   0.91321   0.26953   0.00000  Uiso   1.00
H353   H     0.24042   0.70034   0.52426   0.00000  Uiso   1.00
H354   H     0.15641   0.68233   0.63510   0.00000  Uiso   1.00
H355   H     0.34092   0.57895   0.48353   0.00000  Uiso   1.00
H356   H     0.24318   0.84792   0.46498   0.00000  Uiso   1.00
H357   H     0.03299   0.64938   0.74090   0.00000  Uiso   1.00
H358   H     0.42204   0.43142   0.42128   0.00000  Uiso   1.00
H359   H     0.21595   0.99860   0.38219   0.00000  Uiso   1.00
O360   O     0.87358   0.59301   0.75511   0.00000  Uiso   1.00
O361   O     0.38400   0.30707   0.33578   0.00000  Uiso   1.00
O362   O     0.11361   0.05119   0.28449   0.00000  Uiso   1.00
N363   N     0.89167   0.58658   0.63955   0.00000  Uiso   1.00
N364   N     0.25541   0.38279   0.34074   0.00000  Uiso   1.00
N365   N     0.06274   0.91305   0.30417   0.00000  Uiso   1.00
N366   N     0.99923   0.63253   0.70017   0.00000  Uiso   1.00
N367   N     0.36296   0.42874   0.40136   0.00000  Uiso   1.00
N368   N     0.17030   0.95899   0.36479   0.00000  Uiso   1.00
