data_job_06223
_audit_creation_date              2018-12-19
_audit_creation_method            'Materials Studio'
_symmetry_space_group_name_H-M    'P1'
_symmetry_Int_Tables_number       1
_symmetry_cell_setting            triclinic
loop_
_symmetry_equiv_pos_as_xyz
  x,y,z
_cell_length_a                    11.8263
_cell_length_b                    20.8419
_cell_length_c                    20.9618
_cell_angle_alpha                 116.5320
_cell_angle_beta                  79.1359
_cell_angle_gamma                 79.9856
loop_
_atom_site_label
_atom_site_type_symbol
_atom_site_fract_x
_atom_site_fract_y
_atom_site_fract_z
_atom_site_U_iso_or_equiv
_atom_site_adp_type
_atom_site_occupancy
C1     C     0.51352   0.85686   0.65003   0.00000  Uiso   1.00
C2     C     0.44430   0.90668   0.62607   0.00000  Uiso   1.00
C3     C     0.32937   0.95644   0.66532   0.00000  Uiso   1.00
C4     C     0.28172   0.99689   0.63402   0.00000  Uiso   1.00
C5     C     0.16432   0.07559   0.60716   0.00000  Uiso   1.00
C6     C     0.54624   0.77673   0.58563   0.00000  Uiso   1.00
C7     C     0.51703   0.71723   0.59089   0.00000  Uiso   1.00
C8     C     0.55520   0.64829   0.52554   0.00000  Uiso   1.00
C9     C     0.59614   0.52522   0.43592   0.00000  Uiso   1.00
C10    C     0.63209   0.87577   0.65243   0.00000  Uiso   1.00
C11    C     0.67509   0.89952   0.71385   0.00000  Uiso   1.00
C12    C     0.78556   0.91395   0.70474   0.00000  Uiso   1.00
C13    C     0.95979   0.94466   0.71883   0.00000  Uiso   1.00
C14    C     0.63328   0.84022   0.52462   0.00000  Uiso   1.00
C15    C     0.50935   0.89763   0.55795   0.00000  Uiso   1.00
C16    C     0.46187   0.93802   0.52658   0.00000  Uiso   1.00
C17    C     0.34689   0.98784   0.56578   0.00000  Uiso   1.00
C18    C     0.61128   0.76769   0.51752   0.00000  Uiso   1.00
C19    C     0.64952   0.69881   0.45214   0.00000  Uiso   1.00
C20    C     0.62037   0.63923   0.45730   0.00000  Uiso   1.00
C21    C     0.69714   0.86673   0.58432   0.00000  Uiso   1.00
C22    C     0.80758   0.88111   0.57510   0.00000  Uiso   1.00
C23    C     0.85073   0.90489   0.63650   0.00000  Uiso   1.00
H24    H     0.46288   0.86389   0.70306   0.00000  Uiso   1.00
H25    H     0.27905   0.96341   0.71803   0.00000  Uiso   1.00
H26    H     0.46670   0.72424   0.64361   0.00000  Uiso   1.00
H27    H     0.62472   0.90651   0.76655   0.00000  Uiso   1.00
H28    H     0.10392   0.06974   0.70459   0.00000  Uiso   1.00
H29    H     0.49960   0.56542   0.54767   0.00000  Uiso   1.00
H30    H     0.83284   0.94978   0.80692   0.00000  Uiso   1.00
H31    H     0.68393   0.83318   0.47159   0.00000  Uiso   1.00
H32    H     0.51223   0.93102   0.47387   0.00000  Uiso   1.00
H33    H     0.69987   0.69184   0.39944   0.00000  Uiso   1.00
H34    H     0.85789   0.87411   0.52239   0.00000  Uiso   1.00
H35    H     0.29317   0.04344   0.50641   0.00000  Uiso   1.00
H36    H     0.68886   0.53912   0.34949   0.00000  Uiso   1.00
H37    H     0.02209   0.92348   0.60874   0.00000  Uiso   1.00
O38    O     0.08159   0.12148   0.61116   0.00000  Uiso   1.00
O39    O     0.60073   0.45984   0.40530   0.00000  Uiso   1.00
O40    O     0.03792   0.96411   0.74542   0.00000  Uiso   1.00
N41    N     0.17203   0.05013   0.65764   0.00000  Uiso   1.00
N42    N     0.54195   0.57863   0.51093   0.00000  Uiso   1.00
N43    N     0.85352   0.93795   0.75330   0.00000  Uiso   1.00
N44    N     0.27387   0.03599   0.55100   0.00000  Uiso   1.00
N45    N     0.64379   0.56448   0.40429   0.00000  Uiso   1.00
N46    N     0.95535   0.92380   0.64666   0.00000  Uiso   1.00
C47    C     0.16247   0.34940   0.20727   0.00000  Uiso   1.00
C48    C     0.06962   0.37225   0.28064   0.00000  Uiso   1.00
C49    C     0.99390   0.33156   0.29112   0.00000  Uiso   1.00
C50    C     0.91527   0.36204   0.36250   0.00000  Uiso   1.00
C51    C     0.77146   0.38709   0.46749   0.00000  Uiso   1.00
C52    C     0.13152   0.41405   0.19163   0.00000  Uiso   1.00
C53    C     0.10787   0.40849   0.12726   0.00000  Uiso   1.00
C54    C     0.08136   0.47416   0.12370   0.00000  Uiso   1.00
C55    C     0.03375   0.56409   0.09047   0.00000  Uiso   1.00
C56    C     0.28285   0.34857   0.22362   0.00000  Uiso   1.00
C57    C     0.38645   0.28797   0.18613   0.00000  Uiso   1.00
C58    C     0.48737   0.29852   0.20949   0.00000  Uiso   1.00
C59    C     0.67471   0.28680   0.22593   0.00000  Uiso   1.00
C60    C     0.15748   0.47589   0.31538   0.00000  Uiso   1.00
C61    C     0.06691   0.44096   0.33937   0.00000  Uiso   1.00
C62    C     0.98838   0.47151   0.41075   0.00000  Uiso   1.00
C63    C     0.91256   0.43086   0.42133   0.00000  Uiso   1.00
C64    C     0.12881   0.48275   0.25035   0.00000  Uiso   1.00
C65    C     0.10234   0.54844   0.24688   0.00000  Uiso   1.00
C66    C     0.07865   0.54299   0.18253   0.00000  Uiso   1.00
C67    C     0.28014   0.41728   0.28234   0.00000  Uiso   1.00
C68    C     0.38092   0.42792   0.30575   0.00000  Uiso   1.00
C69    C     0.48465   0.36735   0.26832   0.00000  Uiso   1.00
H70    H     0.16458   0.29591   0.16154   0.00000  Uiso   1.00
H71    H     0.99602   0.27839   0.24566   0.00000  Uiso   1.00
H72    H     0.10998   0.35531   0.08182   0.00000  Uiso   1.00
H73    H     0.38852   0.23482   0.14069   0.00000  Uiso   1.00
H74    H     0.80791   0.28929   0.36481   0.00000  Uiso   1.00
H75    H     0.04824   0.45147   0.01934   0.00000  Uiso   1.00
H76    H     0.63559   0.19738   0.14346   0.00000  Uiso   1.00
H77    H     0.15537   0.52938   0.36110   0.00000  Uiso   1.00
H78    H     0.98630   0.52468   0.45618   0.00000  Uiso   1.00
H79    H     0.10026   0.60160   0.29234   0.00000  Uiso   1.00
H80    H     0.37879   0.48110   0.35120   0.00000  Uiso   1.00
H81    H     0.80001   0.48918   0.53568   0.00000  Uiso   1.00
H82    H     0.04036   0.65137   0.19020   0.00000  Uiso   1.00
H83    H     0.62770   0.39728   0.31433   0.00000  Uiso   1.00
O84    O     0.69288   0.38194   0.50918   0.00000  Uiso   1.00
O85    O     0.00821   0.59472   0.05592   0.00000  Uiso   1.00
O86    O     0.77879   0.26135   0.21878   0.00000  Uiso   1.00
N87    N     0.82927   0.33697   0.39198   0.00000  Uiso   1.00
N88    N     0.05395   0.48861   0.06899   0.00000  Uiso   1.00
N89    N     0.60308   0.25106   0.18502   0.00000  Uiso   1.00
N90    N     0.82502   0.44453   0.48392   0.00000  Uiso   1.00
N91    N     0.04970   0.59617   0.16093   0.00000  Uiso   1.00
N92    N     0.59884   0.35862   0.27696   0.00000  Uiso   1.00
C93    C     0.37069   0.79330   0.14249   0.00000  Uiso   1.00
C94    C     0.35087   0.71896   0.09228   0.00000  Uiso   1.00
C95    C     0.28602   0.70755   0.04144   0.00000  Uiso   1.00
C96    C     0.27835   0.63540   0.00080   0.00000  Uiso   1.00
C97    C     0.23914   0.52889   0.92135   0.00000  Uiso   1.00
C98    C     0.32413   0.80837   0.22233   0.00000  Uiso   1.00
C99    C     0.23679   0.87214   0.28083   0.00000  Uiso   1.00
C100   C     0.20663   0.87525   0.34967   0.00000  Uiso   1.00
C101   C     0.12594   0.90758   0.47214   0.00000  Uiso   1.00
C102   C     0.50676   0.77864   0.12537   0.00000  Uiso   1.00
C103   C     0.57299   0.81744   0.10236   0.00000  Uiso   1.00
C104   C     0.69659   0.79553   0.08957   0.00000  Uiso   1.00
C105   C     0.89947   0.78170   0.06148   0.00000  Uiso   1.00
C106   C     0.47241   0.68543   0.16072   0.00000  Uiso   1.00
C107   C     0.40613   0.66037   0.10219   0.00000  Uiso   1.00
C108   C     0.39857   0.58821   0.06161   0.00000  Uiso   1.00
C109   C     0.33371   0.57670   0.01071   0.00000  Uiso   1.00
C110   C     0.37937   0.74978   0.23223   0.00000  Uiso   1.00
C111   C     0.34934   0.75280   0.30100   0.00000  Uiso   1.00
C112   C     0.26198   0.81656   0.35959   0.00000  Uiso   1.00
C113   C     0.56201   0.72005   0.13526   0.00000  Uiso   1.00
C114   C     0.68553   0.69809   0.12252   0.00000  Uiso   1.00
C115   C     0.75194   0.73683   0.09949   0.00000  Uiso   1.00
H116   H     0.32767   0.83891   0.13479   0.00000  Uiso   1.00
H117   H     0.24326   0.75291   0.03380   0.00000  Uiso   1.00
H118   H     0.19406   0.91747   0.27316   0.00000  Uiso   1.00
H119   H     0.53020   0.86277   0.09470   0.00000  Uiso   1.00
H120   H     0.17401   0.63173   0.92622   0.00000  Uiso   1.00
H121   H     0.07029   0.97873   0.43092   0.00000  Uiso   1.00
H122   H     0.77911   0.86338   0.05461   0.00000  Uiso   1.00
H123   H     0.51543   0.63981   0.16843   0.00000  Uiso   1.00
H124   H     0.44133   0.54288   0.06928   0.00000  Uiso   1.00
H125   H     0.39212   0.70745   0.30864   0.00000  Uiso   1.00
H126   H     0.72826   0.65274   0.13018   0.00000  Uiso   1.00
H127   H     0.33477   0.46127   0.95502   0.00000  Uiso   1.00
H128   H     0.23105   0.80827   0.45972   0.00000  Uiso   1.00
H129   H     0.93987   0.69292   0.08341   0.00000  Uiso   1.00
O130   O     0.20223   0.48634   0.87481   0.00000  Uiso   1.00
O131   O     0.06616   0.94159   0.53695   0.00000  Uiso   1.00
O132   O     0.99611   0.79025   0.04325   0.00000  Uiso   1.00
N133   N     0.22204   0.60491   0.94659   0.00000  Uiso   1.00
N134   N     0.12505   0.92933   0.41845   0.00000  Uiso   1.00
N135   N     0.78773   0.82150   0.06666   0.00000  Uiso   1.00
N136   N     0.30854   0.51319   0.96209   0.00000  Uiso   1.00
N137   N     0.21155   0.83761   0.43395   0.00000  Uiso   1.00
N138   N     0.87423   0.72978   0.08216   0.00000  Uiso   1.00
C139   C     0.48648   0.14314   0.34997   0.00000  Uiso   1.00
C140   C     0.55570   0.09332   0.37393   0.00000  Uiso   1.00
C141   C     0.67063   0.04356   0.33468   0.00000  Uiso   1.00
C142   C     0.71828   0.00311   0.36598   0.00000  Uiso   1.00
C143   C     0.83568   0.92441   0.39284   0.00000  Uiso   1.00
C144   C     0.45376   0.22327   0.41437   0.00000  Uiso   1.00
C145   C     0.48297   0.28277   0.40911   0.00000  Uiso   1.00
C146   C     0.44480   0.35172   0.47446   0.00000  Uiso   1.00
C147   C     0.40386   0.47478   0.56408   0.00000  Uiso   1.00
C148   C     0.36791   0.12423   0.34757   0.00000  Uiso   1.00
C149   C     0.32491   0.10048   0.28615   0.00000  Uiso   1.00
C150   C     0.21444   0.08605   0.29526   0.00000  Uiso   1.00
C151   C     0.04021   0.05534   0.28117   0.00000  Uiso   1.00
C152   C     0.36672   0.15978   0.47538   0.00000  Uiso   1.00
C153   C     0.49065   0.10237   0.44205   0.00000  Uiso   1.00
C154   C     0.53813   0.06198   0.47342   0.00000  Uiso   1.00
C155   C     0.65311   0.01216   0.43422   0.00000  Uiso   1.00
C156   C     0.38872   0.23231   0.48248   0.00000  Uiso   1.00
C157   C     0.35048   0.30119   0.54786   0.00000  Uiso   1.00
C158   C     0.37963   0.36077   0.54270   0.00000  Uiso   1.00
C159   C     0.30286   0.13327   0.41568   0.00000  Uiso   1.00
C160   C     0.19242   0.11889   0.42490   0.00000  Uiso   1.00
C161   C     0.14927   0.09511   0.36350   0.00000  Uiso   1.00
H162   H     0.53712   0.13611   0.29694   0.00000  Uiso   1.00
H163   H     0.72095   0.03659   0.28197   0.00000  Uiso   1.00
H164   H     0.53330   0.27576   0.35639   0.00000  Uiso   1.00
H165   H     0.37528   0.09349   0.23345   0.00000  Uiso   1.00
H166   H     0.89608   0.93026   0.29541   0.00000  Uiso   1.00
H167   H     0.50040   0.43458   0.45233   0.00000  Uiso   1.00
H168   H     0.16716   0.05022   0.19308   0.00000  Uiso   1.00
H169   H     0.31607   0.16682   0.52841   0.00000  Uiso   1.00
H170   H     0.48777   0.06898   0.52613   0.00000  Uiso   1.00
H171   H     0.30013   0.30816   0.60056   0.00000  Uiso   1.00
H172   H     0.14211   0.12589   0.47761   0.00000  Uiso   1.00
H173   H     0.70683   0.95656   0.49359   0.00000  Uiso   1.00
H174   H     0.31114   0.46088   0.65051   0.00000  Uiso   1.00
H175   H     0.97791   0.07652   0.39126   0.00000  Uiso   1.00
O176   O     0.91841   0.87852   0.38884   0.00000  Uiso   1.00
O177   O     0.39927   0.54016   0.59470   0.00000  Uiso   1.00
O178   O     0.96208   0.03589   0.25458   0.00000  Uiso   1.00
N179   N     0.82797   0.94987   0.34236   0.00000  Uiso   1.00
N180   N     0.45805   0.42137   0.48907   0.00000  Uiso   1.00
N181   N     0.14648   0.06205   0.24670   0.00000  Uiso   1.00
N182   N     0.72613   0.96401   0.44900   0.00000  Uiso   1.00
N183   N     0.35621   0.43552   0.59571   0.00000  Uiso   1.00
N184   N     0.04465   0.07620   0.35334   0.00000  Uiso   1.00
C185   C     0.83753   0.65060   0.79273   0.00000  Uiso   1.00
C186   C     0.93038   0.62775   0.71936   0.00000  Uiso   1.00
C187   C     0.00610   0.66844   0.70888   0.00000  Uiso   1.00
C188   C     0.08473   0.63796   0.63750   0.00000  Uiso   1.00
C189   C     0.22854   0.61291   0.53251   0.00000  Uiso   1.00
C190   C     0.86848   0.58595   0.80837   0.00000  Uiso   1.00
C191   C     0.89213   0.59151   0.87274   0.00000  Uiso   1.00
C192   C     0.91864   0.52584   0.87630   0.00000  Uiso   1.00
C193   C     0.96625   0.43591   0.90953   0.00000  Uiso   1.00
C194   C     0.71715   0.65143   0.77638   0.00000  Uiso   1.00
C195   C     0.61355   0.71203   0.81387   0.00000  Uiso   1.00
C196   C     0.51263   0.70148   0.79051   0.00000  Uiso   1.00
C197   C     0.32529   0.71320   0.77407   0.00000  Uiso   1.00
C198   C     0.84252   0.52411   0.68462   0.00000  Uiso   1.00
C199   C     0.93309   0.55904   0.66063   0.00000  Uiso   1.00
C200   C     0.01162   0.52849   0.58925   0.00000  Uiso   1.00
C201   C     0.08744   0.56914   0.57867   0.00000  Uiso   1.00
C202   C     0.87119   0.51725   0.74965   0.00000  Uiso   1.00
C203   C     0.89766   0.45156   0.75312   0.00000  Uiso   1.00
C204   C     0.92135   0.45701   0.81747   0.00000  Uiso   1.00
C205   C     0.71986   0.58272   0.71766   0.00000  Uiso   1.00
C206   C     0.61908   0.57208   0.69425   0.00000  Uiso   1.00
C207   C     0.51535   0.63265   0.73168   0.00000  Uiso   1.00
H208   H     0.83542   0.70409   0.83846   0.00000  Uiso   1.00
H209   H     0.00398   0.72161   0.75434   0.00000  Uiso   1.00
H210   H     0.89002   0.64469   0.91818   0.00000  Uiso   1.00
H211   H     0.61148   0.76518   0.85931   0.00000  Uiso   1.00
H212   H     0.19209   0.71071   0.63519   0.00000  Uiso   1.00
H213   H     0.95176   0.54853   0.98066   0.00000  Uiso   1.00
H214   H     0.36441   0.80262   0.85654   0.00000  Uiso   1.00
H215   H     0.84463   0.47062   0.63890   0.00000  Uiso   1.00
H216   H     0.01370   0.47532   0.54382   0.00000  Uiso   1.00
H217   H     0.89974   0.39840   0.70766   0.00000  Uiso   1.00
H218   H     0.62121   0.51890   0.64880   0.00000  Uiso   1.00
H219   H     0.19999   0.51082   0.46432   0.00000  Uiso   1.00
H220   H     0.95964   0.34863   0.80980   0.00000  Uiso   1.00
H221   H     0.37230   0.60272   0.68567   0.00000  Uiso   1.00
O222   O     0.30712   0.61806   0.49082   0.00000  Uiso   1.00
O223   O     0.99179   0.40528   0.94408   0.00000  Uiso   1.00
O224   O     0.22121   0.73865   0.78122   0.00000  Uiso   1.00
N225   N     0.17073   0.66303   0.60802   0.00000  Uiso   1.00
N226   N     0.94605   0.51139   0.93101   0.00000  Uiso   1.00
N227   N     0.39692   0.74894   0.81498   0.00000  Uiso   1.00
N228   N     0.17498   0.55547   0.51608   0.00000  Uiso   1.00
N229   N     0.95030   0.40383   0.83907   0.00000  Uiso   1.00
N230   N     0.40116   0.64138   0.72304   0.00000  Uiso   1.00
C231   C     0.62931   0.20670   0.85751   0.00000  Uiso   1.00
C232   C     0.64913   0.28104   0.90772   0.00000  Uiso   1.00
C233   C     0.71398   0.29245   0.95856   0.00000  Uiso   1.00
C234   C     0.72165   0.36460   0.99920   0.00000  Uiso   1.00
C235   C     0.76086   0.47111   0.07865   0.00000  Uiso   1.00
C236   C     0.67588   0.19163   0.77767   0.00000  Uiso   1.00
C237   C     0.76321   0.12786   0.71917   0.00000  Uiso   1.00
C238   C     0.79337   0.12475   0.65033   0.00000  Uiso   1.00
C239   C     0.87406   0.09242   0.52786   0.00000  Uiso   1.00
C240   C     0.49324   0.22136   0.87464   0.00000  Uiso   1.00
C241   C     0.42701   0.18256   0.89764   0.00000  Uiso   1.00
C242   C     0.30341   0.20447   0.91043   0.00000  Uiso   1.00
C243   C     0.10053   0.21830   0.93852   0.00000  Uiso   1.00
C244   C     0.52759   0.31457   0.83928   0.00000  Uiso   1.00
C245   C     0.59387   0.33963   0.89781   0.00000  Uiso   1.00
C246   C     0.60143   0.41179   0.93839   0.00000  Uiso   1.00
C247   C     0.66629   0.42330   0.98929   0.00000  Uiso   1.00
C248   C     0.62063   0.25022   0.76777   0.00000  Uiso   1.00
C249   C     0.65066   0.24720   0.69900   0.00000  Uiso   1.00
C250   C     0.73802   0.18344   0.64041   0.00000  Uiso   1.00
C251   C     0.43799   0.27995   0.86474   0.00000  Uiso   1.00
C252   C     0.31447   0.30191   0.87748   0.00000  Uiso   1.00
C253   C     0.24806   0.26317   0.90051   0.00000  Uiso   1.00
H254   H     0.67233   0.16109   0.86521   0.00000  Uiso   1.00
H255   H     0.75674   0.24709   0.96620   0.00000  Uiso   1.00
H256   H     0.80594   0.08253   0.72684   0.00000  Uiso   1.00
H257   H     0.46980   0.13723   0.90530   0.00000  Uiso   1.00
H258   H     0.82599   0.36827   0.07378   0.00000  Uiso   1.00
H259   H     0.92971   0.02127   0.56908   0.00000  Uiso   1.00
H260   H     0.22089   0.13662   0.94539   0.00000  Uiso   1.00
H261   H     0.48457   0.36019   0.83157   0.00000  Uiso   1.00
H262   H     0.55867   0.45712   0.93072   0.00000  Uiso   1.00
H263   H     0.60788   0.29255   0.69136   0.00000  Uiso   1.00
H264   H     0.27174   0.34726   0.86982   0.00000  Uiso   1.00
H265   H     0.66523   0.53873   0.04498   0.00000  Uiso   1.00
H266   H     0.76895   0.19173   0.54028   0.00000  Uiso   1.00
H267   H     0.06013   0.30708   0.91659   0.00000  Uiso   1.00
O268   O     0.79777   0.51366   0.12519   0.00000  Uiso   1.00
O269   O     0.93384   0.05841   0.46305   0.00000  Uiso   1.00
O270   O     0.00389   0.20975   0.95675   0.00000  Uiso   1.00
N271   N     0.77796   0.39509   0.05341   0.00000  Uiso   1.00
N272   N     0.87495   0.07067   0.58155   0.00000  Uiso   1.00
N273   N     0.21227   0.17850   0.93334   0.00000  Uiso   1.00
N274   N     0.69146   0.48681   0.03791   0.00000  Uiso   1.00
N275   N     0.78845   0.16239   0.56605   0.00000  Uiso   1.00
N276   N     0.12577   0.27022   0.91784   0.00000  Uiso   1.00
