data_job_00718
_audit_creation_date              2018-12-19
_audit_creation_method            'Materials Studio'
_symmetry_space_group_name_H-M    'P1'
_symmetry_Int_Tables_number       1
_symmetry_cell_setting            triclinic
loop_
_symmetry_equiv_pos_as_xyz
  x,y,z
_cell_length_a                    33.4210
_cell_length_b                    9.8478
_cell_length_c                    18.3963
_cell_angle_alpha                 90.0000
_cell_angle_beta                  90.0000
_cell_angle_gamma                 90.0000
loop_
_atom_site_label
_atom_site_type_symbol
_atom_site_fract_x
_atom_site_fract_y
_atom_site_fract_z
_atom_site_U_iso_or_equiv
_atom_site_adp_type
_atom_site_occupancy
C1     C     0.83915   0.31302   0.40542   0.00000  Uiso   1.00
C2     C     0.82319   0.35713   0.47939   0.00000  Uiso   1.00
C3     C     0.79090   0.44301   0.49109   0.00000  Uiso   1.00
C4     C     0.78100   0.47103   0.56284   0.00000  Uiso   1.00
C5     C     0.75294   0.54809   0.66890   0.00000  Uiso   1.00
C6     C     0.88321   0.35318   0.40427   0.00000  Uiso   1.00
C7     C     0.90139   0.43571   0.35281   0.00000  Uiso   1.00
C8     C     0.94202   0.46039   0.36131   0.00000  Uiso   1.00
C9     C     0.00715   0.53123   0.35072   0.00000  Uiso   1.00
C10    C     0.83835   0.15820   0.40564   0.00000  Uiso   1.00
C11    C     0.81883   0.07678   0.35531   0.00000  Uiso   1.00
C12    C     0.82170   0.93728   0.36496   0.00000  Uiso   1.00
C13    C     0.81719   0.70538   0.35649   0.00000  Uiso   1.00
C14    C     0.87899   0.21007   0.51203   0.00000  Uiso   1.00
C15    C     0.84483   0.30122   0.53730   0.00000  Uiso   1.00
C16    C     0.83498   0.32911   0.60905   0.00000  Uiso   1.00
C17    C     0.80268   0.41501   0.62085   0.00000  Uiso   1.00
C18    C     0.90485   0.29727   0.46218   0.00000  Uiso   1.00
C19    C     0.94547   0.32181   0.47076   0.00000  Uiso   1.00
C20    C     0.96370   0.40437   0.41933   0.00000  Uiso   1.00
C21    C     0.85999   0.10228   0.46355   0.00000  Uiso   1.00
C22    C     0.86290   0.96288   0.47328   0.00000  Uiso   1.00
C23    C     0.84338   0.88126   0.42298   0.00000  Uiso   1.00
H24    H     0.82230   0.35655   0.36033   0.00000  Uiso   1.00
H25    H     0.77416   0.48627   0.44626   0.00000  Uiso   1.00
H26    H     0.88464   0.47896   0.30800   0.00000  Uiso   1.00
H27    H     0.80208   0.12008   0.31051   0.00000  Uiso   1.00
H28    H     0.73034   0.60547   0.56707   0.00000  Uiso   1.00
H29    H     0.96328   0.59002   0.27551   0.00000  Uiso   1.00
H30    H     0.78921   0.83325   0.28081   0.00000  Uiso   1.00
H31    H     0.89584   0.16653   0.55712   0.00000  Uiso   1.00
H32    H     0.85173   0.28582   0.65385   0.00000  Uiso   1.00
H33    H     0.96221   0.27852   0.51558   0.00000  Uiso   1.00
H34    H     0.87965   0.91964   0.51810   0.00000  Uiso   1.00
H35    H     0.79330   0.44278   0.73556   0.00000  Uiso   1.00
H36    H     0.02624   0.42733   0.44400   0.00000  Uiso   1.00
H37    H     0.85217   0.67057   0.44930   0.00000  Uiso   1.00
O38    O     0.73149   0.60606   0.71140   0.00000  Uiso   1.00
O39    O     0.03710   0.58577   0.32888   0.00000  Uiso   1.00
O40    O     0.80871   0.59292   0.33583   0.00000  Uiso   1.00
N41    N     0.75121   0.55079   0.59345   0.00000  Uiso   1.00
N42    N     0.96899   0.53636   0.32087   0.00000  Uiso   1.00
N43    N     0.80625   0.82885   0.32581   0.00000  Uiso   1.00
N44    N     0.78508   0.46324   0.68411   0.00000  Uiso   1.00
N45    N     0.00287   0.44882   0.41153   0.00000  Uiso   1.00
N46    N     0.84013   0.74131   0.41647   0.00000  Uiso   1.00
C47    C     0.66085   0.18698   0.90542   0.00000  Uiso   1.00
C48    C     0.67681   0.14287   0.97939   0.00000  Uiso   1.00
C49    C     0.70910   0.05699   0.99109   0.00000  Uiso   1.00
C50    C     0.71900   0.02897   0.06284   0.00000  Uiso   1.00
C51    C     0.74706   0.95191   0.16890   0.00000  Uiso   1.00
C52    C     0.61679   0.14682   0.90427   0.00000  Uiso   1.00
C53    C     0.59861   0.06429   0.85281   0.00000  Uiso   1.00
C54    C     0.55798   0.03961   0.86131   0.00000  Uiso   1.00
C55    C     0.49285   0.96877   0.85072   0.00000  Uiso   1.00
C56    C     0.66165   0.34180   0.90564   0.00000  Uiso   1.00
C57    C     0.68117   0.42322   0.85531   0.00000  Uiso   1.00
C58    C     0.67830   0.56272   0.86496   0.00000  Uiso   1.00
C59    C     0.68281   0.79462   0.85649   0.00000  Uiso   1.00
C60    C     0.62101   0.28993   0.01203   0.00000  Uiso   1.00
C61    C     0.65517   0.19878   0.03730   0.00000  Uiso   1.00
C62    C     0.66502   0.17089   0.10905   0.00000  Uiso   1.00
C63    C     0.69732   0.08499   0.12085   0.00000  Uiso   1.00
C64    C     0.59515   0.20273   0.96218   0.00000  Uiso   1.00
C65    C     0.55453   0.17819   0.97076   0.00000  Uiso   1.00
C66    C     0.53630   0.09563   0.91933   0.00000  Uiso   1.00
C67    C     0.64001   0.39772   0.96355   0.00000  Uiso   1.00
C68    C     0.63710   0.53712   0.97328   0.00000  Uiso   1.00
C69    C     0.65662   0.61874   0.92298   0.00000  Uiso   1.00
H70    H     0.67770   0.14345   0.86033   0.00000  Uiso   1.00
H71    H     0.72584   0.01373   0.94626   0.00000  Uiso   1.00
H72    H     0.61536   0.02104   0.80800   0.00000  Uiso   1.00
H73    H     0.69792   0.37992   0.81051   0.00000  Uiso   1.00
H74    H     0.76966   0.89453   0.06707   0.00000  Uiso   1.00
H75    H     0.53672   0.90998   0.77551   0.00000  Uiso   1.00
H76    H     0.71079   0.66675   0.78081   0.00000  Uiso   1.00
H77    H     0.60416   0.33347   0.05712   0.00000  Uiso   1.00
H78    H     0.64827   0.21418   0.15385   0.00000  Uiso   1.00
H79    H     0.53779   0.22148   0.01558   0.00000  Uiso   1.00
H80    H     0.62035   0.58036   0.01810   0.00000  Uiso   1.00
H81    H     0.70670   0.05722   0.23556   0.00000  Uiso   1.00
H82    H     0.47376   0.07267   0.94400   0.00000  Uiso   1.00
H83    H     0.64783   0.82943   0.94930   0.00000  Uiso   1.00
O84    O     0.76851   0.89394   0.21140   0.00000  Uiso   1.00
O85    O     0.46290   0.91423   0.82888   0.00000  Uiso   1.00
O86    O     0.69129   0.90708   0.83583   0.00000  Uiso   1.00
N87    N     0.74879   0.94921   0.09345   0.00000  Uiso   1.00
N88    N     0.53101   0.96364   0.82087   0.00000  Uiso   1.00
N89    N     0.69375   0.67115   0.82581   0.00000  Uiso   1.00
N90    N     0.71492   0.03676   0.18411   0.00000  Uiso   1.00
N91    N     0.49713   0.05118   0.91153   0.00000  Uiso   1.00
N92    N     0.65987   0.75869   0.91647   0.00000  Uiso   1.00
C93    C     0.16085   0.31302   0.09458   0.00000  Uiso   1.00
C94    C     0.17681   0.35713   0.02061   0.00000  Uiso   1.00
C95    C     0.20910   0.44301   0.00891   0.00000  Uiso   1.00
C96    C     0.21900   0.47103   0.93716   0.00000  Uiso   1.00
C97    C     0.24706   0.54809   0.83110   0.00000  Uiso   1.00
C98    C     0.11679   0.35318   0.09573   0.00000  Uiso   1.00
C99    C     0.09861   0.43571   0.14719   0.00000  Uiso   1.00
C100   C     0.05798   0.46039   0.13869   0.00000  Uiso   1.00
C101   C     0.99285   0.53123   0.14928   0.00000  Uiso   1.00
C102   C     0.16165   0.15820   0.09436   0.00000  Uiso   1.00
C103   C     0.18117   0.07678   0.14469   0.00000  Uiso   1.00
C104   C     0.17830   0.93728   0.13504   0.00000  Uiso   1.00
C105   C     0.18281   0.70538   0.14351   0.00000  Uiso   1.00
C106   C     0.12101   0.21007   0.98797   0.00000  Uiso   1.00
C107   C     0.15517   0.30122   0.96270   0.00000  Uiso   1.00
C108   C     0.16502   0.32911   0.89095   0.00000  Uiso   1.00
C109   C     0.19732   0.41501   0.87915   0.00000  Uiso   1.00
C110   C     0.09515   0.29727   0.03782   0.00000  Uiso   1.00
C111   C     0.05453   0.32181   0.02924   0.00000  Uiso   1.00
C112   C     0.03630   0.40437   0.08067   0.00000  Uiso   1.00
C113   C     0.14001   0.10228   0.03645   0.00000  Uiso   1.00
C114   C     0.13710   0.96288   0.02672   0.00000  Uiso   1.00
C115   C     0.15662   0.88126   0.07702   0.00000  Uiso   1.00
H116   H     0.17770   0.35655   0.13967   0.00000  Uiso   1.00
H117   H     0.22584   0.48627   0.05374   0.00000  Uiso   1.00
H118   H     0.11536   0.47896   0.19200   0.00000  Uiso   1.00
H119   H     0.19792   0.12008   0.18949   0.00000  Uiso   1.00
H120   H     0.26966   0.60547   0.93293   0.00000  Uiso   1.00
H121   H     0.03672   0.59002   0.22449   0.00000  Uiso   1.00
H122   H     0.21079   0.83325   0.21919   0.00000  Uiso   1.00
H123   H     0.10416   0.16653   0.94288   0.00000  Uiso   1.00
H124   H     0.14827   0.28582   0.84615   0.00000  Uiso   1.00
H125   H     0.03779   0.27852   0.98442   0.00000  Uiso   1.00
H126   H     0.12035   0.91964   0.98190   0.00000  Uiso   1.00
H127   H     0.20670   0.44278   0.76444   0.00000  Uiso   1.00
H128   H     0.97376   0.42733   0.05600   0.00000  Uiso   1.00
H129   H     0.14783   0.67057   0.05070   0.00000  Uiso   1.00
O130   O     0.26851   0.60606   0.78860   0.00000  Uiso   1.00
O131   O     0.96290   0.58577   0.17112   0.00000  Uiso   1.00
O132   O     0.19129   0.59292   0.16417   0.00000  Uiso   1.00
N133   N     0.24879   0.55079   0.90655   0.00000  Uiso   1.00
N134   N     0.03101   0.53636   0.17913   0.00000  Uiso   1.00
N135   N     0.19375   0.82885   0.17419   0.00000  Uiso   1.00
N136   N     0.21492   0.46324   0.81589   0.00000  Uiso   1.00
N137   N     0.99713   0.44882   0.08847   0.00000  Uiso   1.00
N138   N     0.15987   0.74131   0.08353   0.00000  Uiso   1.00
C139   C     0.33915   0.18698   0.59458   0.00000  Uiso   1.00
C140   C     0.32319   0.14287   0.52061   0.00000  Uiso   1.00
C141   C     0.29090   0.05699   0.50891   0.00000  Uiso   1.00
C142   C     0.28100   0.02897   0.43716   0.00000  Uiso   1.00
C143   C     0.25294   0.95191   0.33110   0.00000  Uiso   1.00
C144   C     0.38321   0.14682   0.59573   0.00000  Uiso   1.00
C145   C     0.40139   0.06429   0.64719   0.00000  Uiso   1.00
C146   C     0.44202   0.03961   0.63869   0.00000  Uiso   1.00
C147   C     0.50715   0.96877   0.64928   0.00000  Uiso   1.00
C148   C     0.33835   0.34180   0.59436   0.00000  Uiso   1.00
C149   C     0.31883   0.42322   0.64469   0.00000  Uiso   1.00
C150   C     0.32170   0.56272   0.63504   0.00000  Uiso   1.00
C151   C     0.31719   0.79462   0.64351   0.00000  Uiso   1.00
C152   C     0.37899   0.28993   0.48797   0.00000  Uiso   1.00
C153   C     0.34483   0.19878   0.46270   0.00000  Uiso   1.00
C154   C     0.33498   0.17089   0.39095   0.00000  Uiso   1.00
C155   C     0.30268   0.08499   0.37915   0.00000  Uiso   1.00
C156   C     0.40485   0.20273   0.53782   0.00000  Uiso   1.00
C157   C     0.44547   0.17819   0.52924   0.00000  Uiso   1.00
C158   C     0.46370   0.09563   0.58067   0.00000  Uiso   1.00
C159   C     0.35999   0.39772   0.53645   0.00000  Uiso   1.00
C160   C     0.36290   0.53712   0.52672   0.00000  Uiso   1.00
C161   C     0.34338   0.61874   0.57702   0.00000  Uiso   1.00
H162   H     0.32230   0.14345   0.63967   0.00000  Uiso   1.00
H163   H     0.27416   0.01373   0.55374   0.00000  Uiso   1.00
H164   H     0.38464   0.02104   0.69200   0.00000  Uiso   1.00
H165   H     0.30208   0.37992   0.68949   0.00000  Uiso   1.00
H166   H     0.23034   0.89453   0.43293   0.00000  Uiso   1.00
H167   H     0.46328   0.90998   0.72449   0.00000  Uiso   1.00
H168   H     0.28921   0.66675   0.71919   0.00000  Uiso   1.00
H169   H     0.39584   0.33347   0.44288   0.00000  Uiso   1.00
H170   H     0.35173   0.21418   0.34615   0.00000  Uiso   1.00
H171   H     0.46221   0.22148   0.48442   0.00000  Uiso   1.00
H172   H     0.37965   0.58036   0.48190   0.00000  Uiso   1.00
H173   H     0.29330   0.05722   0.26444   0.00000  Uiso   1.00
H174   H     0.52624   0.07267   0.55600   0.00000  Uiso   1.00
H175   H     0.35217   0.82943   0.55070   0.00000  Uiso   1.00
O176   O     0.23149   0.89394   0.28860   0.00000  Uiso   1.00
O177   O     0.53710   0.91423   0.67112   0.00000  Uiso   1.00
O178   O     0.30871   0.90708   0.66417   0.00000  Uiso   1.00
N179   N     0.25121   0.94921   0.40655   0.00000  Uiso   1.00
N180   N     0.46899   0.96364   0.67913   0.00000  Uiso   1.00
N181   N     0.30625   0.67115   0.67419   0.00000  Uiso   1.00
N182   N     0.28508   0.03676   0.31589   0.00000  Uiso   1.00
N183   N     0.50287   0.05118   0.58847   0.00000  Uiso   1.00
N184   N     0.34013   0.75869   0.58353   0.00000  Uiso   1.00
C185   C     0.16085   0.68698   0.59458   0.00000  Uiso   1.00
C186   C     0.17681   0.64287   0.52061   0.00000  Uiso   1.00
C187   C     0.20910   0.55699   0.50891   0.00000  Uiso   1.00
C188   C     0.21900   0.52897   0.43716   0.00000  Uiso   1.00
C189   C     0.24706   0.45191   0.33110   0.00000  Uiso   1.00
C190   C     0.11679   0.64682   0.59573   0.00000  Uiso   1.00
C191   C     0.09861   0.56429   0.64719   0.00000  Uiso   1.00
C192   C     0.05798   0.53961   0.63869   0.00000  Uiso   1.00
C193   C     0.99285   0.46877   0.64928   0.00000  Uiso   1.00
C194   C     0.16165   0.84180   0.59436   0.00000  Uiso   1.00
C195   C     0.18117   0.92322   0.64469   0.00000  Uiso   1.00
C196   C     0.17830   0.06272   0.63504   0.00000  Uiso   1.00
C197   C     0.18281   0.29462   0.64351   0.00000  Uiso   1.00
C198   C     0.12101   0.78993   0.48797   0.00000  Uiso   1.00
C199   C     0.15517   0.69878   0.46270   0.00000  Uiso   1.00
C200   C     0.16502   0.67089   0.39095   0.00000  Uiso   1.00
C201   C     0.19732   0.58499   0.37915   0.00000  Uiso   1.00
C202   C     0.09515   0.70273   0.53782   0.00000  Uiso   1.00
C203   C     0.05453   0.67819   0.52924   0.00000  Uiso   1.00
C204   C     0.03630   0.59563   0.58067   0.00000  Uiso   1.00
C205   C     0.14001   0.89772   0.53645   0.00000  Uiso   1.00
C206   C     0.13710   0.03712   0.52672   0.00000  Uiso   1.00
C207   C     0.15662   0.11874   0.57702   0.00000  Uiso   1.00
H208   H     0.17770   0.64345   0.63967   0.00000  Uiso   1.00
H209   H     0.22584   0.51373   0.55374   0.00000  Uiso   1.00
H210   H     0.11536   0.52104   0.69200   0.00000  Uiso   1.00
H211   H     0.19792   0.87992   0.68949   0.00000  Uiso   1.00
H212   H     0.26966   0.39453   0.43293   0.00000  Uiso   1.00
H213   H     0.03672   0.40998   0.72449   0.00000  Uiso   1.00
H214   H     0.21079   0.16675   0.71919   0.00000  Uiso   1.00
H215   H     0.10416   0.83347   0.44288   0.00000  Uiso   1.00
H216   H     0.14827   0.71418   0.34615   0.00000  Uiso   1.00
H217   H     0.03779   0.72148   0.48442   0.00000  Uiso   1.00
H218   H     0.12035   0.08036   0.48190   0.00000  Uiso   1.00
H219   H     0.20670   0.55722   0.26444   0.00000  Uiso   1.00
H220   H     0.97376   0.57267   0.55600   0.00000  Uiso   1.00
H221   H     0.14783   0.32943   0.55070   0.00000  Uiso   1.00
O222   O     0.26851   0.39394   0.28860   0.00000  Uiso   1.00
O223   O     0.96290   0.41423   0.67112   0.00000  Uiso   1.00
O224   O     0.19129   0.40708   0.66417   0.00000  Uiso   1.00
N225   N     0.24879   0.44921   0.40655   0.00000  Uiso   1.00
N226   N     0.03101   0.46364   0.67913   0.00000  Uiso   1.00
N227   N     0.19375   0.17115   0.67419   0.00000  Uiso   1.00
N228   N     0.21492   0.53676   0.31589   0.00000  Uiso   1.00
N229   N     0.99713   0.55118   0.58847   0.00000  Uiso   1.00
N230   N     0.15987   0.25869   0.58353   0.00000  Uiso   1.00
C231   C     0.33915   0.81302   0.09458   0.00000  Uiso   1.00
C232   C     0.32319   0.85713   0.02061   0.00000  Uiso   1.00
C233   C     0.29090   0.94301   0.00891   0.00000  Uiso   1.00
C234   C     0.28100   0.97103   0.93716   0.00000  Uiso   1.00
C235   C     0.25294   0.04809   0.83110   0.00000  Uiso   1.00
C236   C     0.38321   0.85318   0.09573   0.00000  Uiso   1.00
C237   C     0.40139   0.93571   0.14719   0.00000  Uiso   1.00
C238   C     0.44202   0.96039   0.13869   0.00000  Uiso   1.00
C239   C     0.50715   0.03123   0.14928   0.00000  Uiso   1.00
C240   C     0.33835   0.65820   0.09436   0.00000  Uiso   1.00
C241   C     0.31883   0.57678   0.14469   0.00000  Uiso   1.00
C242   C     0.32170   0.43728   0.13504   0.00000  Uiso   1.00
C243   C     0.31719   0.20538   0.14351   0.00000  Uiso   1.00
C244   C     0.37899   0.71007   0.98797   0.00000  Uiso   1.00
C245   C     0.34483   0.80122   0.96270   0.00000  Uiso   1.00
C246   C     0.33498   0.82911   0.89095   0.00000  Uiso   1.00
C247   C     0.30268   0.91501   0.87915   0.00000  Uiso   1.00
C248   C     0.40485   0.79727   0.03782   0.00000  Uiso   1.00
C249   C     0.44547   0.82181   0.02924   0.00000  Uiso   1.00
C250   C     0.46370   0.90437   0.08067   0.00000  Uiso   1.00
C251   C     0.35999   0.60228   0.03645   0.00000  Uiso   1.00
C252   C     0.36290   0.46288   0.02672   0.00000  Uiso   1.00
C253   C     0.34338   0.38126   0.07702   0.00000  Uiso   1.00
H254   H     0.32230   0.85655   0.13967   0.00000  Uiso   1.00
H255   H     0.27416   0.98627   0.05374   0.00000  Uiso   1.00
H256   H     0.38464   0.97896   0.19200   0.00000  Uiso   1.00
H257   H     0.30208   0.62008   0.18949   0.00000  Uiso   1.00
H258   H     0.23034   0.10547   0.93293   0.00000  Uiso   1.00
H259   H     0.46328   0.09002   0.22449   0.00000  Uiso   1.00
H260   H     0.28921   0.33325   0.21919   0.00000  Uiso   1.00
H261   H     0.39584   0.66653   0.94288   0.00000  Uiso   1.00
H262   H     0.35173   0.78582   0.84615   0.00000  Uiso   1.00
H263   H     0.46221   0.77852   0.98442   0.00000  Uiso   1.00
H264   H     0.37965   0.41964   0.98190   0.00000  Uiso   1.00
H265   H     0.29330   0.94278   0.76444   0.00000  Uiso   1.00
H266   H     0.52624   0.92733   0.05600   0.00000  Uiso   1.00
H267   H     0.35217   0.17057   0.05070   0.00000  Uiso   1.00
O268   O     0.23149   0.10606   0.78860   0.00000  Uiso   1.00
O269   O     0.53710   0.08577   0.17112   0.00000  Uiso   1.00
O270   O     0.30871   0.09292   0.16417   0.00000  Uiso   1.00
N271   N     0.25121   0.05079   0.90655   0.00000  Uiso   1.00
N272   N     0.46899   0.03636   0.17913   0.00000  Uiso   1.00
N273   N     0.30625   0.32885   0.17419   0.00000  Uiso   1.00
N274   N     0.28508   0.96324   0.81589   0.00000  Uiso   1.00
N275   N     0.50287   0.94882   0.08847   0.00000  Uiso   1.00
N276   N     0.34013   0.24131   0.08353   0.00000  Uiso   1.00
C277   C     0.83915   0.68698   0.90542   0.00000  Uiso   1.00
C278   C     0.82319   0.64287   0.97939   0.00000  Uiso   1.00
C279   C     0.79090   0.55699   0.99109   0.00000  Uiso   1.00
C280   C     0.78100   0.52897   0.06284   0.00000  Uiso   1.00
C281   C     0.75294   0.45191   0.16890   0.00000  Uiso   1.00
C282   C     0.88321   0.64682   0.90427   0.00000  Uiso   1.00
C283   C     0.90139   0.56429   0.85281   0.00000  Uiso   1.00
C284   C     0.94202   0.53961   0.86131   0.00000  Uiso   1.00
C285   C     0.00715   0.46877   0.85072   0.00000  Uiso   1.00
C286   C     0.83835   0.84180   0.90564   0.00000  Uiso   1.00
C287   C     0.81883   0.92322   0.85531   0.00000  Uiso   1.00
C288   C     0.82170   0.06272   0.86496   0.00000  Uiso   1.00
C289   C     0.81719   0.29462   0.85649   0.00000  Uiso   1.00
C290   C     0.87899   0.78993   0.01203   0.00000  Uiso   1.00
C291   C     0.84483   0.69878   0.03730   0.00000  Uiso   1.00
C292   C     0.83498   0.67089   0.10905   0.00000  Uiso   1.00
C293   C     0.80268   0.58499   0.12085   0.00000  Uiso   1.00
C294   C     0.90485   0.70273   0.96218   0.00000  Uiso   1.00
C295   C     0.94547   0.67819   0.97076   0.00000  Uiso   1.00
C296   C     0.96370   0.59563   0.91933   0.00000  Uiso   1.00
C297   C     0.85999   0.89772   0.96355   0.00000  Uiso   1.00
C298   C     0.86290   0.03712   0.97328   0.00000  Uiso   1.00
C299   C     0.84338   0.11874   0.92298   0.00000  Uiso   1.00
H300   H     0.82230   0.64345   0.86033   0.00000  Uiso   1.00
H301   H     0.77416   0.51373   0.94626   0.00000  Uiso   1.00
H302   H     0.88464   0.52104   0.80800   0.00000  Uiso   1.00
H303   H     0.80208   0.87992   0.81051   0.00000  Uiso   1.00
H304   H     0.73034   0.39453   0.06707   0.00000  Uiso   1.00
H305   H     0.96328   0.40998   0.77551   0.00000  Uiso   1.00
H306   H     0.78921   0.16675   0.78081   0.00000  Uiso   1.00
H307   H     0.89584   0.83347   0.05712   0.00000  Uiso   1.00
H308   H     0.85173   0.71418   0.15385   0.00000  Uiso   1.00
H309   H     0.96221   0.72148   0.01558   0.00000  Uiso   1.00
H310   H     0.87965   0.08036   0.01810   0.00000  Uiso   1.00
H311   H     0.79330   0.55722   0.23556   0.00000  Uiso   1.00
H312   H     0.02624   0.57267   0.94400   0.00000  Uiso   1.00
H313   H     0.85217   0.32943   0.94930   0.00000  Uiso   1.00
O314   O     0.73149   0.39394   0.21140   0.00000  Uiso   1.00
O315   O     0.03710   0.41423   0.82888   0.00000  Uiso   1.00
O316   O     0.80871   0.40708   0.83583   0.00000  Uiso   1.00
N317   N     0.75121   0.44921   0.09345   0.00000  Uiso   1.00
N318   N     0.96899   0.46364   0.82087   0.00000  Uiso   1.00
N319   N     0.80625   0.17115   0.82581   0.00000  Uiso   1.00
N320   N     0.78508   0.53676   0.18411   0.00000  Uiso   1.00
N321   N     0.00287   0.55118   0.91153   0.00000  Uiso   1.00
N322   N     0.84013   0.25869   0.91647   0.00000  Uiso   1.00
C323   C     0.66085   0.81302   0.40542   0.00000  Uiso   1.00
C324   C     0.67681   0.85713   0.47939   0.00000  Uiso   1.00
C325   C     0.70910   0.94301   0.49109   0.00000  Uiso   1.00
C326   C     0.71900   0.97103   0.56284   0.00000  Uiso   1.00
C327   C     0.74706   0.04809   0.66890   0.00000  Uiso   1.00
C328   C     0.61679   0.85318   0.40427   0.00000  Uiso   1.00
C329   C     0.59861   0.93571   0.35281   0.00000  Uiso   1.00
C330   C     0.55798   0.96039   0.36131   0.00000  Uiso   1.00
C331   C     0.49285   0.03123   0.35072   0.00000  Uiso   1.00
C332   C     0.66165   0.65820   0.40564   0.00000  Uiso   1.00
C333   C     0.68117   0.57678   0.35531   0.00000  Uiso   1.00
C334   C     0.67830   0.43728   0.36496   0.00000  Uiso   1.00
C335   C     0.68281   0.20538   0.35649   0.00000  Uiso   1.00
C336   C     0.62101   0.71007   0.51203   0.00000  Uiso   1.00
C337   C     0.65517   0.80122   0.53730   0.00000  Uiso   1.00
C338   C     0.66502   0.82911   0.60905   0.00000  Uiso   1.00
C339   C     0.69732   0.91501   0.62085   0.00000  Uiso   1.00
C340   C     0.59515   0.79727   0.46218   0.00000  Uiso   1.00
C341   C     0.55453   0.82181   0.47076   0.00000  Uiso   1.00
C342   C     0.53630   0.90437   0.41933   0.00000  Uiso   1.00
C343   C     0.64001   0.60228   0.46355   0.00000  Uiso   1.00
C344   C     0.63710   0.46288   0.47328   0.00000  Uiso   1.00
C345   C     0.65662   0.38126   0.42298   0.00000  Uiso   1.00
H346   H     0.67770   0.85655   0.36033   0.00000  Uiso   1.00
H347   H     0.72584   0.98627   0.44626   0.00000  Uiso   1.00
H348   H     0.61536   0.97896   0.30800   0.00000  Uiso   1.00
H349   H     0.69792   0.62008   0.31051   0.00000  Uiso   1.00
H350   H     0.76966   0.10547   0.56707   0.00000  Uiso   1.00
H351   H     0.53672   0.09002   0.27551   0.00000  Uiso   1.00
H352   H     0.71079   0.33325   0.28081   0.00000  Uiso   1.00
H353   H     0.60416   0.66653   0.55712   0.00000  Uiso   1.00
H354   H     0.64827   0.78582   0.65385   0.00000  Uiso   1.00
H355   H     0.53779   0.77852   0.51558   0.00000  Uiso   1.00
H356   H     0.62035   0.41964   0.51810   0.00000  Uiso   1.00
H357   H     0.70670   0.94278   0.73556   0.00000  Uiso   1.00
H358   H     0.47376   0.92733   0.44400   0.00000  Uiso   1.00
H359   H     0.64783   0.17057   0.44930   0.00000  Uiso   1.00
O360   O     0.76851   0.10606   0.71140   0.00000  Uiso   1.00
O361   O     0.46290   0.08577   0.32888   0.00000  Uiso   1.00
O362   O     0.69129   0.09292   0.33583   0.00000  Uiso   1.00
N363   N     0.74879   0.05079   0.59345   0.00000  Uiso   1.00
N364   N     0.53101   0.03636   0.32087   0.00000  Uiso   1.00
N365   N     0.69375   0.32885   0.32581   0.00000  Uiso   1.00
N366   N     0.71492   0.96324   0.68411   0.00000  Uiso   1.00
N367   N     0.49713   0.94882   0.41153   0.00000  Uiso   1.00
N368   N     0.65987   0.24131   0.41647   0.00000  Uiso   1.00
