data_job_05166
_audit_creation_date              2018-12-19
_audit_creation_method            'Materials Studio'
_symmetry_space_group_name_H-M    'P1'
_symmetry_Int_Tables_number       1
_symmetry_cell_setting            triclinic
loop_
_symmetry_equiv_pos_as_xyz
  x,y,z
_cell_length_a                    36.3056
_cell_length_b                    13.4831
_cell_length_c                    10.4178
_cell_angle_alpha                 90.0000
_cell_angle_beta                  101.8630
_cell_angle_gamma                 90.0000
loop_
_atom_site_label
_atom_site_type_symbol
_atom_site_fract_x
_atom_site_fract_y
_atom_site_fract_z
_atom_site_U_iso_or_equiv
_atom_site_adp_type
_atom_site_occupancy
C1     C     0.38652   0.92293   0.23538   0.00000  Uiso   1.00
C2     C     0.37688   0.83415   0.31298   0.00000  Uiso   1.00
C3     C     0.38360   0.82687   0.44868   0.00000  Uiso   1.00
C4     C     0.37270   0.73950   0.50080   0.00000  Uiso   1.00
C5     C     0.36033   0.61338   0.63358   0.00000  Uiso   1.00
C6     C     0.41148   0.88294   0.14600   0.00000  Uiso   1.00
C7     C     0.44728   0.91671   0.14129   0.00000  Uiso   1.00
C8     C     0.46551   0.87041   0.05282   0.00000  Uiso   1.00
C9     C     0.50684   0.82010   0.92629   0.00000  Uiso   1.00
C10    C     0.34977   0.95420   0.14524   0.00000  Uiso   1.00
C11    C     0.33370   0.04790   0.13986   0.00000  Uiso   1.00
C12    C     0.29997   0.06160   0.05073   0.00000  Uiso   1.00
C13    C     0.24549   0.12194   0.92301   0.00000  Uiso   1.00
C14    C     0.35522   0.78067   0.08663   0.00000  Uiso   1.00
C15    C     0.35988   0.75688   0.23218   0.00000  Uiso   1.00
C16    C     0.34897   0.66949   0.28411   0.00000  Uiso   1.00
C17    C     0.35567   0.66209   0.41986   0.00000  Uiso   1.00
C18    C     0.39447   0.80568   0.06520   0.00000  Uiso   1.00
C19    C     0.41265   0.75932   0.97672   0.00000  Uiso   1.00
C20    C     0.44848   0.79301   0.97188   0.00000  Uiso   1.00
C21    C     0.33276   0.87694   0.06444   0.00000  Uiso   1.00
C22    C     0.29906   0.89051   0.97529   0.00000  Uiso   1.00
C23    C     0.28294   0.98420   0.96979   0.00000  Uiso   1.00
H24    H     0.39976   0.98308   0.29828   0.00000  Uiso   1.00
H25    H     0.39676   0.88668   0.51118   0.00000  Uiso   1.00
H26    H     0.46043   0.97651   0.20382   0.00000  Uiso   1.00
H27    H     0.34686   0.10767   0.20240   0.00000  Uiso   1.00
H28    H     0.38595   0.74572   0.71158   0.00000  Uiso   1.00
H29    H     0.52020   0.93514   0.06347   0.00000  Uiso   1.00
H30    H     0.28071   0.21173   0.06046   0.00000  Uiso   1.00
H31    H     0.34198   0.72052   0.02372   0.00000  Uiso   1.00
H32    H     0.33581   0.60971   0.22156   0.00000  Uiso   1.00
H33    H     0.39949   0.69954   0.91420   0.00000  Uiso   1.00
H34    H     0.28591   0.83070   0.91278   0.00000  Uiso   1.00
H35    H     0.33648   0.52092   0.47652   0.00000  Uiso   1.00
H36    H     0.47073   0.71035   0.82840   0.00000  Uiso   1.00
H37    H     0.23124   0.98693   0.82540   0.00000  Uiso   1.00
O38    O     0.35821   0.56515   0.72914   0.00000  Uiso   1.00
O39    O     0.53434   0.81368   0.87883   0.00000  Uiso   1.00
O40    O     0.22014   0.17655   0.87490   0.00000  Uiso   1.00
N41    N     0.37515   0.70803   0.62911   0.00000  Uiso   1.00
N42    N     0.50067   0.88512   0.02318   0.00000  Uiso   1.00
N43    N     0.27677   0.14371   0.02035   0.00000  Uiso   1.00
N44    N     0.34853   0.58706   0.50262   0.00000  Uiso   1.00
N45    N     0.47405   0.76415   0.89669   0.00000  Uiso   1.00
N46    N     0.25015   0.02274   0.89386   0.00000  Uiso   1.00
C47    C     0.88652   0.42293   0.23538   0.00000  Uiso   1.00
C48    C     0.87688   0.33415   0.31298   0.00000  Uiso   1.00
C49    C     0.88360   0.32687   0.44868   0.00000  Uiso   1.00
C50    C     0.87270   0.23950   0.50080   0.00000  Uiso   1.00
C51    C     0.86033   0.11338   0.63358   0.00000  Uiso   1.00
C52    C     0.91148   0.38294   0.14600   0.00000  Uiso   1.00
C53    C     0.94728   0.41671   0.14129   0.00000  Uiso   1.00
C54    C     0.96551   0.37041   0.05282   0.00000  Uiso   1.00
C55    C     0.00684   0.32010   0.92629   0.00000  Uiso   1.00
C56    C     0.84977   0.45420   0.14524   0.00000  Uiso   1.00
C57    C     0.83370   0.54790   0.13986   0.00000  Uiso   1.00
C58    C     0.79997   0.56160   0.05073   0.00000  Uiso   1.00
C59    C     0.74549   0.62194   0.92301   0.00000  Uiso   1.00
C60    C     0.85522   0.28067   0.08663   0.00000  Uiso   1.00
C61    C     0.85988   0.25688   0.23218   0.00000  Uiso   1.00
C62    C     0.84897   0.16949   0.28411   0.00000  Uiso   1.00
C63    C     0.85567   0.16209   0.41986   0.00000  Uiso   1.00
C64    C     0.89447   0.30568   0.06520   0.00000  Uiso   1.00
C65    C     0.91265   0.25932   0.97672   0.00000  Uiso   1.00
C66    C     0.94848   0.29301   0.97188   0.00000  Uiso   1.00
C67    C     0.83276   0.37694   0.06444   0.00000  Uiso   1.00
C68    C     0.79906   0.39051   0.97529   0.00000  Uiso   1.00
C69    C     0.78294   0.48420   0.96979   0.00000  Uiso   1.00
H70    H     0.89976   0.48308   0.29828   0.00000  Uiso   1.00
H71    H     0.89676   0.38668   0.51118   0.00000  Uiso   1.00
H72    H     0.96043   0.47651   0.20382   0.00000  Uiso   1.00
H73    H     0.84686   0.60767   0.20240   0.00000  Uiso   1.00
H74    H     0.88595   0.24572   0.71158   0.00000  Uiso   1.00
H75    H     0.02020   0.43514   0.06347   0.00000  Uiso   1.00
H76    H     0.78071   0.71173   0.06046   0.00000  Uiso   1.00
H77    H     0.84198   0.22052   0.02372   0.00000  Uiso   1.00
H78    H     0.83581   0.10971   0.22156   0.00000  Uiso   1.00
H79    H     0.89949   0.19954   0.91420   0.00000  Uiso   1.00
H80    H     0.78591   0.33070   0.91278   0.00000  Uiso   1.00
H81    H     0.83648   0.02092   0.47652   0.00000  Uiso   1.00
H82    H     0.97073   0.21035   0.82840   0.00000  Uiso   1.00
H83    H     0.73124   0.48693   0.82540   0.00000  Uiso   1.00
O84    O     0.85821   0.06515   0.72914   0.00000  Uiso   1.00
O85    O     0.03434   0.31368   0.87883   0.00000  Uiso   1.00
O86    O     0.72014   0.67655   0.87490   0.00000  Uiso   1.00
N87    N     0.87515   0.20803   0.62911   0.00000  Uiso   1.00
N88    N     0.00067   0.38512   0.02318   0.00000  Uiso   1.00
N89    N     0.77677   0.64371   0.02035   0.00000  Uiso   1.00
N90    N     0.84853   0.08706   0.50262   0.00000  Uiso   1.00
N91    N     0.97405   0.26415   0.89669   0.00000  Uiso   1.00
N92    N     0.75015   0.52274   0.89386   0.00000  Uiso   1.00
C93    C     0.61348   0.92293   0.26462   0.00000  Uiso   1.00
C94    C     0.62312   0.83415   0.18702   0.00000  Uiso   1.00
C95    C     0.61640   0.82687   0.05132   0.00000  Uiso   1.00
C96    C     0.62730   0.73950   0.99920   0.00000  Uiso   1.00
C97    C     0.63967   0.61338   0.86642   0.00000  Uiso   1.00
C98    C     0.58852   0.88294   0.35400   0.00000  Uiso   1.00
C99    C     0.55272   0.91671   0.35871   0.00000  Uiso   1.00
C100   C     0.53449   0.87041   0.44718   0.00000  Uiso   1.00
C101   C     0.49316   0.82010   0.57371   0.00000  Uiso   1.00
C102   C     0.65023   0.95420   0.35476   0.00000  Uiso   1.00
C103   C     0.66630   0.04790   0.36014   0.00000  Uiso   1.00
C104   C     0.70003   0.06160   0.44927   0.00000  Uiso   1.00
C105   C     0.75451   0.12194   0.57699   0.00000  Uiso   1.00
C106   C     0.64478   0.78067   0.41337   0.00000  Uiso   1.00
C107   C     0.64012   0.75688   0.26782   0.00000  Uiso   1.00
C108   C     0.65103   0.66949   0.21589   0.00000  Uiso   1.00
C109   C     0.64433   0.66209   0.08014   0.00000  Uiso   1.00
C110   C     0.60553   0.80568   0.43480   0.00000  Uiso   1.00
C111   C     0.58735   0.75932   0.52328   0.00000  Uiso   1.00
C112   C     0.55152   0.79301   0.52812   0.00000  Uiso   1.00
C113   C     0.66724   0.87694   0.43556   0.00000  Uiso   1.00
C114   C     0.70094   0.89051   0.52471   0.00000  Uiso   1.00
C115   C     0.71706   0.98420   0.53021   0.00000  Uiso   1.00
H116   H     0.60024   0.98308   0.20172   0.00000  Uiso   1.00
H117   H     0.60324   0.88668   0.98882   0.00000  Uiso   1.00
H118   H     0.53957   0.97651   0.29618   0.00000  Uiso   1.00
H119   H     0.65314   0.10767   0.29760   0.00000  Uiso   1.00
H120   H     0.61405   0.74572   0.78842   0.00000  Uiso   1.00
H121   H     0.47980   0.93514   0.43653   0.00000  Uiso   1.00
H122   H     0.71929   0.21173   0.43954   0.00000  Uiso   1.00
H123   H     0.65802   0.72052   0.47628   0.00000  Uiso   1.00
H124   H     0.66419   0.60971   0.27844   0.00000  Uiso   1.00
H125   H     0.60051   0.69954   0.58580   0.00000  Uiso   1.00
H126   H     0.71409   0.83070   0.58722   0.00000  Uiso   1.00
H127   H     0.66352   0.52092   0.02348   0.00000  Uiso   1.00
H128   H     0.52927   0.71035   0.67160   0.00000  Uiso   1.00
H129   H     0.76876   0.98693   0.67460   0.00000  Uiso   1.00
O130   O     0.64179   0.56515   0.77086   0.00000  Uiso   1.00
O131   O     0.46566   0.81368   0.62117   0.00000  Uiso   1.00
O132   O     0.77986   0.17655   0.62510   0.00000  Uiso   1.00
N133   N     0.62485   0.70803   0.87089   0.00000  Uiso   1.00
N134   N     0.49933   0.88512   0.47682   0.00000  Uiso   1.00
N135   N     0.72323   0.14371   0.47965   0.00000  Uiso   1.00
N136   N     0.65147   0.58706   0.99738   0.00000  Uiso   1.00
N137   N     0.52595   0.76415   0.60331   0.00000  Uiso   1.00
N138   N     0.74985   0.02274   0.60614   0.00000  Uiso   1.00
C139   C     0.11348   0.42293   0.26462   0.00000  Uiso   1.00
C140   C     0.12312   0.33415   0.18702   0.00000  Uiso   1.00
C141   C     0.11640   0.32687   0.05132   0.00000  Uiso   1.00
C142   C     0.12730   0.23950   0.99920   0.00000  Uiso   1.00
C143   C     0.13967   0.11338   0.86642   0.00000  Uiso   1.00
C144   C     0.08852   0.38294   0.35400   0.00000  Uiso   1.00
C145   C     0.05272   0.41671   0.35871   0.00000  Uiso   1.00
C146   C     0.03449   0.37041   0.44718   0.00000  Uiso   1.00
C147   C     0.99316   0.32010   0.57371   0.00000  Uiso   1.00
C148   C     0.15023   0.45420   0.35476   0.00000  Uiso   1.00
C149   C     0.16630   0.54790   0.36014   0.00000  Uiso   1.00
C150   C     0.20003   0.56160   0.44927   0.00000  Uiso   1.00
C151   C     0.25451   0.62194   0.57699   0.00000  Uiso   1.00
C152   C     0.14478   0.28067   0.41337   0.00000  Uiso   1.00
C153   C     0.14012   0.25688   0.26782   0.00000  Uiso   1.00
C154   C     0.15103   0.16949   0.21589   0.00000  Uiso   1.00
C155   C     0.14433   0.16209   0.08014   0.00000  Uiso   1.00
C156   C     0.10553   0.30568   0.43480   0.00000  Uiso   1.00
C157   C     0.08735   0.25932   0.52328   0.00000  Uiso   1.00
C158   C     0.05152   0.29301   0.52812   0.00000  Uiso   1.00
C159   C     0.16724   0.37694   0.43556   0.00000  Uiso   1.00
C160   C     0.20094   0.39051   0.52471   0.00000  Uiso   1.00
C161   C     0.21706   0.48420   0.53021   0.00000  Uiso   1.00
H162   H     0.10024   0.48308   0.20172   0.00000  Uiso   1.00
H163   H     0.10324   0.38668   0.98882   0.00000  Uiso   1.00
H164   H     0.03957   0.47651   0.29618   0.00000  Uiso   1.00
H165   H     0.15314   0.60767   0.29760   0.00000  Uiso   1.00
H166   H     0.11405   0.24572   0.78842   0.00000  Uiso   1.00
H167   H     0.97980   0.43514   0.43653   0.00000  Uiso   1.00
H168   H     0.21929   0.71173   0.43954   0.00000  Uiso   1.00
H169   H     0.15802   0.22052   0.47628   0.00000  Uiso   1.00
H170   H     0.16419   0.10971   0.27844   0.00000  Uiso   1.00
H171   H     0.10051   0.19954   0.58580   0.00000  Uiso   1.00
H172   H     0.21409   0.33070   0.58722   0.00000  Uiso   1.00
H173   H     0.16352   0.02092   0.02348   0.00000  Uiso   1.00
H174   H     0.02927   0.21035   0.67160   0.00000  Uiso   1.00
H175   H     0.26876   0.48693   0.67460   0.00000  Uiso   1.00
O176   O     0.14179   0.06515   0.77086   0.00000  Uiso   1.00
O177   O     0.96566   0.31368   0.62117   0.00000  Uiso   1.00
O178   O     0.27986   0.67655   0.62510   0.00000  Uiso   1.00
N179   N     0.12485   0.20803   0.87089   0.00000  Uiso   1.00
N180   N     0.99933   0.38512   0.47682   0.00000  Uiso   1.00
N181   N     0.22323   0.64371   0.47965   0.00000  Uiso   1.00
N182   N     0.15147   0.08706   0.99738   0.00000  Uiso   1.00
N183   N     0.02595   0.26415   0.60331   0.00000  Uiso   1.00
N184   N     0.24985   0.52274   0.60614   0.00000  Uiso   1.00
C185   C     0.61348   0.07707   0.76462   0.00000  Uiso   1.00
C186   C     0.62312   0.16585   0.68702   0.00000  Uiso   1.00
C187   C     0.61640   0.17313   0.55132   0.00000  Uiso   1.00
C188   C     0.62730   0.26050   0.49920   0.00000  Uiso   1.00
C189   C     0.63967   0.38662   0.36642   0.00000  Uiso   1.00
C190   C     0.58852   0.11706   0.85400   0.00000  Uiso   1.00
C191   C     0.55272   0.08329   0.85871   0.00000  Uiso   1.00
C192   C     0.53449   0.12959   0.94718   0.00000  Uiso   1.00
C193   C     0.49316   0.17990   0.07371   0.00000  Uiso   1.00
C194   C     0.65023   0.04580   0.85476   0.00000  Uiso   1.00
C195   C     0.66630   0.95210   0.86014   0.00000  Uiso   1.00
C196   C     0.70003   0.93840   0.94927   0.00000  Uiso   1.00
C197   C     0.75451   0.87806   0.07699   0.00000  Uiso   1.00
C198   C     0.64478   0.21933   0.91337   0.00000  Uiso   1.00
C199   C     0.64012   0.24312   0.76782   0.00000  Uiso   1.00
C200   C     0.65103   0.33051   0.71589   0.00000  Uiso   1.00
C201   C     0.64433   0.33791   0.58014   0.00000  Uiso   1.00
C202   C     0.60553   0.19432   0.93480   0.00000  Uiso   1.00
C203   C     0.58735   0.24068   0.02328   0.00000  Uiso   1.00
C204   C     0.55152   0.20699   0.02812   0.00000  Uiso   1.00
C205   C     0.66724   0.12306   0.93556   0.00000  Uiso   1.00
C206   C     0.70094   0.10949   0.02471   0.00000  Uiso   1.00
C207   C     0.71706   0.01580   0.03021   0.00000  Uiso   1.00
H208   H     0.60024   0.01692   0.70172   0.00000  Uiso   1.00
H209   H     0.60324   0.11332   0.48882   0.00000  Uiso   1.00
H210   H     0.53957   0.02349   0.79618   0.00000  Uiso   1.00
H211   H     0.65314   0.89233   0.79760   0.00000  Uiso   1.00
H212   H     0.61405   0.25428   0.28842   0.00000  Uiso   1.00
H213   H     0.47980   0.06486   0.93653   0.00000  Uiso   1.00
H214   H     0.71929   0.78827   0.93954   0.00000  Uiso   1.00
H215   H     0.65802   0.27948   0.97628   0.00000  Uiso   1.00
H216   H     0.66419   0.39029   0.77844   0.00000  Uiso   1.00
H217   H     0.60051   0.30046   0.08580   0.00000  Uiso   1.00
H218   H     0.71409   0.16930   0.08722   0.00000  Uiso   1.00
H219   H     0.66352   0.47908   0.52348   0.00000  Uiso   1.00
H220   H     0.52927   0.28965   0.17160   0.00000  Uiso   1.00
H221   H     0.76876   0.01307   0.17460   0.00000  Uiso   1.00
O222   O     0.64179   0.43485   0.27086   0.00000  Uiso   1.00
O223   O     0.46566   0.18632   0.12117   0.00000  Uiso   1.00
O224   O     0.77986   0.82345   0.12510   0.00000  Uiso   1.00
N225   N     0.62485   0.29197   0.37089   0.00000  Uiso   1.00
N226   N     0.49933   0.11488   0.97682   0.00000  Uiso   1.00
N227   N     0.72323   0.85629   0.97965   0.00000  Uiso   1.00
N228   N     0.65147   0.41294   0.49738   0.00000  Uiso   1.00
N229   N     0.52595   0.23585   0.10331   0.00000  Uiso   1.00
N230   N     0.74985   0.97726   0.10614   0.00000  Uiso   1.00
C231   C     0.11348   0.57707   0.76462   0.00000  Uiso   1.00
C232   C     0.12312   0.66585   0.68702   0.00000  Uiso   1.00
C233   C     0.11640   0.67313   0.55132   0.00000  Uiso   1.00
C234   C     0.12730   0.76050   0.49920   0.00000  Uiso   1.00
C235   C     0.13967   0.88662   0.36642   0.00000  Uiso   1.00
C236   C     0.08852   0.61706   0.85400   0.00000  Uiso   1.00
C237   C     0.05272   0.58329   0.85871   0.00000  Uiso   1.00
C238   C     0.03449   0.62959   0.94718   0.00000  Uiso   1.00
C239   C     0.99316   0.67990   0.07371   0.00000  Uiso   1.00
C240   C     0.15023   0.54580   0.85476   0.00000  Uiso   1.00
C241   C     0.16630   0.45210   0.86014   0.00000  Uiso   1.00
C242   C     0.20003   0.43840   0.94927   0.00000  Uiso   1.00
C243   C     0.25451   0.37806   0.07699   0.00000  Uiso   1.00
C244   C     0.14478   0.71933   0.91337   0.00000  Uiso   1.00
C245   C     0.14012   0.74312   0.76782   0.00000  Uiso   1.00
C246   C     0.15103   0.83051   0.71589   0.00000  Uiso   1.00
C247   C     0.14433   0.83791   0.58014   0.00000  Uiso   1.00
C248   C     0.10553   0.69432   0.93480   0.00000  Uiso   1.00
C249   C     0.08735   0.74068   0.02328   0.00000  Uiso   1.00
C250   C     0.05152   0.70699   0.02812   0.00000  Uiso   1.00
C251   C     0.16724   0.62306   0.93556   0.00000  Uiso   1.00
C252   C     0.20094   0.60949   0.02471   0.00000  Uiso   1.00
C253   C     0.21706   0.51580   0.03021   0.00000  Uiso   1.00
H254   H     0.10024   0.51692   0.70172   0.00000  Uiso   1.00
H255   H     0.10324   0.61332   0.48882   0.00000  Uiso   1.00
H256   H     0.03957   0.52349   0.79618   0.00000  Uiso   1.00
H257   H     0.15314   0.39233   0.79760   0.00000  Uiso   1.00
H258   H     0.11405   0.75428   0.28842   0.00000  Uiso   1.00
H259   H     0.97980   0.56486   0.93653   0.00000  Uiso   1.00
H260   H     0.21929   0.28827   0.93954   0.00000  Uiso   1.00
H261   H     0.15802   0.77948   0.97628   0.00000  Uiso   1.00
H262   H     0.16419   0.89029   0.77844   0.00000  Uiso   1.00
H263   H     0.10051   0.80046   0.08580   0.00000  Uiso   1.00
H264   H     0.21409   0.66930   0.08722   0.00000  Uiso   1.00
H265   H     0.16352   0.97908   0.52348   0.00000  Uiso   1.00
H266   H     0.02927   0.78965   0.17160   0.00000  Uiso   1.00
H267   H     0.26876   0.51307   0.17460   0.00000  Uiso   1.00
O268   O     0.14179   0.93485   0.27086   0.00000  Uiso   1.00
O269   O     0.96566   0.68632   0.12117   0.00000  Uiso   1.00
O270   O     0.27986   0.32345   0.12510   0.00000  Uiso   1.00
N271   N     0.12485   0.79197   0.37089   0.00000  Uiso   1.00
N272   N     0.99933   0.61488   0.97682   0.00000  Uiso   1.00
N273   N     0.22323   0.35629   0.97965   0.00000  Uiso   1.00
N274   N     0.15147   0.91294   0.49738   0.00000  Uiso   1.00
N275   N     0.02595   0.73585   0.10331   0.00000  Uiso   1.00
N276   N     0.24985   0.47726   0.10614   0.00000  Uiso   1.00
C277   C     0.38652   0.07707   0.73538   0.00000  Uiso   1.00
C278   C     0.37688   0.16585   0.81298   0.00000  Uiso   1.00
C279   C     0.38360   0.17313   0.94868   0.00000  Uiso   1.00
C280   C     0.37270   0.26050   0.00080   0.00000  Uiso   1.00
C281   C     0.36033   0.38662   0.13358   0.00000  Uiso   1.00
C282   C     0.41148   0.11706   0.64600   0.00000  Uiso   1.00
C283   C     0.44728   0.08329   0.64129   0.00000  Uiso   1.00
C284   C     0.46551   0.12959   0.55282   0.00000  Uiso   1.00
C285   C     0.50684   0.17990   0.42629   0.00000  Uiso   1.00
C286   C     0.34977   0.04580   0.64524   0.00000  Uiso   1.00
C287   C     0.33370   0.95210   0.63986   0.00000  Uiso   1.00
C288   C     0.29997   0.93840   0.55073   0.00000  Uiso   1.00
C289   C     0.24549   0.87806   0.42301   0.00000  Uiso   1.00
C290   C     0.35522   0.21933   0.58663   0.00000  Uiso   1.00
C291   C     0.35988   0.24312   0.73218   0.00000  Uiso   1.00
C292   C     0.34897   0.33051   0.78411   0.00000  Uiso   1.00
C293   C     0.35567   0.33791   0.91986   0.00000  Uiso   1.00
C294   C     0.39447   0.19432   0.56520   0.00000  Uiso   1.00
C295   C     0.41265   0.24068   0.47672   0.00000  Uiso   1.00
C296   C     0.44848   0.20699   0.47188   0.00000  Uiso   1.00
C297   C     0.33276   0.12306   0.56444   0.00000  Uiso   1.00
C298   C     0.29906   0.10949   0.47529   0.00000  Uiso   1.00
C299   C     0.28294   0.01580   0.46979   0.00000  Uiso   1.00
H300   H     0.39976   0.01692   0.79828   0.00000  Uiso   1.00
H301   H     0.39676   0.11332   0.01118   0.00000  Uiso   1.00
H302   H     0.46043   0.02349   0.70382   0.00000  Uiso   1.00
H303   H     0.34686   0.89233   0.70240   0.00000  Uiso   1.00
H304   H     0.38595   0.25428   0.21158   0.00000  Uiso   1.00
H305   H     0.52020   0.06486   0.56347   0.00000  Uiso   1.00
H306   H     0.28071   0.78827   0.56046   0.00000  Uiso   1.00
H307   H     0.34198   0.27948   0.52372   0.00000  Uiso   1.00
H308   H     0.33581   0.39029   0.72156   0.00000  Uiso   1.00
H309   H     0.39949   0.30046   0.41420   0.00000  Uiso   1.00
H310   H     0.28591   0.16930   0.41278   0.00000  Uiso   1.00
H311   H     0.33648   0.47908   0.97652   0.00000  Uiso   1.00
H312   H     0.47073   0.28965   0.32840   0.00000  Uiso   1.00
H313   H     0.23124   0.01307   0.32540   0.00000  Uiso   1.00
O314   O     0.35821   0.43485   0.22914   0.00000  Uiso   1.00
O315   O     0.53434   0.18632   0.37883   0.00000  Uiso   1.00
O316   O     0.22014   0.82345   0.37490   0.00000  Uiso   1.00
N317   N     0.37515   0.29197   0.12911   0.00000  Uiso   1.00
N318   N     0.50067   0.11488   0.52318   0.00000  Uiso   1.00
N319   N     0.27677   0.85629   0.52035   0.00000  Uiso   1.00
N320   N     0.34853   0.41294   0.00262   0.00000  Uiso   1.00
N321   N     0.47405   0.23585   0.39669   0.00000  Uiso   1.00
N322   N     0.25015   0.97726   0.39386   0.00000  Uiso   1.00
C323   C     0.88652   0.57707   0.73538   0.00000  Uiso   1.00
C324   C     0.87688   0.66585   0.81298   0.00000  Uiso   1.00
C325   C     0.88360   0.67313   0.94868   0.00000  Uiso   1.00
C326   C     0.87270   0.76050   0.00080   0.00000  Uiso   1.00
C327   C     0.86033   0.88662   0.13358   0.00000  Uiso   1.00
C328   C     0.91148   0.61706   0.64600   0.00000  Uiso   1.00
C329   C     0.94728   0.58329   0.64129   0.00000  Uiso   1.00
C330   C     0.96551   0.62959   0.55282   0.00000  Uiso   1.00
C331   C     0.00684   0.67990   0.42629   0.00000  Uiso   1.00
C332   C     0.84977   0.54580   0.64524   0.00000  Uiso   1.00
C333   C     0.83370   0.45210   0.63986   0.00000  Uiso   1.00
C334   C     0.79997   0.43840   0.55073   0.00000  Uiso   1.00
C335   C     0.74549   0.37806   0.42301   0.00000  Uiso   1.00
C336   C     0.85522   0.71933   0.58663   0.00000  Uiso   1.00
C337   C     0.85988   0.74312   0.73218   0.00000  Uiso   1.00
C338   C     0.84897   0.83051   0.78411   0.00000  Uiso   1.00
C339   C     0.85567   0.83791   0.91986   0.00000  Uiso   1.00
C340   C     0.89447   0.69432   0.56520   0.00000  Uiso   1.00
C341   C     0.91265   0.74068   0.47672   0.00000  Uiso   1.00
C342   C     0.94848   0.70699   0.47188   0.00000  Uiso   1.00
C343   C     0.83276   0.62306   0.56444   0.00000  Uiso   1.00
C344   C     0.79906   0.60949   0.47529   0.00000  Uiso   1.00
C345   C     0.78294   0.51580   0.46979   0.00000  Uiso   1.00
H346   H     0.89976   0.51692   0.79828   0.00000  Uiso   1.00
H347   H     0.89676   0.61332   0.01118   0.00000  Uiso   1.00
H348   H     0.96043   0.52349   0.70382   0.00000  Uiso   1.00
H349   H     0.84686   0.39233   0.70240   0.00000  Uiso   1.00
H350   H     0.88595   0.75428   0.21158   0.00000  Uiso   1.00
H351   H     0.02020   0.56486   0.56347   0.00000  Uiso   1.00
H352   H     0.78071   0.28827   0.56046   0.00000  Uiso   1.00
H353   H     0.84198   0.77948   0.52372   0.00000  Uiso   1.00
H354   H     0.83581   0.89029   0.72156   0.00000  Uiso   1.00
H355   H     0.89949   0.80046   0.41420   0.00000  Uiso   1.00
H356   H     0.78591   0.66930   0.41278   0.00000  Uiso   1.00
H357   H     0.83648   0.97908   0.97652   0.00000  Uiso   1.00
H358   H     0.97073   0.78965   0.32840   0.00000  Uiso   1.00
H359   H     0.73124   0.51307   0.32540   0.00000  Uiso   1.00
O360   O     0.85821   0.93485   0.22914   0.00000  Uiso   1.00
O361   O     0.03434   0.68632   0.37883   0.00000  Uiso   1.00
O362   O     0.72014   0.32345   0.37490   0.00000  Uiso   1.00
N363   N     0.87515   0.79197   0.12911   0.00000  Uiso   1.00
N364   N     0.00067   0.61488   0.52318   0.00000  Uiso   1.00
N365   N     0.77677   0.35629   0.52035   0.00000  Uiso   1.00
N366   N     0.84853   0.91294   0.00262   0.00000  Uiso   1.00
N367   N     0.97405   0.73585   0.39669   0.00000  Uiso   1.00
N368   N     0.75015   0.47726   0.39386   0.00000  Uiso   1.00
