data_job_00391
_audit_creation_date              2018-12-19
_audit_creation_method            'Materials Studio'
_symmetry_space_group_name_H-M    'P1'
_symmetry_Int_Tables_number       1
_symmetry_cell_setting            triclinic
loop_
_symmetry_equiv_pos_as_xyz
  x,y,z
_cell_length_a                    22.6207
_cell_length_b                    9.9734
_cell_length_c                    22.1783
_cell_angle_alpha                 90.0000
_cell_angle_beta                  115.5840
_cell_angle_gamma                 90.0000
loop_
_atom_site_label
_atom_site_type_symbol
_atom_site_fract_x
_atom_site_fract_y
_atom_site_fract_z
_atom_site_U_iso_or_equiv
_atom_site_adp_type
_atom_site_occupancy
C1     C     0.21567   0.22893   0.76437   0.00000  Uiso   1.00
C2     C     0.25655   0.14748   0.82678   0.00000  Uiso   1.00
C3     C     0.32442   0.13842   0.85701   0.00000  Uiso   1.00
C4     C     0.35256   0.05868   0.91372   0.00000  Uiso   1.00
C5     C     0.42189   0.94252   0.00672   0.00000  Uiso   1.00
C6     C     0.16813   0.13014   0.71442   0.00000  Uiso   1.00
C7     C     0.16165   0.10653   0.65019   0.00000  Uiso   1.00
C8     C     0.11534   0.01222   0.61230   0.00000  Uiso   1.00
C9     C     0.04735   0.86923   0.53086   0.00000  Uiso   1.00
C10    C     0.17386   0.32315   0.78407   0.00000  Uiso   1.00
C11    C     0.17218   0.46182   0.77838   0.00000  Uiso   1.00
C12    C     0.13069   0.53001   0.79912   0.00000  Uiso   1.00
C13    C     0.07160   0.68669   0.82581   0.00000  Uiso   1.00
C14    C     0.14494   0.10343   0.81130   0.00000  Uiso   1.00
C15    C     0.21813   0.07931   0.85227   0.00000  Uiso   1.00
C16    C     0.24618   0.99957   0.90894   0.00000  Uiso   1.00
C17    C     0.31408   0.99040   0.93926   0.00000  Uiso   1.00
C18    C     0.12971   0.06198   0.73991   0.00000  Uiso   1.00
C19    C     0.08340   0.96769   0.70211   0.00000  Uiso   1.00
C20    C     0.07686   0.94393   0.63784   0.00000  Uiso   1.00
C21    C     0.13544   0.25499   0.80956   0.00000  Uiso   1.00
C22    C     0.09394   0.32297   0.83031   0.00000  Uiso   1.00
C23    C     0.09221   0.46172   0.82465   0.00000  Uiso   1.00
H24    H     0.24557   0.28199   0.74452   0.00000  Uiso   1.00
H25    H     0.35414   0.19118   0.83727   0.00000  Uiso   1.00
H26    H     0.19138   0.15931   0.63047   0.00000  Uiso   1.00
H27    H     0.20192   0.51454   0.75865   0.00000  Uiso   1.00
H28    H     0.45756   0.06039   0.95132   0.00000  Uiso   1.00
H29    H     0.11436   0.99323   0.51528   0.00000  Uiso   1.00
H30    H     0.13658   0.74230   0.78555   0.00000  Uiso   1.00
H31    H     0.11503   0.05036   0.83115   0.00000  Uiso   1.00
H32    H     0.21644   0.94683   0.92865   0.00000  Uiso   1.00
H33    H     0.05368   0.91496   0.72185   0.00000  Uiso   1.00
H34    H     0.06422   0.27019   0.85003   0.00000  Uiso   1.00
H35    H     0.34580   0.86206   0.02549   0.00000  Uiso   1.00
H36    H     0.00260   0.79490   0.58944   0.00000  Uiso   1.00
H37    H     0.02482   0.54398   0.85972   0.00000  Uiso   1.00
O38    O     0.47074   0.89727   0.05098   0.00000  Uiso   1.00
O39    O     0.02047   0.80917   0.47889   0.00000  Uiso   1.00
O40    O     0.04962   0.79194   0.83349   0.00000  Uiso   1.00
N41    N     0.41734   0.02794   0.95541   0.00000  Uiso   1.00
N42    N     0.09648   0.96513   0.54773   0.00000  Uiso   1.00
N43    N     0.11724   0.66545   0.80040   0.00000  Uiso   1.00
N44    N     0.35720   0.92123   0.99532   0.00000  Uiso   1.00
N45    N     0.03634   0.85842   0.58764   0.00000  Uiso   1.00
N46    N     0.05710   0.55874   0.84031   0.00000  Uiso   1.00
C47    C     0.71567   0.72893   0.76437   0.00000  Uiso   1.00
C48    C     0.75655   0.64748   0.82678   0.00000  Uiso   1.00
C49    C     0.82442   0.63842   0.85701   0.00000  Uiso   1.00
C50    C     0.85256   0.55868   0.91372   0.00000  Uiso   1.00
C51    C     0.92189   0.44252   0.00672   0.00000  Uiso   1.00
C52    C     0.66813   0.63014   0.71442   0.00000  Uiso   1.00
C53    C     0.66165   0.60653   0.65019   0.00000  Uiso   1.00
C54    C     0.61534   0.51222   0.61230   0.00000  Uiso   1.00
C55    C     0.54735   0.36923   0.53086   0.00000  Uiso   1.00
C56    C     0.67386   0.82315   0.78407   0.00000  Uiso   1.00
C57    C     0.67218   0.96182   0.77838   0.00000  Uiso   1.00
C58    C     0.63069   0.03001   0.79912   0.00000  Uiso   1.00
C59    C     0.57160   0.18669   0.82581   0.00000  Uiso   1.00
C60    C     0.64494   0.60343   0.81130   0.00000  Uiso   1.00
C61    C     0.71813   0.57931   0.85227   0.00000  Uiso   1.00
C62    C     0.74618   0.49957   0.90894   0.00000  Uiso   1.00
C63    C     0.81408   0.49040   0.93926   0.00000  Uiso   1.00
C64    C     0.62971   0.56198   0.73991   0.00000  Uiso   1.00
C65    C     0.58340   0.46769   0.70211   0.00000  Uiso   1.00
C66    C     0.57686   0.44393   0.63784   0.00000  Uiso   1.00
C67    C     0.63544   0.75499   0.80956   0.00000  Uiso   1.00
C68    C     0.59394   0.82297   0.83031   0.00000  Uiso   1.00
C69    C     0.59221   0.96172   0.82465   0.00000  Uiso   1.00
H70    H     0.74557   0.78199   0.74452   0.00000  Uiso   1.00
H71    H     0.85414   0.69118   0.83727   0.00000  Uiso   1.00
H72    H     0.69138   0.65931   0.63047   0.00000  Uiso   1.00
H73    H     0.70192   0.01454   0.75865   0.00000  Uiso   1.00
H74    H     0.95756   0.56039   0.95132   0.00000  Uiso   1.00
H75    H     0.61436   0.49323   0.51528   0.00000  Uiso   1.00
H76    H     0.63658   0.24230   0.78555   0.00000  Uiso   1.00
H77    H     0.61503   0.55036   0.83115   0.00000  Uiso   1.00
H78    H     0.71644   0.44683   0.92865   0.00000  Uiso   1.00
H79    H     0.55368   0.41496   0.72185   0.00000  Uiso   1.00
H80    H     0.56422   0.77019   0.85003   0.00000  Uiso   1.00
H81    H     0.84580   0.36206   0.02549   0.00000  Uiso   1.00
H82    H     0.50260   0.29490   0.58944   0.00000  Uiso   1.00
H83    H     0.52482   0.04398   0.85972   0.00000  Uiso   1.00
O84    O     0.97074   0.39727   0.05098   0.00000  Uiso   1.00
O85    O     0.52047   0.30917   0.47889   0.00000  Uiso   1.00
O86    O     0.54962   0.29194   0.83349   0.00000  Uiso   1.00
N87    N     0.91734   0.52794   0.95541   0.00000  Uiso   1.00
N88    N     0.59648   0.46513   0.54773   0.00000  Uiso   1.00
N89    N     0.61724   0.16545   0.80040   0.00000  Uiso   1.00
N90    N     0.85720   0.42123   0.99532   0.00000  Uiso   1.00
N91    N     0.53634   0.35842   0.58764   0.00000  Uiso   1.00
N92    N     0.55710   0.05874   0.84031   0.00000  Uiso   1.00
C93    C     0.78433   0.22893   0.73563   0.00000  Uiso   1.00
C94    C     0.74345   0.14748   0.67322   0.00000  Uiso   1.00
C95    C     0.67558   0.13842   0.64299   0.00000  Uiso   1.00
C96    C     0.64744   0.05868   0.58628   0.00000  Uiso   1.00
C97    C     0.57811   0.94252   0.49328   0.00000  Uiso   1.00
C98    C     0.83187   0.13014   0.78558   0.00000  Uiso   1.00
C99    C     0.83835   0.10653   0.84981   0.00000  Uiso   1.00
C100   C     0.88466   0.01222   0.88770   0.00000  Uiso   1.00
C101   C     0.95265   0.86923   0.96914   0.00000  Uiso   1.00
C102   C     0.82614   0.32315   0.71593   0.00000  Uiso   1.00
C103   C     0.82782   0.46182   0.72162   0.00000  Uiso   1.00
C104   C     0.86931   0.53001   0.70088   0.00000  Uiso   1.00
C105   C     0.92840   0.68669   0.67419   0.00000  Uiso   1.00
C106   C     0.85506   0.10343   0.68870   0.00000  Uiso   1.00
C107   C     0.78187   0.07931   0.64773   0.00000  Uiso   1.00
C108   C     0.75382   0.99957   0.59106   0.00000  Uiso   1.00
C109   C     0.68592   0.99040   0.56074   0.00000  Uiso   1.00
C110   C     0.87029   0.06198   0.76009   0.00000  Uiso   1.00
C111   C     0.91660   0.96769   0.79789   0.00000  Uiso   1.00
C112   C     0.92314   0.94393   0.86216   0.00000  Uiso   1.00
C113   C     0.86456   0.25499   0.69044   0.00000  Uiso   1.00
C114   C     0.90606   0.32297   0.66969   0.00000  Uiso   1.00
C115   C     0.90779   0.46172   0.67535   0.00000  Uiso   1.00
H116   H     0.75443   0.28199   0.75548   0.00000  Uiso   1.00
H117   H     0.64586   0.19118   0.66273   0.00000  Uiso   1.00
H118   H     0.80862   0.15931   0.86953   0.00000  Uiso   1.00
H119   H     0.79808   0.51454   0.74135   0.00000  Uiso   1.00
H120   H     0.54244   0.06039   0.54868   0.00000  Uiso   1.00
H121   H     0.88564   0.99323   0.98472   0.00000  Uiso   1.00
H122   H     0.86342   0.74230   0.71445   0.00000  Uiso   1.00
H123   H     0.88497   0.05036   0.66885   0.00000  Uiso   1.00
H124   H     0.78356   0.94683   0.57135   0.00000  Uiso   1.00
H125   H     0.94632   0.91496   0.77815   0.00000  Uiso   1.00
H126   H     0.93578   0.27019   0.64997   0.00000  Uiso   1.00
H127   H     0.65420   0.86206   0.47451   0.00000  Uiso   1.00
H128   H     0.99740   0.79490   0.91056   0.00000  Uiso   1.00
H129   H     0.97518   0.54398   0.64028   0.00000  Uiso   1.00
O130   O     0.52926   0.89727   0.44902   0.00000  Uiso   1.00
O131   O     0.97953   0.80917   0.02111   0.00000  Uiso   1.00
O132   O     0.95038   0.79194   0.66651   0.00000  Uiso   1.00
N133   N     0.58266   0.02794   0.54459   0.00000  Uiso   1.00
N134   N     0.90352   0.96513   0.95227   0.00000  Uiso   1.00
N135   N     0.88276   0.66545   0.69960   0.00000  Uiso   1.00
N136   N     0.64280   0.92123   0.50468   0.00000  Uiso   1.00
N137   N     0.96366   0.85842   0.91236   0.00000  Uiso   1.00
N138   N     0.94290   0.55874   0.65969   0.00000  Uiso   1.00
C139   C     0.28433   0.72893   0.73563   0.00000  Uiso   1.00
C140   C     0.24345   0.64748   0.67322   0.00000  Uiso   1.00
C141   C     0.17558   0.63842   0.64299   0.00000  Uiso   1.00
C142   C     0.14744   0.55868   0.58628   0.00000  Uiso   1.00
C143   C     0.07811   0.44252   0.49328   0.00000  Uiso   1.00
C144   C     0.33187   0.63014   0.78558   0.00000  Uiso   1.00
C145   C     0.33835   0.60653   0.84981   0.00000  Uiso   1.00
C146   C     0.38466   0.51222   0.88770   0.00000  Uiso   1.00
C147   C     0.45265   0.36923   0.96914   0.00000  Uiso   1.00
C148   C     0.32614   0.82315   0.71593   0.00000  Uiso   1.00
C149   C     0.32782   0.96182   0.72162   0.00000  Uiso   1.00
C150   C     0.36931   0.03001   0.70088   0.00000  Uiso   1.00
C151   C     0.42840   0.18669   0.67419   0.00000  Uiso   1.00
C152   C     0.35506   0.60343   0.68870   0.00000  Uiso   1.00
C153   C     0.28187   0.57931   0.64773   0.00000  Uiso   1.00
C154   C     0.25382   0.49957   0.59106   0.00000  Uiso   1.00
C155   C     0.18592   0.49040   0.56074   0.00000  Uiso   1.00
C156   C     0.37029   0.56198   0.76009   0.00000  Uiso   1.00
C157   C     0.41660   0.46769   0.79789   0.00000  Uiso   1.00
C158   C     0.42314   0.44393   0.86216   0.00000  Uiso   1.00
C159   C     0.36456   0.75499   0.69044   0.00000  Uiso   1.00
C160   C     0.40606   0.82297   0.66969   0.00000  Uiso   1.00
C161   C     0.40779   0.96172   0.67535   0.00000  Uiso   1.00
H162   H     0.25443   0.78199   0.75548   0.00000  Uiso   1.00
H163   H     0.14586   0.69118   0.66273   0.00000  Uiso   1.00
H164   H     0.30862   0.65931   0.86953   0.00000  Uiso   1.00
H165   H     0.29808   0.01454   0.74135   0.00000  Uiso   1.00
H166   H     0.04244   0.56039   0.54868   0.00000  Uiso   1.00
H167   H     0.38564   0.49323   0.98472   0.00000  Uiso   1.00
H168   H     0.36342   0.24230   0.71445   0.00000  Uiso   1.00
H169   H     0.38497   0.55036   0.66885   0.00000  Uiso   1.00
H170   H     0.28356   0.44683   0.57135   0.00000  Uiso   1.00
H171   H     0.44632   0.41496   0.77815   0.00000  Uiso   1.00
H172   H     0.43578   0.77019   0.64997   0.00000  Uiso   1.00
H173   H     0.15420   0.36206   0.47451   0.00000  Uiso   1.00
H174   H     0.49740   0.29490   0.91056   0.00000  Uiso   1.00
H175   H     0.47518   0.04398   0.64028   0.00000  Uiso   1.00
O176   O     0.02926   0.39727   0.44902   0.00000  Uiso   1.00
O177   O     0.47953   0.30917   0.02111   0.00000  Uiso   1.00
O178   O     0.45038   0.29194   0.66651   0.00000  Uiso   1.00
N179   N     0.08266   0.52794   0.54459   0.00000  Uiso   1.00
N180   N     0.40352   0.46513   0.95227   0.00000  Uiso   1.00
N181   N     0.38276   0.16545   0.69960   0.00000  Uiso   1.00
N182   N     0.14280   0.42123   0.50468   0.00000  Uiso   1.00
N183   N     0.46366   0.35842   0.91236   0.00000  Uiso   1.00
N184   N     0.44290   0.05874   0.65969   0.00000  Uiso   1.00
C185   C     0.78433   0.77107   0.23563   0.00000  Uiso   1.00
C186   C     0.74345   0.85252   0.17322   0.00000  Uiso   1.00
C187   C     0.67558   0.86158   0.14299   0.00000  Uiso   1.00
C188   C     0.64744   0.94132   0.08628   0.00000  Uiso   1.00
C189   C     0.57811   0.05748   0.99328   0.00000  Uiso   1.00
C190   C     0.83187   0.86986   0.28558   0.00000  Uiso   1.00
C191   C     0.83835   0.89347   0.34981   0.00000  Uiso   1.00
C192   C     0.88466   0.98778   0.38770   0.00000  Uiso   1.00
C193   C     0.95265   0.13077   0.46914   0.00000  Uiso   1.00
C194   C     0.82614   0.67685   0.21593   0.00000  Uiso   1.00
C195   C     0.82782   0.53818   0.22162   0.00000  Uiso   1.00
C196   C     0.86931   0.46999   0.20088   0.00000  Uiso   1.00
C197   C     0.92840   0.31331   0.17419   0.00000  Uiso   1.00
C198   C     0.85506   0.89657   0.18870   0.00000  Uiso   1.00
C199   C     0.78187   0.92069   0.14773   0.00000  Uiso   1.00
C200   C     0.75382   0.00043   0.09106   0.00000  Uiso   1.00
C201   C     0.68592   0.00960   0.06074   0.00000  Uiso   1.00
C202   C     0.87029   0.93802   0.26009   0.00000  Uiso   1.00
C203   C     0.91660   0.03231   0.29789   0.00000  Uiso   1.00
C204   C     0.92314   0.05607   0.36216   0.00000  Uiso   1.00
C205   C     0.86456   0.74501   0.19044   0.00000  Uiso   1.00
C206   C     0.90606   0.67703   0.16969   0.00000  Uiso   1.00
C207   C     0.90779   0.53828   0.17535   0.00000  Uiso   1.00
H208   H     0.75443   0.71801   0.25548   0.00000  Uiso   1.00
H209   H     0.64586   0.80882   0.16273   0.00000  Uiso   1.00
H210   H     0.80862   0.84069   0.36953   0.00000  Uiso   1.00
H211   H     0.79808   0.48546   0.24135   0.00000  Uiso   1.00
H212   H     0.54244   0.93961   0.04868   0.00000  Uiso   1.00
H213   H     0.88564   0.00677   0.48472   0.00000  Uiso   1.00
H214   H     0.86342   0.25770   0.21445   0.00000  Uiso   1.00
H215   H     0.88497   0.94964   0.16885   0.00000  Uiso   1.00
H216   H     0.78356   0.05317   0.07135   0.00000  Uiso   1.00
H217   H     0.94632   0.08504   0.27815   0.00000  Uiso   1.00
H218   H     0.93578   0.72981   0.14997   0.00000  Uiso   1.00
H219   H     0.65420   0.13794   0.97451   0.00000  Uiso   1.00
H220   H     0.99740   0.20510   0.41056   0.00000  Uiso   1.00
H221   H     0.97518   0.45602   0.14028   0.00000  Uiso   1.00
O222   O     0.52926   0.10273   0.94902   0.00000  Uiso   1.00
O223   O     0.97953   0.19083   0.52111   0.00000  Uiso   1.00
O224   O     0.95038   0.20806   0.16651   0.00000  Uiso   1.00
N225   N     0.58266   0.97206   0.04459   0.00000  Uiso   1.00
N226   N     0.90352   0.03487   0.45227   0.00000  Uiso   1.00
N227   N     0.88276   0.33455   0.19960   0.00000  Uiso   1.00
N228   N     0.64280   0.07877   0.00468   0.00000  Uiso   1.00
N229   N     0.96366   0.14158   0.41236   0.00000  Uiso   1.00
N230   N     0.94290   0.44126   0.15969   0.00000  Uiso   1.00
C231   C     0.28433   0.27107   0.23563   0.00000  Uiso   1.00
C232   C     0.24345   0.35252   0.17322   0.00000  Uiso   1.00
C233   C     0.17558   0.36158   0.14299   0.00000  Uiso   1.00
C234   C     0.14744   0.44132   0.08628   0.00000  Uiso   1.00
C235   C     0.07811   0.55748   0.99328   0.00000  Uiso   1.00
C236   C     0.33187   0.36986   0.28558   0.00000  Uiso   1.00
C237   C     0.33835   0.39347   0.34981   0.00000  Uiso   1.00
C238   C     0.38466   0.48778   0.38770   0.00000  Uiso   1.00
C239   C     0.45265   0.63077   0.46914   0.00000  Uiso   1.00
C240   C     0.32614   0.17685   0.21593   0.00000  Uiso   1.00
C241   C     0.32782   0.03818   0.22162   0.00000  Uiso   1.00
C242   C     0.36931   0.96999   0.20088   0.00000  Uiso   1.00
C243   C     0.42840   0.81331   0.17419   0.00000  Uiso   1.00
C244   C     0.35506   0.39657   0.18870   0.00000  Uiso   1.00
C245   C     0.28187   0.42069   0.14773   0.00000  Uiso   1.00
C246   C     0.25382   0.50043   0.09106   0.00000  Uiso   1.00
C247   C     0.18592   0.50960   0.06074   0.00000  Uiso   1.00
C248   C     0.37029   0.43802   0.26009   0.00000  Uiso   1.00
C249   C     0.41660   0.53231   0.29789   0.00000  Uiso   1.00
C250   C     0.42314   0.55607   0.36216   0.00000  Uiso   1.00
C251   C     0.36456   0.24501   0.19044   0.00000  Uiso   1.00
C252   C     0.40606   0.17703   0.16969   0.00000  Uiso   1.00
C253   C     0.40779   0.03828   0.17535   0.00000  Uiso   1.00
H254   H     0.25443   0.21801   0.25548   0.00000  Uiso   1.00
H255   H     0.14586   0.30882   0.16273   0.00000  Uiso   1.00
H256   H     0.30862   0.34069   0.36953   0.00000  Uiso   1.00
H257   H     0.29808   0.98546   0.24135   0.00000  Uiso   1.00
H258   H     0.04244   0.43961   0.04868   0.00000  Uiso   1.00
H259   H     0.38564   0.50677   0.48472   0.00000  Uiso   1.00
H260   H     0.36342   0.75770   0.21445   0.00000  Uiso   1.00
H261   H     0.38497   0.44964   0.16885   0.00000  Uiso   1.00
H262   H     0.28356   0.55317   0.07135   0.00000  Uiso   1.00
H263   H     0.44632   0.58504   0.27815   0.00000  Uiso   1.00
H264   H     0.43578   0.22981   0.14997   0.00000  Uiso   1.00
H265   H     0.15420   0.63794   0.97451   0.00000  Uiso   1.00
H266   H     0.49740   0.70510   0.41056   0.00000  Uiso   1.00
H267   H     0.47518   0.95602   0.14028   0.00000  Uiso   1.00
O268   O     0.02926   0.60273   0.94902   0.00000  Uiso   1.00
O269   O     0.47953   0.69083   0.52111   0.00000  Uiso   1.00
O270   O     0.45038   0.70806   0.16651   0.00000  Uiso   1.00
N271   N     0.08266   0.47206   0.04459   0.00000  Uiso   1.00
N272   N     0.40352   0.53487   0.45227   0.00000  Uiso   1.00
N273   N     0.38276   0.83455   0.19960   0.00000  Uiso   1.00
N274   N     0.14280   0.57877   0.00468   0.00000  Uiso   1.00
N275   N     0.46366   0.64158   0.41236   0.00000  Uiso   1.00
N276   N     0.44290   0.94126   0.15969   0.00000  Uiso   1.00
C277   C     0.21567   0.77107   0.26437   0.00000  Uiso   1.00
C278   C     0.25655   0.85252   0.32678   0.00000  Uiso   1.00
C279   C     0.32442   0.86158   0.35701   0.00000  Uiso   1.00
C280   C     0.35256   0.94132   0.41372   0.00000  Uiso   1.00
C281   C     0.42189   0.05748   0.50672   0.00000  Uiso   1.00
C282   C     0.16813   0.86986   0.21442   0.00000  Uiso   1.00
C283   C     0.16165   0.89347   0.15019   0.00000  Uiso   1.00
C284   C     0.11534   0.98778   0.11230   0.00000  Uiso   1.00
C285   C     0.04735   0.13077   0.03086   0.00000  Uiso   1.00
C286   C     0.17386   0.67685   0.28407   0.00000  Uiso   1.00
C287   C     0.17218   0.53818   0.27838   0.00000  Uiso   1.00
C288   C     0.13069   0.46999   0.29912   0.00000  Uiso   1.00
C289   C     0.07160   0.31331   0.32581   0.00000  Uiso   1.00
C290   C     0.14494   0.89657   0.31130   0.00000  Uiso   1.00
C291   C     0.21813   0.92069   0.35227   0.00000  Uiso   1.00
C292   C     0.24618   0.00043   0.40894   0.00000  Uiso   1.00
C293   C     0.31408   0.00960   0.43926   0.00000  Uiso   1.00
C294   C     0.12971   0.93802   0.23991   0.00000  Uiso   1.00
C295   C     0.08340   0.03231   0.20211   0.00000  Uiso   1.00
C296   C     0.07686   0.05607   0.13784   0.00000  Uiso   1.00
C297   C     0.13544   0.74501   0.30956   0.00000  Uiso   1.00
C298   C     0.09394   0.67703   0.33031   0.00000  Uiso   1.00
C299   C     0.09221   0.53828   0.32465   0.00000  Uiso   1.00
H300   H     0.24557   0.71801   0.24452   0.00000  Uiso   1.00
H301   H     0.35414   0.80882   0.33727   0.00000  Uiso   1.00
H302   H     0.19138   0.84069   0.13047   0.00000  Uiso   1.00
H303   H     0.20192   0.48546   0.25865   0.00000  Uiso   1.00
H304   H     0.45756   0.93961   0.45132   0.00000  Uiso   1.00
H305   H     0.11436   0.00677   0.01528   0.00000  Uiso   1.00
H306   H     0.13658   0.25770   0.28555   0.00000  Uiso   1.00
H307   H     0.11503   0.94964   0.33115   0.00000  Uiso   1.00
H308   H     0.21644   0.05317   0.42865   0.00000  Uiso   1.00
H309   H     0.05368   0.08504   0.22185   0.00000  Uiso   1.00
H310   H     0.06422   0.72981   0.35003   0.00000  Uiso   1.00
H311   H     0.34580   0.13794   0.52549   0.00000  Uiso   1.00
H312   H     0.00260   0.20510   0.08944   0.00000  Uiso   1.00
H313   H     0.02482   0.45602   0.35972   0.00000  Uiso   1.00
O314   O     0.47074   0.10273   0.55098   0.00000  Uiso   1.00
O315   O     0.02047   0.19083   0.97889   0.00000  Uiso   1.00
O316   O     0.04962   0.20806   0.33349   0.00000  Uiso   1.00
N317   N     0.41734   0.97206   0.45541   0.00000  Uiso   1.00
N318   N     0.09648   0.03487   0.04773   0.00000  Uiso   1.00
N319   N     0.11724   0.33455   0.30040   0.00000  Uiso   1.00
N320   N     0.35720   0.07877   0.49532   0.00000  Uiso   1.00
N321   N     0.03634   0.14158   0.08764   0.00000  Uiso   1.00
N322   N     0.05710   0.44126   0.34031   0.00000  Uiso   1.00
C323   C     0.71567   0.27107   0.26437   0.00000  Uiso   1.00
C324   C     0.75655   0.35252   0.32678   0.00000  Uiso   1.00
C325   C     0.82442   0.36158   0.35701   0.00000  Uiso   1.00
C326   C     0.85256   0.44132   0.41372   0.00000  Uiso   1.00
C327   C     0.92189   0.55748   0.50672   0.00000  Uiso   1.00
C328   C     0.66813   0.36986   0.21442   0.00000  Uiso   1.00
C329   C     0.66165   0.39347   0.15019   0.00000  Uiso   1.00
C330   C     0.61534   0.48778   0.11230   0.00000  Uiso   1.00
C331   C     0.54735   0.63077   0.03086   0.00000  Uiso   1.00
C332   C     0.67386   0.17685   0.28407   0.00000  Uiso   1.00
C333   C     0.67218   0.03818   0.27838   0.00000  Uiso   1.00
C334   C     0.63069   0.96999   0.29912   0.00000  Uiso   1.00
C335   C     0.57160   0.81331   0.32581   0.00000  Uiso   1.00
C336   C     0.64494   0.39657   0.31130   0.00000  Uiso   1.00
C337   C     0.71813   0.42069   0.35227   0.00000  Uiso   1.00
C338   C     0.74618   0.50043   0.40894   0.00000  Uiso   1.00
C339   C     0.81408   0.50960   0.43926   0.00000  Uiso   1.00
C340   C     0.62971   0.43802   0.23991   0.00000  Uiso   1.00
C341   C     0.58340   0.53231   0.20211   0.00000  Uiso   1.00
C342   C     0.57686   0.55607   0.13784   0.00000  Uiso   1.00
C343   C     0.63544   0.24501   0.30956   0.00000  Uiso   1.00
C344   C     0.59394   0.17703   0.33031   0.00000  Uiso   1.00
C345   C     0.59221   0.03828   0.32465   0.00000  Uiso   1.00
H346   H     0.74557   0.21801   0.24452   0.00000  Uiso   1.00
H347   H     0.85414   0.30882   0.33727   0.00000  Uiso   1.00
H348   H     0.69138   0.34069   0.13047   0.00000  Uiso   1.00
H349   H     0.70192   0.98546   0.25865   0.00000  Uiso   1.00
H350   H     0.95756   0.43961   0.45132   0.00000  Uiso   1.00
H351   H     0.61436   0.50677   0.01528   0.00000  Uiso   1.00
H352   H     0.63658   0.75770   0.28555   0.00000  Uiso   1.00
H353   H     0.61503   0.44964   0.33115   0.00000  Uiso   1.00
H354   H     0.71644   0.55317   0.42865   0.00000  Uiso   1.00
H355   H     0.55368   0.58504   0.22185   0.00000  Uiso   1.00
H356   H     0.56422   0.22981   0.35003   0.00000  Uiso   1.00
H357   H     0.84580   0.63794   0.52549   0.00000  Uiso   1.00
H358   H     0.50260   0.70510   0.08944   0.00000  Uiso   1.00
H359   H     0.52482   0.95602   0.35972   0.00000  Uiso   1.00
O360   O     0.97074   0.60273   0.55098   0.00000  Uiso   1.00
O361   O     0.52047   0.69083   0.97889   0.00000  Uiso   1.00
O362   O     0.54962   0.70806   0.33349   0.00000  Uiso   1.00
N363   N     0.91734   0.47206   0.45541   0.00000  Uiso   1.00
N364   N     0.59648   0.53487   0.04773   0.00000  Uiso   1.00
N365   N     0.61724   0.83455   0.30040   0.00000  Uiso   1.00
N366   N     0.85720   0.57877   0.49532   0.00000  Uiso   1.00
N367   N     0.53634   0.64158   0.08764   0.00000  Uiso   1.00
N368   N     0.55710   0.94126   0.34031   0.00000  Uiso   1.00
