data_job_05996
_audit_creation_date              2018-12-19
_audit_creation_method            'Materials Studio'
_symmetry_space_group_name_H-M    'P1'
_symmetry_Int_Tables_number       1
_symmetry_cell_setting            triclinic
loop_
_symmetry_equiv_pos_as_xyz
  x,y,z
_cell_length_a                    7.8158
_cell_length_b                    27.3783
_cell_length_c                    27.3957
_cell_angle_alpha                 60.8060
_cell_angle_beta                  85.1302
_cell_angle_gamma                 94.8615
loop_
_atom_site_label
_atom_site_type_symbol
_atom_site_fract_x
_atom_site_fract_y
_atom_site_fract_z
_atom_site_U_iso_or_equiv
_atom_site_adp_type
_atom_site_occupancy
C1     C     0.94330   0.98287   0.74336   0.00000  Uiso   1.00
C2     C     0.06815   0.00054   0.77368   0.00000  Uiso   1.00
C3     C     0.05466   0.04365   0.78608   0.00000  Uiso   1.00
C4     C     0.18199   0.05323   0.81405   0.00000  Uiso   1.00
C5     C     0.35523   0.08560   0.85882   0.00000  Uiso   1.00
C6     C     0.05373   0.98714   0.69241   0.00000  Uiso   1.00
C7     C     0.02809   0.01899   0.63649   0.00000  Uiso   1.00
C8     C     0.14328   0.01728   0.59606   0.00000  Uiso   1.00
C9     C     0.29405   0.02883   0.51467   0.00000  Uiso   1.00
C10    C     0.87944   0.92006   0.78290   0.00000  Uiso   1.00
C11    C     0.70726   0.89550   0.80305   0.00000  Uiso   1.00
C12    C     0.67570   0.83732   0.83880   0.00000  Uiso   1.00
C13    C     0.55586   0.74472   0.89791   0.00000  Uiso   1.00
C14    C     0.19342   0.92322   0.77099   0.00000  Uiso   1.00
C15    C     0.20400   0.96813   0.78868   0.00000  Uiso   1.00
C16    C     0.33139   0.97765   0.81665   0.00000  Uiso   1.00
C17    C     0.31809   0.02077   0.82909   0.00000  Uiso   1.00
C18    C     0.18958   0.95474   0.70742   0.00000  Uiso   1.00
C19    C     0.30482   0.95299   0.66706   0.00000  Uiso   1.00
C20    C     0.27938   0.98482   0.61109   0.00000  Uiso   1.00
C21    C     0.01529   0.88766   0.79791   0.00000  Uiso   1.00
C22    C     0.98399   0.82950   0.83363   0.00000  Uiso   1.00
C23    C     0.81180   0.80486   0.85383   0.00000  Uiso   1.00
H24    H     0.83754   0.00810   0.73167   0.00000  Uiso   1.00
H25    H     0.94951   0.06872   0.77445   0.00000  Uiso   1.00
H26    H     0.92294   0.04405   0.62489   0.00000  Uiso   1.00
H27    H     0.60216   0.92059   0.79143   0.00000  Uiso   1.00
H28    H     0.13361   0.12165   0.82848   0.00000  Uiso   1.00
H29    H     0.07754   0.06963   0.51313   0.00000  Uiso   1.00
H30    H     0.40111   0.80928   0.86431   0.00000  Uiso   1.00
H31    H     0.29919   0.89799   0.78267   0.00000  Uiso   1.00
H32    H     0.43650   0.95257   0.82825   0.00000  Uiso   1.00
H33    H     0.40993   0.92791   0.67869   0.00000  Uiso   1.00
H34    H     0.08915   0.80444   0.84523   0.00000  Uiso   1.00
H35    H     0.52887   0.02738   0.87215   0.00000  Uiso   1.00
H36    H     0.47280   0.97536   0.55679   0.00000  Uiso   1.00
H37    H     0.79638   0.71501   0.90798   0.00000  Uiso   1.00
O38    O     0.41327   0.11242   0.87936   0.00000  Uiso   1.00
O39    O     0.33969   0.04416   0.46563   0.00000  Uiso   1.00
O40    O     0.45224   0.70259   0.92638   0.00000  Uiso   1.00
N41    N     0.20777   0.09197   0.83251   0.00000  Uiso   1.00
N42    N     0.15537   0.04334   0.53767   0.00000  Uiso   1.00
N43    N     0.52296   0.79993   0.86599   0.00000  Uiso   1.00
N44    N     0.42046   0.04124   0.85601   0.00000  Uiso   1.00
N45    N     0.36806   0.99261   0.56117   0.00000  Uiso   1.00
N46    N     0.73565   0.74921   0.88949   0.00000  Uiso   1.00
C47    C     0.96219   0.27420   0.98207   0.00000  Uiso   1.00
C48    C     0.07019   0.22592   0.00031   0.00000  Uiso   1.00
C49    C     0.01633   0.17056   0.04321   0.00000  Uiso   1.00
C50    C     0.13438   0.13269   0.05341   0.00000  Uiso   1.00
C51    C     0.27687   0.05515   0.08657   0.00000  Uiso   1.00
C52    C     0.06833   0.32062   0.98691   0.00000  Uiso   1.00
C53    C     0.01289   0.34488   0.01854   0.00000  Uiso   1.00
C54    C     0.12938   0.38673   0.01745   0.00000  Uiso   1.00
C55    C     0.26894   0.45624   0.02978   0.00000  Uiso   1.00
C56    C     0.95736   0.29743   0.91911   0.00000  Uiso   1.00
C57    C     0.80863   0.30222   0.89373   0.00000  Uiso   1.00
C58    C     0.83169   0.32456   0.83556   0.00000  Uiso   1.00
C59    C     0.79895   0.35807   0.74261   0.00000  Uiso   1.00
C60    C     0.26761   0.30539   0.92389   0.00000  Uiso   1.00
C61    C     0.23608   0.24286   0.96872   0.00000  Uiso   1.00
C62    C     0.35424   0.20507   0.97885   0.00000  Uiso   1.00
C63    C     0.30057   0.14966   0.02176   0.00000  Uiso   1.00
C64    C     0.23422   0.33756   0.95532   0.00000  Uiso   1.00
C65    C     0.35081   0.37938   0.95418   0.00000  Uiso   1.00
C66    C     0.29557   0.40370   0.98580   0.00000  Uiso   1.00
C67    C     0.12325   0.31437   0.88752   0.00000  Uiso   1.00
C68    C     0.14655   0.33672   0.82937   0.00000  Uiso   1.00
C69    C     0.99788   0.34153   0.80391   0.00000  Uiso   1.00
H70    H     0.83304   0.26101   0.00666   0.00000  Uiso   1.00
H71    H     0.88794   0.15747   0.06766   0.00000  Uiso   1.00
H72    H     0.88450   0.33176   0.04298   0.00000  Uiso   1.00
H73    H     0.68027   0.28910   0.91819   0.00000  Uiso   1.00
H74    H     0.02199   0.05014   0.12136   0.00000  Uiso   1.00
H75    H     0.01472   0.41767   0.06932   0.00000  Uiso   1.00
H76    H     0.58406   0.32771   0.80617   0.00000  Uiso   1.00
H77    H     0.39677   0.31858   0.89929   0.00000  Uiso   1.00
H78    H     0.48261   0.21819   0.95440   0.00000  Uiso   1.00
H79    H     0.47917   0.39248   0.92972   0.00000  Uiso   1.00
H80    H     0.27494   0.34983   0.80494   0.00000  Uiso   1.00
H81    H     0.50465   0.09943   0.02943   0.00000  Uiso   1.00
H82    H     0.49738   0.46695   0.97739   0.00000  Uiso   1.00
H83    H     0.06672   0.37700   0.71425   0.00000  Uiso   1.00
O84    O     0.30964   0.00771   0.11359   0.00000  Uiso   1.00
O85    O     0.30009   0.48990   0.04531   0.00000  Uiso   1.00
O86    O     0.73506   0.37187   0.70007   0.00000  Uiso   1.00
N87    N     0.12380   0.07552   0.09215   0.00000  Uiso   1.00
N88    N     0.11701   0.41912   0.04351   0.00000  Uiso   1.00
N89    N     0.71437   0.33504   0.79749   0.00000  Uiso   1.00
N90    N     0.38351   0.10204   0.04269   0.00000  Uiso   1.00
N91    N     0.37672   0.44564   0.99404   0.00000  Uiso   1.00
N92    N     0.97408   0.36156   0.74802   0.00000  Uiso   1.00
C93    C     0.68635   0.74406   0.27346   0.00000  Uiso   1.00
C94    C     0.83933   0.77366   0.22589   0.00000  Uiso   1.00
C95    C     0.83750   0.78609   0.17041   0.00000  Uiso   1.00
C96    C     0.99076   0.81334   0.13328   0.00000  Uiso   1.00
C97    C     0.20557   0.85711   0.05672   0.00000  Uiso   1.00
C98    C     0.74873   0.69264   0.32028   0.00000  Uiso   1.00
C99    C     0.67070   0.63695   0.34416   0.00000  Uiso   1.00
C100   C     0.74768   0.59600   0.38648   0.00000  Uiso   1.00
C101   C     0.82175   0.51399   0.45649   0.00000  Uiso   1.00
C102   C     0.65974   0.78388   0.29661   0.00000  Uiso   1.00
C103   C     0.50688   0.80490   0.30062   0.00000  Uiso   1.00
C104   C     0.50892   0.84075   0.32303   0.00000  Uiso   1.00
C105   C     0.44482   0.90040   0.35629   0.00000  Uiso   1.00
C106   C     0.96177   0.77035   0.30615   0.00000  Uiso   1.00
C107   C     0.98893   0.78794   0.24365   0.00000  Uiso   1.00
C108   C     0.14223   0.81518   0.20659   0.00000  Uiso   1.00
C109   C     0.14063   0.82765   0.15106   0.00000  Uiso   1.00
C110   C     0.89832   0.70692   0.33804   0.00000  Uiso   1.00
C111   C     0.97543   0.66604   0.38033   0.00000  Uiso   1.00
C112   C     0.89755   0.61031   0.40427   0.00000  Uiso   1.00
C113   C     0.80934   0.79816   0.31437   0.00000  Uiso   1.00
C114   C     0.81161   0.83399   0.33679   0.00000  Uiso   1.00
C115   C     0.65879   0.85506   0.34082   0.00000  Uiso   1.00
H116   H     0.56988   0.73293   0.25963   0.00000  Uiso   1.00
H117   H     0.72171   0.77503   0.15669   0.00000  Uiso   1.00
H118   H     0.55492   0.62591   0.33041   0.00000  Uiso   1.00
H119   H     0.39113   0.79383   0.28687   0.00000  Uiso   1.00
H120   H     0.95603   0.82797   0.05039   0.00000  Uiso   1.00
H121   H     0.60432   0.51356   0.41671   0.00000  Uiso   1.00
H122   H     0.25893   0.86765   0.32489   0.00000  Uiso   1.00
H123   H     0.07825   0.78147   0.31998   0.00000  Uiso   1.00
H124   H     0.25798   0.82623   0.22034   0.00000  Uiso   1.00
H125   H     0.09119   0.67711   0.39407   0.00000  Uiso   1.00
H126   H     0.92740   0.84503   0.35053   0.00000  Uiso   1.00
H127   H     0.39129   0.86953   0.10206   0.00000  Uiso   1.00
H128   H     0.03957   0.55511   0.46837   0.00000  Uiso   1.00
H129   H     0.69419   0.90921   0.37656   0.00000  Uiso   1.00
O130   O     0.28274   0.87730   0.00959   0.00000  Uiso   1.00
O131   O     0.82128   0.46480   0.49019   0.00000  Uiso   1.00
O132   O     0.36815   0.92937   0.36973   0.00000  Uiso   1.00
N133   N     0.03380   0.83162   0.07622   0.00000  Uiso   1.00
N134   N     0.70498   0.53766   0.41870   0.00000  Uiso   1.00
N135   N     0.38206   0.86870   0.33287   0.00000  Uiso   1.00
N136   N     0.26801   0.85398   0.10402   0.00000  Uiso   1.00
N137   N     0.93919   0.56002   0.44650   0.00000  Uiso   1.00
N138   N     0.61627   0.89106   0.36068   0.00000  Uiso   1.00
C139   C     0.05670   0.01713   0.25664   0.00000  Uiso   1.00
C140   C     0.93185   0.99946   0.22632   0.00000  Uiso   1.00
C141   C     0.94534   0.95635   0.21392   0.00000  Uiso   1.00
C142   C     0.81801   0.94677   0.18595   0.00000  Uiso   1.00
C143   C     0.64477   0.91439   0.14118   0.00000  Uiso   1.00
C144   C     0.94627   0.01286   0.30759   0.00000  Uiso   1.00
C145   C     0.97191   0.98101   0.36351   0.00000  Uiso   1.00
C146   C     0.85672   0.98272   0.40394   0.00000  Uiso   1.00
C147   C     0.70595   0.97117   0.48533   0.00000  Uiso   1.00
C148   C     0.12056   0.07994   0.21710   0.00000  Uiso   1.00
C149   C     0.29274   0.10450   0.19695   0.00000  Uiso   1.00
C150   C     0.32430   0.16268   0.16120   0.00000  Uiso   1.00
C151   C     0.44414   0.25528   0.10209   0.00000  Uiso   1.00
C152   C     0.80658   0.07678   0.22901   0.00000  Uiso   1.00
C153   C     0.79600   0.03187   0.21132   0.00000  Uiso   1.00
C154   C     0.66861   0.02235   0.18335   0.00000  Uiso   1.00
C155   C     0.68191   0.97923   0.17091   0.00000  Uiso   1.00
C156   C     0.81042   0.04526   0.29258   0.00000  Uiso   1.00
C157   C     0.69518   0.04701   0.33294   0.00000  Uiso   1.00
C158   C     0.72062   0.01518   0.38891   0.00000  Uiso   1.00
C159   C     0.98471   0.11234   0.20209   0.00000  Uiso   1.00
C160   C     0.01601   0.17050   0.16637   0.00000  Uiso   1.00
C161   C     0.18820   0.19514   0.14617   0.00000  Uiso   1.00
H162   H     0.16246   0.99190   0.26833   0.00000  Uiso   1.00
H163   H     0.05049   0.93128   0.22555   0.00000  Uiso   1.00
H164   H     0.07706   0.95595   0.37511   0.00000  Uiso   1.00
H165   H     0.39784   0.07941   0.20857   0.00000  Uiso   1.00
H166   H     0.86639   0.87835   0.17152   0.00000  Uiso   1.00
H167   H     0.92246   0.93037   0.48687   0.00000  Uiso   1.00
H168   H     0.59889   0.19072   0.13569   0.00000  Uiso   1.00
H169   H     0.70081   0.10201   0.21733   0.00000  Uiso   1.00
H170   H     0.56350   0.04743   0.17175   0.00000  Uiso   1.00
H171   H     0.59007   0.07209   0.32131   0.00000  Uiso   1.00
H172   H     0.91085   0.19556   0.15477   0.00000  Uiso   1.00
H173   H     0.47113   0.97262   0.12785   0.00000  Uiso   1.00
H174   H     0.52720   0.02464   0.44321   0.00000  Uiso   1.00
H175   H     0.20362   0.28499   0.09202   0.00000  Uiso   1.00
O176   O     0.58673   0.88758   0.12064   0.00000  Uiso   1.00
O177   O     0.66031   0.95584   0.53437   0.00000  Uiso   1.00
O178   O     0.54776   0.29741   0.07362   0.00000  Uiso   1.00
N179   N     0.79223   0.90803   0.16749   0.00000  Uiso   1.00
N180   N     0.84463   0.95666   0.46233   0.00000  Uiso   1.00
N181   N     0.47704   0.20007   0.13401   0.00000  Uiso   1.00
N182   N     0.57954   0.95876   0.14399   0.00000  Uiso   1.00
N183   N     0.63195   0.00739   0.43883   0.00000  Uiso   1.00
N184   N     0.26435   0.25079   0.11051   0.00000  Uiso   1.00
C185   C     0.03781   0.72580   0.01793   0.00000  Uiso   1.00
C186   C     0.92981   0.77408   0.99969   0.00000  Uiso   1.00
C187   C     0.98367   0.82944   0.95679   0.00000  Uiso   1.00
C188   C     0.86562   0.86731   0.94659   0.00000  Uiso   1.00
C189   C     0.72313   0.94484   0.91343   0.00000  Uiso   1.00
C190   C     0.93167   0.67938   0.01309   0.00000  Uiso   1.00
C191   C     0.98711   0.65512   0.98146   0.00000  Uiso   1.00
C192   C     0.87062   0.61327   0.98254   0.00000  Uiso   1.00
C193   C     0.73106   0.54376   0.97022   0.00000  Uiso   1.00
C194   C     0.04264   0.70257   0.08089   0.00000  Uiso   1.00
C195   C     0.19137   0.69778   0.10627   0.00000  Uiso   1.00
C196   C     0.16831   0.67544   0.16444   0.00000  Uiso   1.00
C197   C     0.20105   0.64193   0.25739   0.00000  Uiso   1.00
C198   C     0.73239   0.69461   0.07610   0.00000  Uiso   1.00
C199   C     0.76392   0.75714   0.03128   0.00000  Uiso   1.00
C200   C     0.64576   0.79493   0.02115   0.00000  Uiso   1.00
C201   C     0.69943   0.85034   0.97824   0.00000  Uiso   1.00
C202   C     0.76578   0.66244   0.04468   0.00000  Uiso   1.00
C203   C     0.64919   0.62062   0.04582   0.00000  Uiso   1.00
C204   C     0.70443   0.59630   0.01420   0.00000  Uiso   1.00
C205   C     0.87675   0.68563   0.11248   0.00000  Uiso   1.00
C206   C     0.85345   0.66328   0.17063   0.00000  Uiso   1.00
C207   C     0.00212   0.65847   0.19609   0.00000  Uiso   1.00
H208   H     0.16696   0.73899   0.99334   0.00000  Uiso   1.00
H209   H     0.11206   0.84253   0.93234   0.00000  Uiso   1.00
H210   H     0.11550   0.66824   0.95702   0.00000  Uiso   1.00
H211   H     0.31973   0.71090   0.08181   0.00000  Uiso   1.00
H212   H     0.97801   0.94986   0.87864   0.00000  Uiso   1.00
H213   H     0.98528   0.58233   0.93068   0.00000  Uiso   1.00
H214   H     0.41594   0.67228   0.19383   0.00000  Uiso   1.00
H215   H     0.60323   0.68142   0.10070   0.00000  Uiso   1.00
H216   H     0.51739   0.78181   0.04560   0.00000  Uiso   1.00
H217   H     0.52083   0.60751   0.07028   0.00000  Uiso   1.00
H218   H     0.72506   0.65017   0.19506   0.00000  Uiso   1.00
H219   H     0.49535   0.90057   0.97057   0.00000  Uiso   1.00
H220   H     0.50262   0.53304   0.02261   0.00000  Uiso   1.00
H221   H     0.93328   0.62300   0.28575   0.00000  Uiso   1.00
O222   O     0.69036   0.99229   0.88641   0.00000  Uiso   1.00
O223   O     0.69991   0.51010   0.95469   0.00000  Uiso   1.00
O224   O     0.26494   0.62813   0.29993   0.00000  Uiso   1.00
N225   N     0.87620   0.92448   0.90785   0.00000  Uiso   1.00
N226   N     0.88299   0.58088   0.95649   0.00000  Uiso   1.00
N227   N     0.28563   0.66496   0.20251   0.00000  Uiso   1.00
N228   N     0.61649   0.89796   0.95731   0.00000  Uiso   1.00
N229   N     0.62328   0.55436   0.00596   0.00000  Uiso   1.00
N230   N     0.02592   0.63844   0.25198   0.00000  Uiso   1.00
C231   C     0.31365   0.25594   0.72654   0.00000  Uiso   1.00
C232   C     0.16067   0.22634   0.77411   0.00000  Uiso   1.00
C233   C     0.16250   0.21391   0.82959   0.00000  Uiso   1.00
C234   C     0.00924   0.18666   0.86672   0.00000  Uiso   1.00
C235   C     0.79443   0.14289   0.94328   0.00000  Uiso   1.00
C236   C     0.25127   0.30736   0.67972   0.00000  Uiso   1.00
C237   C     0.32930   0.36305   0.65584   0.00000  Uiso   1.00
C238   C     0.25232   0.40400   0.61352   0.00000  Uiso   1.00
C239   C     0.17825   0.48601   0.54351   0.00000  Uiso   1.00
C240   C     0.34026   0.21612   0.70339   0.00000  Uiso   1.00
C241   C     0.49313   0.19510   0.69938   0.00000  Uiso   1.00
C242   C     0.49108   0.15925   0.67697   0.00000  Uiso   1.00
C243   C     0.55518   0.09960   0.64371   0.00000  Uiso   1.00
C244   C     0.03823   0.22965   0.69385   0.00000  Uiso   1.00
C245   C     0.01107   0.21206   0.75635   0.00000  Uiso   1.00
C246   C     0.85777   0.18481   0.79341   0.00000  Uiso   1.00
C247   C     0.85937   0.17235   0.84893   0.00000  Uiso   1.00
C248   C     0.10168   0.29308   0.66196   0.00000  Uiso   1.00
C249   C     0.02457   0.33396   0.61967   0.00000  Uiso   1.00
C250   C     0.10245   0.38969   0.59573   0.00000  Uiso   1.00
C251   C     0.19066   0.20184   0.68563   0.00000  Uiso   1.00
C252   C     0.18839   0.16601   0.66321   0.00000  Uiso   1.00
C253   C     0.34121   0.14494   0.65918   0.00000  Uiso   1.00
H254   H     0.43012   0.26707   0.74037   0.00000  Uiso   1.00
H255   H     0.27829   0.22497   0.84331   0.00000  Uiso   1.00
H256   H     0.44508   0.37409   0.66959   0.00000  Uiso   1.00
H257   H     0.60887   0.20617   0.71313   0.00000  Uiso   1.00
H258   H     0.04397   0.17202   0.94961   0.00000  Uiso   1.00
H259   H     0.39568   0.48644   0.58329   0.00000  Uiso   1.00
H260   H     0.74107   0.13235   0.67511   0.00000  Uiso   1.00
H261   H     0.92175   0.21853   0.68002   0.00000  Uiso   1.00
H262   H     0.74202   0.17377   0.77966   0.00000  Uiso   1.00
H263   H     0.90881   0.32289   0.60593   0.00000  Uiso   1.00
H264   H     0.07260   0.15497   0.64947   0.00000  Uiso   1.00
H265   H     0.60871   0.13047   0.89794   0.00000  Uiso   1.00
H266   H     0.96043   0.44489   0.53162   0.00000  Uiso   1.00
H267   H     0.30581   0.09079   0.62344   0.00000  Uiso   1.00
O268   O     0.71726   0.12269   0.99041   0.00000  Uiso   1.00
O269   O     0.17872   0.53520   0.50981   0.00000  Uiso   1.00
O270   O     0.63185   0.07063   0.63027   0.00000  Uiso   1.00
N271   N     0.96620   0.16838   0.92378   0.00000  Uiso   1.00
N272   N     0.29502   0.46234   0.58130   0.00000  Uiso   1.00
N273   N     0.61794   0.13130   0.66713   0.00000  Uiso   1.00
N274   N     0.73199   0.14601   0.89598   0.00000  Uiso   1.00
N275   N     0.06081   0.43998   0.55350   0.00000  Uiso   1.00
N276   N     0.38373   0.10894   0.63932   0.00000  Uiso   1.00
