data_job_05829
_audit_creation_date              2018-12-19
_audit_creation_method            'Materials Studio'
_symmetry_space_group_name_H-M    'P1'
_symmetry_Int_Tables_number       1
_symmetry_cell_setting            triclinic
loop_
_symmetry_equiv_pos_as_xyz
  x,y,z
_cell_length_a                    19.7842
_cell_length_b                    19.7842
_cell_length_c                    14.0089
_cell_angle_alpha                 90.0000
_cell_angle_beta                  90.0000
_cell_angle_gamma                 90.0000
loop_
_atom_site_label
_atom_site_type_symbol
_atom_site_fract_x
_atom_site_fract_y
_atom_site_fract_z
_atom_site_U_iso_or_equiv
_atom_site_adp_type
_atom_site_occupancy
C1     C     0.86393   0.23000   0.28083   0.00000  Uiso   1.00
C2     C     0.87422   0.20052   0.38035   0.00000  Uiso   1.00
C3     C     0.87938   0.23736   0.46433   0.00000  Uiso   1.00
C4     C     0.88871   0.20099   0.54806   0.00000  Uiso   1.00
C5     C     0.90411   0.16596   0.70264   0.00000  Uiso   1.00
C6     C     0.92234   0.20365   0.22033   0.00000  Uiso   1.00
C7     C     0.96795   0.24313   0.16976   0.00000  Uiso   1.00
C8     C     0.01779   0.20939   0.11877   0.00000  Uiso   1.00
C9     C     0.10786   0.17922   0.02486   0.00000  Uiso   1.00
C10    C     0.80031   0.19667   0.24135   0.00000  Uiso   1.00
C11    C     0.74331   0.23028   0.20844   0.00000  Uiso   1.00
C12    C     0.69040   0.19066   0.17512   0.00000  Uiso   1.00
C13    C     0.59100   0.14966   0.11386   0.00000  Uiso   1.00
C14    C     0.87132   0.09989   0.28017   0.00000  Uiso   1.00
C15    C     0.87824   0.12985   0.37999   0.00000  Uiso   1.00
C16    C     0.88756   0.09341   0.46361   0.00000  Uiso   1.00
C17    C     0.89273   0.13019   0.54770   0.00000  Uiso   1.00
C18    C     0.92636   0.13298   0.21997   0.00000  Uiso   1.00
C19    C     0.97613   0.09918   0.16904   0.00000  Uiso   1.00
C20    C     0.02181   0.13859   0.11841   0.00000  Uiso   1.00
C21    C     0.80432   0.12600   0.24100   0.00000  Uiso   1.00
C22    C     0.75149   0.08633   0.20772   0.00000  Uiso   1.00
C23    C     0.69442   0.11986   0.17477   0.00000  Uiso   1.00
H24    H     0.86081   0.28502   0.28110   0.00000  Uiso   1.00
H25    H     0.87628   0.29205   0.46458   0.00000  Uiso   1.00
H26    H     0.96483   0.29782   0.17004   0.00000  Uiso   1.00
H27    H     0.74023   0.28497   0.20872   0.00000  Uiso   1.00
H28    H     0.89523   0.26868   0.66783   0.00000  Uiso   1.00
H29    H     0.08193   0.28084   0.04677   0.00000  Uiso   1.00
H30    H     0.60830   0.25374   0.12833   0.00000  Uiso   1.00
H31    H     0.87445   0.04487   0.27989   0.00000  Uiso   1.00
H32    H     0.89066   0.03872   0.46331   0.00000  Uiso   1.00
H33    H     0.97921   0.04449   0.16877   0.00000  Uiso   1.00
H34    H     0.75461   0.03164   0.20746   0.00000  Uiso   1.00
H35    H     0.90690   0.06307   0.66681   0.00000  Uiso   1.00
H36    H     0.09360   0.07522   0.04573   0.00000  Uiso   1.00
H37    H     0.61998   0.04813   0.12730   0.00000  Uiso   1.00
O38    O     0.91151   0.16616   0.78800   0.00000  Uiso   1.00
O39    O     0.15644   0.18211   0.97316   0.00000  Uiso   1.00
O40    O     0.53506   0.14657   0.08018   0.00000  Uiso   1.00
N41    N     0.89573   0.22113   0.64242   0.00000  Uiso   1.00
N42    N     0.07030   0.23250   0.06177   0.00000  Uiso   1.00
N43    N     0.62750   0.20717   0.13800   0.00000  Uiso   1.00
N44    N     0.90201   0.11049   0.64187   0.00000  Uiso   1.00
N45    N     0.07658   0.12186   0.06122   0.00000  Uiso   1.00
N46    N     0.63378   0.09653   0.13745   0.00000  Uiso   1.00
C47    C     0.13607   0.77000   0.28083   0.00000  Uiso   1.00
C48    C     0.12578   0.79948   0.38035   0.00000  Uiso   1.00
C49    C     0.12062   0.76264   0.46433   0.00000  Uiso   1.00
C50    C     0.11129   0.79901   0.54806   0.00000  Uiso   1.00
C51    C     0.09589   0.83404   0.70264   0.00000  Uiso   1.00
C52    C     0.07766   0.79635   0.22033   0.00000  Uiso   1.00
C53    C     0.03205   0.75687   0.16976   0.00000  Uiso   1.00
C54    C     0.98221   0.79061   0.11877   0.00000  Uiso   1.00
C55    C     0.89214   0.82078   0.02486   0.00000  Uiso   1.00
C56    C     0.19969   0.80333   0.24135   0.00000  Uiso   1.00
C57    C     0.25669   0.76972   0.20844   0.00000  Uiso   1.00
C58    C     0.30960   0.80934   0.17512   0.00000  Uiso   1.00
C59    C     0.40900   0.85034   0.11386   0.00000  Uiso   1.00
C60    C     0.12868   0.90011   0.28017   0.00000  Uiso   1.00
C61    C     0.12176   0.87015   0.37999   0.00000  Uiso   1.00
C62    C     0.11244   0.90659   0.46361   0.00000  Uiso   1.00
C63    C     0.10727   0.86981   0.54770   0.00000  Uiso   1.00
C64    C     0.07364   0.86702   0.21997   0.00000  Uiso   1.00
C65    C     0.02387   0.90082   0.16904   0.00000  Uiso   1.00
C66    C     0.97819   0.86141   0.11841   0.00000  Uiso   1.00
C67    C     0.19568   0.87400   0.24100   0.00000  Uiso   1.00
C68    C     0.24851   0.91367   0.20772   0.00000  Uiso   1.00
C69    C     0.30558   0.88014   0.17477   0.00000  Uiso   1.00
H70    H     0.13919   0.71498   0.28110   0.00000  Uiso   1.00
H71    H     0.12372   0.70795   0.46458   0.00000  Uiso   1.00
H72    H     0.03517   0.70218   0.17004   0.00000  Uiso   1.00
H73    H     0.25977   0.71503   0.20872   0.00000  Uiso   1.00
H74    H     0.10477   0.73132   0.66783   0.00000  Uiso   1.00
H75    H     0.91807   0.71916   0.04677   0.00000  Uiso   1.00
H76    H     0.39170   0.74626   0.12833   0.00000  Uiso   1.00
H77    H     0.12555   0.95513   0.27989   0.00000  Uiso   1.00
H78    H     0.10934   0.96128   0.46331   0.00000  Uiso   1.00
H79    H     0.02079   0.95551   0.16877   0.00000  Uiso   1.00
H80    H     0.24539   0.96836   0.20746   0.00000  Uiso   1.00
H81    H     0.09310   0.93693   0.66681   0.00000  Uiso   1.00
H82    H     0.90640   0.92478   0.04573   0.00000  Uiso   1.00
H83    H     0.38002   0.95187   0.12730   0.00000  Uiso   1.00
O84    O     0.08849   0.83384   0.78800   0.00000  Uiso   1.00
O85    O     0.84356   0.81789   0.97316   0.00000  Uiso   1.00
O86    O     0.46494   0.85343   0.08018   0.00000  Uiso   1.00
N87    N     0.10427   0.77887   0.64242   0.00000  Uiso   1.00
N88    N     0.92970   0.76750   0.06177   0.00000  Uiso   1.00
N89    N     0.37250   0.79283   0.13800   0.00000  Uiso   1.00
N90    N     0.09799   0.88951   0.64187   0.00000  Uiso   1.00
N91    N     0.92342   0.87814   0.06122   0.00000  Uiso   1.00
N92    N     0.36622   0.90347   0.13745   0.00000  Uiso   1.00
C93    C     0.27000   0.36393   0.28083   0.00000  Uiso   1.00
C94    C     0.29948   0.37422   0.38035   0.00000  Uiso   1.00
C95    C     0.26264   0.37938   0.46433   0.00000  Uiso   1.00
C96    C     0.29901   0.38871   0.54806   0.00000  Uiso   1.00
C97    C     0.33404   0.40411   0.70264   0.00000  Uiso   1.00
C98    C     0.29635   0.42234   0.22033   0.00000  Uiso   1.00
C99    C     0.25687   0.46795   0.16976   0.00000  Uiso   1.00
C100   C     0.29061   0.51779   0.11877   0.00000  Uiso   1.00
C101   C     0.32078   0.60786   0.02486   0.00000  Uiso   1.00
C102   C     0.30333   0.30031   0.24135   0.00000  Uiso   1.00
C103   C     0.26972   0.24331   0.20844   0.00000  Uiso   1.00
C104   C     0.30934   0.19040   0.17512   0.00000  Uiso   1.00
C105   C     0.35034   0.09100   0.11386   0.00000  Uiso   1.00
C106   C     0.40011   0.37132   0.28017   0.00000  Uiso   1.00
C107   C     0.37015   0.37824   0.37999   0.00000  Uiso   1.00
C108   C     0.40659   0.38756   0.46361   0.00000  Uiso   1.00
C109   C     0.36981   0.39273   0.54770   0.00000  Uiso   1.00
C110   C     0.36702   0.42636   0.21997   0.00000  Uiso   1.00
C111   C     0.40082   0.47613   0.16904   0.00000  Uiso   1.00
C112   C     0.36141   0.52181   0.11841   0.00000  Uiso   1.00
C113   C     0.37400   0.30432   0.24100   0.00000  Uiso   1.00
C114   C     0.41367   0.25149   0.20772   0.00000  Uiso   1.00
C115   C     0.38014   0.19442   0.17477   0.00000  Uiso   1.00
H116   H     0.21498   0.36081   0.28110   0.00000  Uiso   1.00
H117   H     0.20795   0.37628   0.46458   0.00000  Uiso   1.00
H118   H     0.20218   0.46483   0.17004   0.00000  Uiso   1.00
H119   H     0.21503   0.24023   0.20872   0.00000  Uiso   1.00
H120   H     0.23132   0.39523   0.66783   0.00000  Uiso   1.00
H121   H     0.21916   0.58193   0.04677   0.00000  Uiso   1.00
H122   H     0.24626   0.10830   0.12833   0.00000  Uiso   1.00
H123   H     0.45513   0.37445   0.27989   0.00000  Uiso   1.00
H124   H     0.46128   0.39066   0.46331   0.00000  Uiso   1.00
H125   H     0.45551   0.47921   0.16877   0.00000  Uiso   1.00
H126   H     0.46836   0.25461   0.20746   0.00000  Uiso   1.00
H127   H     0.43693   0.40690   0.66681   0.00000  Uiso   1.00
H128   H     0.42478   0.59360   0.04573   0.00000  Uiso   1.00
H129   H     0.45187   0.11998   0.12730   0.00000  Uiso   1.00
O130   O     0.33384   0.41151   0.78800   0.00000  Uiso   1.00
O131   O     0.31789   0.65644   0.97316   0.00000  Uiso   1.00
O132   O     0.35343   0.03506   0.08018   0.00000  Uiso   1.00
N133   N     0.27887   0.39573   0.64242   0.00000  Uiso   1.00
N134   N     0.26750   0.57030   0.06177   0.00000  Uiso   1.00
N135   N     0.29283   0.12750   0.13800   0.00000  Uiso   1.00
N136   N     0.38951   0.40201   0.64187   0.00000  Uiso   1.00
N137   N     0.37814   0.57658   0.06122   0.00000  Uiso   1.00
N138   N     0.40347   0.13378   0.13745   0.00000  Uiso   1.00
C139   C     0.73000   0.63607   0.28083   0.00000  Uiso   1.00
C140   C     0.70052   0.62578   0.38035   0.00000  Uiso   1.00
C141   C     0.73736   0.62062   0.46433   0.00000  Uiso   1.00
C142   C     0.70099   0.61129   0.54806   0.00000  Uiso   1.00
C143   C     0.66596   0.59589   0.70264   0.00000  Uiso   1.00
C144   C     0.70365   0.57766   0.22033   0.00000  Uiso   1.00
C145   C     0.74313   0.53205   0.16976   0.00000  Uiso   1.00
C146   C     0.70939   0.48221   0.11877   0.00000  Uiso   1.00
C147   C     0.67922   0.39214   0.02486   0.00000  Uiso   1.00
C148   C     0.69667   0.69969   0.24135   0.00000  Uiso   1.00
C149   C     0.73028   0.75669   0.20844   0.00000  Uiso   1.00
C150   C     0.69066   0.80960   0.17512   0.00000  Uiso   1.00
C151   C     0.64966   0.90900   0.11386   0.00000  Uiso   1.00
C152   C     0.59989   0.62868   0.28017   0.00000  Uiso   1.00
C153   C     0.62985   0.62176   0.37999   0.00000  Uiso   1.00
C154   C     0.59341   0.61244   0.46361   0.00000  Uiso   1.00
C155   C     0.63019   0.60727   0.54770   0.00000  Uiso   1.00
C156   C     0.63298   0.57364   0.21997   0.00000  Uiso   1.00
C157   C     0.59918   0.52387   0.16904   0.00000  Uiso   1.00
C158   C     0.63859   0.47819   0.11841   0.00000  Uiso   1.00
C159   C     0.62600   0.69568   0.24100   0.00000  Uiso   1.00
C160   C     0.58633   0.74851   0.20772   0.00000  Uiso   1.00
C161   C     0.61986   0.80558   0.17477   0.00000  Uiso   1.00
H162   H     0.78502   0.63919   0.28110   0.00000  Uiso   1.00
H163   H     0.79205   0.62372   0.46458   0.00000  Uiso   1.00
H164   H     0.79782   0.53517   0.17004   0.00000  Uiso   1.00
H165   H     0.78497   0.75977   0.20872   0.00000  Uiso   1.00
H166   H     0.76868   0.60477   0.66783   0.00000  Uiso   1.00
H167   H     0.78084   0.41807   0.04677   0.00000  Uiso   1.00
H168   H     0.75374   0.89170   0.12833   0.00000  Uiso   1.00
H169   H     0.54487   0.62555   0.27989   0.00000  Uiso   1.00
H170   H     0.53872   0.60934   0.46331   0.00000  Uiso   1.00
H171   H     0.54449   0.52079   0.16877   0.00000  Uiso   1.00
H172   H     0.53164   0.74539   0.20746   0.00000  Uiso   1.00
H173   H     0.56307   0.59310   0.66681   0.00000  Uiso   1.00
H174   H     0.57522   0.40640   0.04573   0.00000  Uiso   1.00
H175   H     0.54813   0.88002   0.12730   0.00000  Uiso   1.00
O176   O     0.66616   0.58849   0.78800   0.00000  Uiso   1.00
O177   O     0.68211   0.34356   0.97316   0.00000  Uiso   1.00
O178   O     0.64657   0.96494   0.08018   0.00000  Uiso   1.00
N179   N     0.72113   0.60427   0.64242   0.00000  Uiso   1.00
N180   N     0.73250   0.42970   0.06177   0.00000  Uiso   1.00
N181   N     0.70717   0.87250   0.13800   0.00000  Uiso   1.00
N182   N     0.61049   0.59799   0.64187   0.00000  Uiso   1.00
N183   N     0.62186   0.42342   0.06122   0.00000  Uiso   1.00
N184   N     0.59653   0.86622   0.13745   0.00000  Uiso   1.00
C185   C     0.63607   0.27000   0.71917   0.00000  Uiso   1.00
C186   C     0.62578   0.29948   0.61965   0.00000  Uiso   1.00
C187   C     0.62062   0.26264   0.53567   0.00000  Uiso   1.00
C188   C     0.61129   0.29901   0.45194   0.00000  Uiso   1.00
C189   C     0.59589   0.33404   0.29736   0.00000  Uiso   1.00
C190   C     0.57766   0.29635   0.77967   0.00000  Uiso   1.00
C191   C     0.53205   0.25687   0.83024   0.00000  Uiso   1.00
C192   C     0.48221   0.29061   0.88123   0.00000  Uiso   1.00
C193   C     0.39214   0.32078   0.97514   0.00000  Uiso   1.00
C194   C     0.69969   0.30333   0.75865   0.00000  Uiso   1.00
C195   C     0.75669   0.26972   0.79156   0.00000  Uiso   1.00
C196   C     0.80960   0.30934   0.82488   0.00000  Uiso   1.00
C197   C     0.90900   0.35034   0.88614   0.00000  Uiso   1.00
C198   C     0.62868   0.40011   0.71983   0.00000  Uiso   1.00
C199   C     0.62176   0.37015   0.62001   0.00000  Uiso   1.00
C200   C     0.61244   0.40659   0.53639   0.00000  Uiso   1.00
C201   C     0.60727   0.36981   0.45230   0.00000  Uiso   1.00
C202   C     0.57364   0.36702   0.78003   0.00000  Uiso   1.00
C203   C     0.52387   0.40082   0.83096   0.00000  Uiso   1.00
C204   C     0.47819   0.36141   0.88159   0.00000  Uiso   1.00
C205   C     0.69568   0.37400   0.75900   0.00000  Uiso   1.00
C206   C     0.74851   0.41367   0.79228   0.00000  Uiso   1.00
C207   C     0.80558   0.38014   0.82523   0.00000  Uiso   1.00
H208   H     0.63919   0.21498   0.71890   0.00000  Uiso   1.00
H209   H     0.62372   0.20795   0.53542   0.00000  Uiso   1.00
H210   H     0.53517   0.20218   0.82996   0.00000  Uiso   1.00
H211   H     0.75977   0.21503   0.79128   0.00000  Uiso   1.00
H212   H     0.60477   0.23132   0.33217   0.00000  Uiso   1.00
H213   H     0.41807   0.21916   0.95323   0.00000  Uiso   1.00
H214   H     0.89170   0.24626   0.87167   0.00000  Uiso   1.00
H215   H     0.62555   0.45513   0.72011   0.00000  Uiso   1.00
H216   H     0.60934   0.46128   0.53669   0.00000  Uiso   1.00
H217   H     0.52079   0.45551   0.83123   0.00000  Uiso   1.00
H218   H     0.74539   0.46836   0.79254   0.00000  Uiso   1.00
H219   H     0.59310   0.43693   0.33319   0.00000  Uiso   1.00
H220   H     0.40640   0.42478   0.95427   0.00000  Uiso   1.00
H221   H     0.88002   0.45187   0.87270   0.00000  Uiso   1.00
O222   O     0.58849   0.33384   0.21200   0.00000  Uiso   1.00
O223   O     0.34356   0.31789   0.02684   0.00000  Uiso   1.00
O224   O     0.96494   0.35343   0.91982   0.00000  Uiso   1.00
N225   N     0.60427   0.27887   0.35758   0.00000  Uiso   1.00
N226   N     0.42970   0.26750   0.93823   0.00000  Uiso   1.00
N227   N     0.87250   0.29283   0.86200   0.00000  Uiso   1.00
N228   N     0.59799   0.38951   0.35813   0.00000  Uiso   1.00
N229   N     0.42342   0.37814   0.93878   0.00000  Uiso   1.00
N230   N     0.86622   0.40347   0.86255   0.00000  Uiso   1.00
C231   C     0.36393   0.73000   0.71917   0.00000  Uiso   1.00
C232   C     0.37422   0.70052   0.61965   0.00000  Uiso   1.00
C233   C     0.37938   0.73736   0.53567   0.00000  Uiso   1.00
C234   C     0.38871   0.70099   0.45194   0.00000  Uiso   1.00
C235   C     0.40411   0.66596   0.29736   0.00000  Uiso   1.00
C236   C     0.42234   0.70365   0.77967   0.00000  Uiso   1.00
C237   C     0.46795   0.74313   0.83024   0.00000  Uiso   1.00
C238   C     0.51779   0.70939   0.88123   0.00000  Uiso   1.00
C239   C     0.60786   0.67922   0.97514   0.00000  Uiso   1.00
C240   C     0.30031   0.69667   0.75865   0.00000  Uiso   1.00
C241   C     0.24331   0.73028   0.79156   0.00000  Uiso   1.00
C242   C     0.19040   0.69066   0.82488   0.00000  Uiso   1.00
C243   C     0.09100   0.64966   0.88614   0.00000  Uiso   1.00
C244   C     0.37132   0.59989   0.71983   0.00000  Uiso   1.00
C245   C     0.37824   0.62985   0.62001   0.00000  Uiso   1.00
C246   C     0.38756   0.59341   0.53639   0.00000  Uiso   1.00
C247   C     0.39273   0.63019   0.45230   0.00000  Uiso   1.00
C248   C     0.42636   0.63298   0.78003   0.00000  Uiso   1.00
C249   C     0.47613   0.59918   0.83096   0.00000  Uiso   1.00
C250   C     0.52181   0.63859   0.88159   0.00000  Uiso   1.00
C251   C     0.30432   0.62600   0.75900   0.00000  Uiso   1.00
C252   C     0.25149   0.58633   0.79228   0.00000  Uiso   1.00
C253   C     0.19442   0.61986   0.82523   0.00000  Uiso   1.00
H254   H     0.36081   0.78502   0.71890   0.00000  Uiso   1.00
H255   H     0.37628   0.79205   0.53542   0.00000  Uiso   1.00
H256   H     0.46483   0.79782   0.82996   0.00000  Uiso   1.00
H257   H     0.24023   0.78497   0.79128   0.00000  Uiso   1.00
H258   H     0.39523   0.76868   0.33217   0.00000  Uiso   1.00
H259   H     0.58193   0.78084   0.95323   0.00000  Uiso   1.00
H260   H     0.10830   0.75374   0.87167   0.00000  Uiso   1.00
H261   H     0.37445   0.54487   0.72011   0.00000  Uiso   1.00
H262   H     0.39066   0.53872   0.53669   0.00000  Uiso   1.00
H263   H     0.47921   0.54449   0.83123   0.00000  Uiso   1.00
H264   H     0.25461   0.53164   0.79254   0.00000  Uiso   1.00
H265   H     0.40690   0.56307   0.33319   0.00000  Uiso   1.00
H266   H     0.59360   0.57522   0.95427   0.00000  Uiso   1.00
H267   H     0.11998   0.54813   0.87270   0.00000  Uiso   1.00
O268   O     0.41151   0.66616   0.21200   0.00000  Uiso   1.00
O269   O     0.65644   0.68211   0.02684   0.00000  Uiso   1.00
O270   O     0.03506   0.64657   0.91982   0.00000  Uiso   1.00
N271   N     0.39573   0.72113   0.35758   0.00000  Uiso   1.00
N272   N     0.57030   0.73250   0.93823   0.00000  Uiso   1.00
N273   N     0.12750   0.70717   0.86200   0.00000  Uiso   1.00
N274   N     0.40201   0.61049   0.35813   0.00000  Uiso   1.00
N275   N     0.57658   0.62186   0.93878   0.00000  Uiso   1.00
N276   N     0.13378   0.59653   0.86255   0.00000  Uiso   1.00
C277   C     0.23000   0.13607   0.71917   0.00000  Uiso   1.00
C278   C     0.20052   0.12578   0.61965   0.00000  Uiso   1.00
C279   C     0.23736   0.12062   0.53567   0.00000  Uiso   1.00
C280   C     0.20099   0.11129   0.45194   0.00000  Uiso   1.00
C281   C     0.16596   0.09589   0.29736   0.00000  Uiso   1.00
C282   C     0.20365   0.07766   0.77967   0.00000  Uiso   1.00
C283   C     0.24313   0.03205   0.83024   0.00000  Uiso   1.00
C284   C     0.20939   0.98221   0.88123   0.00000  Uiso   1.00
C285   C     0.17922   0.89214   0.97514   0.00000  Uiso   1.00
C286   C     0.19667   0.19969   0.75865   0.00000  Uiso   1.00
C287   C     0.23028   0.25669   0.79156   0.00000  Uiso   1.00
C288   C     0.19066   0.30960   0.82488   0.00000  Uiso   1.00
C289   C     0.14966   0.40900   0.88614   0.00000  Uiso   1.00
C290   C     0.09989   0.12868   0.71983   0.00000  Uiso   1.00
C291   C     0.12985   0.12176   0.62001   0.00000  Uiso   1.00
C292   C     0.09341   0.11244   0.53639   0.00000  Uiso   1.00
C293   C     0.13019   0.10727   0.45230   0.00000  Uiso   1.00
C294   C     0.13298   0.07364   0.78003   0.00000  Uiso   1.00
C295   C     0.09918   0.02387   0.83096   0.00000  Uiso   1.00
C296   C     0.13859   0.97819   0.88159   0.00000  Uiso   1.00
C297   C     0.12600   0.19568   0.75900   0.00000  Uiso   1.00
C298   C     0.08633   0.24851   0.79228   0.00000  Uiso   1.00
C299   C     0.11986   0.30558   0.82523   0.00000  Uiso   1.00
H300   H     0.28502   0.13919   0.71890   0.00000  Uiso   1.00
H301   H     0.29205   0.12372   0.53542   0.00000  Uiso   1.00
H302   H     0.29782   0.03517   0.82996   0.00000  Uiso   1.00
H303   H     0.28497   0.25977   0.79128   0.00000  Uiso   1.00
H304   H     0.26868   0.10477   0.33217   0.00000  Uiso   1.00
H305   H     0.28084   0.91807   0.95323   0.00000  Uiso   1.00
H306   H     0.25374   0.39170   0.87167   0.00000  Uiso   1.00
H307   H     0.04487   0.12555   0.72011   0.00000  Uiso   1.00
H308   H     0.03872   0.10934   0.53669   0.00000  Uiso   1.00
H309   H     0.04449   0.02079   0.83123   0.00000  Uiso   1.00
H310   H     0.03164   0.24539   0.79254   0.00000  Uiso   1.00
H311   H     0.06307   0.09310   0.33319   0.00000  Uiso   1.00
H312   H     0.07522   0.90640   0.95427   0.00000  Uiso   1.00
H313   H     0.04813   0.38002   0.87270   0.00000  Uiso   1.00
O314   O     0.16616   0.08849   0.21200   0.00000  Uiso   1.00
O315   O     0.18211   0.84356   0.02684   0.00000  Uiso   1.00
O316   O     0.14657   0.46494   0.91982   0.00000  Uiso   1.00
N317   N     0.22113   0.10427   0.35758   0.00000  Uiso   1.00
N318   N     0.23250   0.92970   0.93823   0.00000  Uiso   1.00
N319   N     0.20717   0.37250   0.86200   0.00000  Uiso   1.00
N320   N     0.11049   0.09799   0.35813   0.00000  Uiso   1.00
N321   N     0.12186   0.92342   0.93878   0.00000  Uiso   1.00
N322   N     0.09653   0.36622   0.86255   0.00000  Uiso   1.00
C323   C     0.77000   0.86393   0.71917   0.00000  Uiso   1.00
C324   C     0.79948   0.87422   0.61965   0.00000  Uiso   1.00
C325   C     0.76264   0.87938   0.53567   0.00000  Uiso   1.00
C326   C     0.79901   0.88871   0.45194   0.00000  Uiso   1.00
C327   C     0.83404   0.90411   0.29736   0.00000  Uiso   1.00
C328   C     0.79635   0.92234   0.77967   0.00000  Uiso   1.00
C329   C     0.75687   0.96795   0.83024   0.00000  Uiso   1.00
C330   C     0.79061   0.01779   0.88123   0.00000  Uiso   1.00
C331   C     0.82078   0.10786   0.97514   0.00000  Uiso   1.00
C332   C     0.80333   0.80031   0.75865   0.00000  Uiso   1.00
C333   C     0.76972   0.74331   0.79156   0.00000  Uiso   1.00
C334   C     0.80934   0.69040   0.82488   0.00000  Uiso   1.00
C335   C     0.85034   0.59100   0.88614   0.00000  Uiso   1.00
C336   C     0.90011   0.87132   0.71983   0.00000  Uiso   1.00
C337   C     0.87015   0.87824   0.62001   0.00000  Uiso   1.00
C338   C     0.90659   0.88756   0.53639   0.00000  Uiso   1.00
C339   C     0.86981   0.89273   0.45230   0.00000  Uiso   1.00
C340   C     0.86702   0.92636   0.78003   0.00000  Uiso   1.00
C341   C     0.90082   0.97613   0.83096   0.00000  Uiso   1.00
C342   C     0.86141   0.02181   0.88159   0.00000  Uiso   1.00
C343   C     0.87400   0.80432   0.75900   0.00000  Uiso   1.00
C344   C     0.91367   0.75149   0.79228   0.00000  Uiso   1.00
C345   C     0.88014   0.69442   0.82523   0.00000  Uiso   1.00
H346   H     0.71498   0.86081   0.71890   0.00000  Uiso   1.00
H347   H     0.70795   0.87628   0.53542   0.00000  Uiso   1.00
H348   H     0.70218   0.96483   0.82996   0.00000  Uiso   1.00
H349   H     0.71503   0.74023   0.79128   0.00000  Uiso   1.00
H350   H     0.73132   0.89523   0.33217   0.00000  Uiso   1.00
H351   H     0.71916   0.08193   0.95323   0.00000  Uiso   1.00
H352   H     0.74626   0.60830   0.87167   0.00000  Uiso   1.00
H353   H     0.95513   0.87445   0.72011   0.00000  Uiso   1.00
H354   H     0.96128   0.89066   0.53669   0.00000  Uiso   1.00
H355   H     0.95551   0.97921   0.83123   0.00000  Uiso   1.00
H356   H     0.96836   0.75461   0.79254   0.00000  Uiso   1.00
H357   H     0.93693   0.90690   0.33319   0.00000  Uiso   1.00
H358   H     0.92478   0.09360   0.95427   0.00000  Uiso   1.00
H359   H     0.95187   0.61998   0.87270   0.00000  Uiso   1.00
O360   O     0.83384   0.91151   0.21200   0.00000  Uiso   1.00
O361   O     0.81789   0.15644   0.02684   0.00000  Uiso   1.00
O362   O     0.85343   0.53506   0.91982   0.00000  Uiso   1.00
N363   N     0.77887   0.89573   0.35758   0.00000  Uiso   1.00
N364   N     0.76750   0.07030   0.93823   0.00000  Uiso   1.00
N365   N     0.79283   0.62750   0.86200   0.00000  Uiso   1.00
N366   N     0.88951   0.90201   0.35813   0.00000  Uiso   1.00
N367   N     0.87814   0.07658   0.93878   0.00000  Uiso   1.00
N368   N     0.90347   0.63378   0.86255   0.00000  Uiso   1.00
