data_job_01013
_audit_creation_date              2018-12-19
_audit_creation_method            'Materials Studio'
_symmetry_space_group_name_H-M    'P1'
_symmetry_Int_Tables_number       1
_symmetry_cell_setting            triclinic
loop_
_symmetry_equiv_pos_as_xyz
  x,y,z
_cell_length_a                    10.7268
_cell_length_b                    10.7268
_cell_length_c                    75.7603
_cell_angle_alpha                 90.0000
_cell_angle_beta                  90.0000
_cell_angle_gamma                 120.0000
loop_
_atom_site_label
_atom_site_type_symbol
_atom_site_fract_x
_atom_site_fract_y
_atom_site_fract_z
_atom_site_U_iso_or_equiv
_atom_site_adp_type
_atom_site_occupancy
C1     C     0.51282   0.35379   0.03916   0.00000  Uiso   1.00
C2     C     0.39934   0.29592   0.02462   0.00000  Uiso   1.00
C3     C     0.41588   0.25244   0.00795   0.00000  Uiso   1.00
C4     C     0.29936   0.20278   0.99654   0.00000  Uiso   1.00
C5     C     0.14270   0.11388   0.97318   0.00000  Uiso   1.00
C6     C     0.53411   0.50093   0.04414   0.00000  Uiso   1.00
C7     C     0.66396   0.62981   0.04390   0.00000  Uiso   1.00
C8     C     0.66088   0.75272   0.04893   0.00000  Uiso   1.00
C9     C     0.71347   0.98209   0.05590   0.00000  Uiso   1.00
C10    C     0.44308   0.25707   0.05514   0.00000  Uiso   1.00
C11    C     0.49640   0.18095   0.06414   0.00000  Uiso   1.00
C12    C     0.41670   0.09857   0.07843   0.00000  Uiso   1.00
C13    C     0.32795   0.94932   0.10247   0.00000  Uiso   1.00
C14    C     0.27649   0.34289   0.04853   0.00000  Uiso   1.00
C15    C     0.27098   0.29000   0.02971   0.00000  Uiso   1.00
C16    C     0.15440   0.24038   0.01832   0.00000  Uiso   1.00
C17    C     0.17076   0.19683   0.00164   0.00000  Uiso   1.00
C18    C     0.40575   0.49501   0.04923   0.00000  Uiso   1.00
C19    C     0.40248   0.61775   0.05426   0.00000  Uiso   1.00
C20    C     0.53229   0.74679   0.05403   0.00000  Uiso   1.00
C21    C     0.31471   0.25115   0.06023   0.00000  Uiso   1.00
C22    C     0.23492   0.16888   0.07450   0.00000  Uiso   1.00
C23    C     0.28811   0.09264   0.08352   0.00000  Uiso   1.00
H24    H     0.61277   0.35841   0.03520   0.00000  Uiso   1.00
H25    H     0.51524   0.25706   0.00402   0.00000  Uiso   1.00
H26    H     0.76328   0.63436   0.03996   0.00000  Uiso   1.00
H27    H     0.59574   0.18556   0.06020   0.00000  Uiso   1.00
H28    H     0.35052   0.14212   0.97169   0.00000  Uiso   1.00
H29    H     0.87353   0.93768   0.04749   0.00000  Uiso   1.00
H30    H     0.52026   0.99131   0.09016   0.00000  Uiso   1.00
H31    H     0.17655   0.33828   0.05249   0.00000  Uiso   1.00
H32    H     0.05508   0.23581   0.02226   0.00000  Uiso   1.00
H33    H     0.30312   0.61312   0.05820   0.00000  Uiso   1.00
H34    H     0.13559   0.16432   0.07844   0.00000  Uiso   1.00
H35    H     0.97704   0.12488   0.98649   0.00000  Uiso   1.00
H36    H     0.50006   0.92045   0.06229   0.00000  Uiso   1.00
H37    H     0.14678   0.97407   0.10496   0.00000  Uiso   1.00
O38    O     0.09176   0.06651   0.95889   0.00000  Uiso   1.00
O39    O     0.77794   0.11024   0.05834   0.00000  Uiso   1.00
O40    O     0.31444   0.86862   0.11432   0.00000  Uiso   1.00
N41    N     0.27928   0.15210   0.97932   0.00000  Uiso   1.00
N42    N     0.76826   0.89591   0.05019   0.00000  Uiso   1.00
N43    N     0.43800   0.01116   0.09008   0.00000  Uiso   1.00
N44    N     0.07831   0.14282   0.98729   0.00000  Uiso   1.00
N45    N     0.56730   0.88663   0.05815   0.00000  Uiso   1.00
N46    N     0.23703   0.00188   0.09805   0.00000  Uiso   1.00
C47    C     0.64621   0.15903   0.70583   0.00000  Uiso   1.00
C48    C     0.70408   0.10342   0.69128   0.00000  Uiso   1.00
C49    C     0.74756   0.16343   0.67462   0.00000  Uiso   1.00
C50    C     0.79722   0.09658   0.66320   0.00000  Uiso   1.00
C51    C     0.88612   0.02882   0.63985   0.00000  Uiso   1.00
C52    C     0.49907   0.03318   0.71081   0.00000  Uiso   1.00
C53    C     0.37019   0.03414   0.71057   0.00000  Uiso   1.00
C54    C     0.24728   0.90816   0.71559   0.00000  Uiso   1.00
C55    C     0.01791   0.73138   0.72257   0.00000  Uiso   1.00
C56    C     0.74293   0.18600   0.72180   0.00000  Uiso   1.00
C57    C     0.81905   0.31545   0.73081   0.00000  Uiso   1.00
C58    C     0.90143   0.31813   0.74509   0.00000  Uiso   1.00
C59    C     0.05068   0.37863   0.76913   0.00000  Uiso   1.00
C60    C     0.65711   0.93360   0.71520   0.00000  Uiso   1.00
C61    C     0.71000   0.98098   0.69637   0.00000  Uiso   1.00
C62    C     0.75962   0.91402   0.68498   0.00000  Uiso   1.00
C63    C     0.80317   0.97392   0.66830   0.00000  Uiso   1.00
C64    C     0.50499   0.91074   0.71590   0.00000  Uiso   1.00
C65    C     0.38225   0.78473   0.72093   0.00000  Uiso   1.00
C66    C     0.25321   0.78550   0.72069   0.00000  Uiso   1.00
C67    C     0.74885   0.06356   0.72689   0.00000  Uiso   1.00
C68    C     0.83112   0.06604   0.74117   0.00000  Uiso   1.00
C69    C     0.90736   0.19546   0.75019   0.00000  Uiso   1.00
H70    H     0.64159   0.25435   0.70186   0.00000  Uiso   1.00
H71    H     0.74294   0.25818   0.67068   0.00000  Uiso   1.00
H72    H     0.36564   0.12892   0.70663   0.00000  Uiso   1.00
H73    H     0.81444   0.41018   0.72686   0.00000  Uiso   1.00
H74    H     0.85788   0.20840   0.63835   0.00000  Uiso   1.00
H75    H     0.06232   0.93585   0.71415   0.00000  Uiso   1.00
H76    H     0.00869   0.52895   0.75682   0.00000  Uiso   1.00
H77    H     0.66172   0.83827   0.71916   0.00000  Uiso   1.00
H78    H     0.76419   0.81927   0.68892   0.00000  Uiso   1.00
H79    H     0.38688   0.69000   0.72487   0.00000  Uiso   1.00
H80    H     0.83568   0.97127   0.74510   0.00000  Uiso   1.00
H81    H     0.87512   0.85216   0.65316   0.00000  Uiso   1.00
H82    H     0.07955   0.57961   0.72896   0.00000  Uiso   1.00
H83    H     0.02593   0.17271   0.77163   0.00000  Uiso   1.00
O84    O     0.93349   0.02525   0.62555   0.00000  Uiso   1.00
O85    O     0.88976   0.66770   0.72500   0.00000  Uiso   1.00
O86    O     0.13138   0.44583   0.78098   0.00000  Uiso   1.00
N87    N     0.84790   0.12718   0.64599   0.00000  Uiso   1.00
N88    N     0.10409   0.87236   0.71685   0.00000  Uiso   1.00
N89    N     0.98884   0.42685   0.75675   0.00000  Uiso   1.00
N90    N     0.85718   0.93549   0.65396   0.00000  Uiso   1.00
N91    N     0.11337   0.68067   0.72482   0.00000  Uiso   1.00
N92    N     0.99812   0.23516   0.76472   0.00000  Uiso   1.00
C93    C     0.84097   0.48718   0.37249   0.00000  Uiso   1.00
C94    C     0.89658   0.60066   0.35795   0.00000  Uiso   1.00
C95    C     0.83657   0.58412   0.34128   0.00000  Uiso   1.00
C96    C     0.90342   0.70064   0.32987   0.00000  Uiso   1.00
C97    C     0.97118   0.85730   0.30651   0.00000  Uiso   1.00
C98    C     0.96682   0.46589   0.37748   0.00000  Uiso   1.00
C99    C     0.96586   0.33604   0.37723   0.00000  Uiso   1.00
C100   C     0.09184   0.33912   0.38226   0.00000  Uiso   1.00
C101   C     0.26862   0.28653   0.38923   0.00000  Uiso   1.00
C102   C     0.81400   0.55692   0.38847   0.00000  Uiso   1.00
C103   C     0.68455   0.50360   0.39747   0.00000  Uiso   1.00
C104   C     0.68187   0.58330   0.41176   0.00000  Uiso   1.00
C105   C     0.62137   0.67205   0.43580   0.00000  Uiso   1.00
C106   C     0.06640   0.72351   0.38186   0.00000  Uiso   1.00
C107   C     0.01902   0.72902   0.36304   0.00000  Uiso   1.00
C108   C     0.08598   0.84560   0.35165   0.00000  Uiso   1.00
C109   C     0.02608   0.82924   0.33497   0.00000  Uiso   1.00
C110   C     0.08926   0.59425   0.38257   0.00000  Uiso   1.00
C111   C     0.21527   0.59752   0.38760   0.00000  Uiso   1.00
C112   C     0.21450   0.46771   0.38736   0.00000  Uiso   1.00
C113   C     0.93644   0.68529   0.39356   0.00000  Uiso   1.00
C114   C     0.93396   0.76508   0.40784   0.00000  Uiso   1.00
C115   C     0.80454   0.71189   0.41686   0.00000  Uiso   1.00
H116   H     0.74565   0.38723   0.36853   0.00000  Uiso   1.00
H117   H     0.74182   0.48476   0.33735   0.00000  Uiso   1.00
H118   H     0.87108   0.23672   0.37329   0.00000  Uiso   1.00
H119   H     0.58982   0.40426   0.39353   0.00000  Uiso   1.00
H120   H     0.79160   0.64948   0.30502   0.00000  Uiso   1.00
H121   H     0.06415   0.12647   0.38082   0.00000  Uiso   1.00
H122   H     0.47105   0.47974   0.42349   0.00000  Uiso   1.00
H123   H     0.16173   0.82345   0.38582   0.00000  Uiso   1.00
H124   H     0.18073   0.94492   0.35559   0.00000  Uiso   1.00
H125   H     0.31000   0.69688   0.39154   0.00000  Uiso   1.00
H126   H     0.02873   0.86441   0.41177   0.00000  Uiso   1.00
H127   H     0.14784   0.02296   0.31983   0.00000  Uiso   1.00
H128   H     0.42039   0.49994   0.39563   0.00000  Uiso   1.00
H129   H     0.82729   0.85322   0.43830   0.00000  Uiso   1.00
O130   O     0.97475   0.90824   0.29222   0.00000  Uiso   1.00
O131   O     0.33230   0.22206   0.39167   0.00000  Uiso   1.00
O132   O     0.55417   0.68556   0.44765   0.00000  Uiso   1.00
N133   N     0.87282   0.72072   0.31266   0.00000  Uiso   1.00
N134   N     0.12764   0.23174   0.38352   0.00000  Uiso   1.00
N135   N     0.57315   0.56200   0.42342   0.00000  Uiso   1.00
N136   N     0.06451   0.92169   0.32062   0.00000  Uiso   1.00
N137   N     0.31933   0.43270   0.39149   0.00000  Uiso   1.00
N138   N     0.76484   0.76297   0.43138   0.00000  Uiso   1.00
C139   C     0.48718   0.64621   0.53916   0.00000  Uiso   1.00
C140   C     0.60066   0.70408   0.52462   0.00000  Uiso   1.00
C141   C     0.58412   0.74756   0.50795   0.00000  Uiso   1.00
C142   C     0.70064   0.79722   0.49654   0.00000  Uiso   1.00
C143   C     0.85730   0.88612   0.47318   0.00000  Uiso   1.00
C144   C     0.46589   0.49907   0.54414   0.00000  Uiso   1.00
C145   C     0.33604   0.37019   0.54390   0.00000  Uiso   1.00
C146   C     0.33912   0.24728   0.54893   0.00000  Uiso   1.00
C147   C     0.28653   0.01791   0.55590   0.00000  Uiso   1.00
C148   C     0.55692   0.74293   0.55514   0.00000  Uiso   1.00
C149   C     0.50360   0.81905   0.56414   0.00000  Uiso   1.00
C150   C     0.58330   0.90143   0.57843   0.00000  Uiso   1.00
C151   C     0.67205   0.05068   0.60247   0.00000  Uiso   1.00
C152   C     0.72351   0.65711   0.54853   0.00000  Uiso   1.00
C153   C     0.72902   0.71000   0.52971   0.00000  Uiso   1.00
C154   C     0.84560   0.75962   0.51832   0.00000  Uiso   1.00
C155   C     0.82924   0.80317   0.50164   0.00000  Uiso   1.00
C156   C     0.59425   0.50499   0.54923   0.00000  Uiso   1.00
C157   C     0.59752   0.38225   0.55426   0.00000  Uiso   1.00
C158   C     0.46771   0.25321   0.55403   0.00000  Uiso   1.00
C159   C     0.68529   0.74885   0.56023   0.00000  Uiso   1.00
C160   C     0.76508   0.83112   0.57450   0.00000  Uiso   1.00
C161   C     0.71189   0.90736   0.58352   0.00000  Uiso   1.00
H162   H     0.38723   0.64159   0.53520   0.00000  Uiso   1.00
H163   H     0.48476   0.74294   0.50402   0.00000  Uiso   1.00
H164   H     0.23672   0.36564   0.53996   0.00000  Uiso   1.00
H165   H     0.40426   0.81444   0.56020   0.00000  Uiso   1.00
H166   H     0.64948   0.85788   0.47169   0.00000  Uiso   1.00
H167   H     0.12647   0.06232   0.54749   0.00000  Uiso   1.00
H168   H     0.47974   0.00869   0.59016   0.00000  Uiso   1.00
H169   H     0.82345   0.66172   0.55249   0.00000  Uiso   1.00
H170   H     0.94492   0.76419   0.52226   0.00000  Uiso   1.00
H171   H     0.69688   0.38688   0.55820   0.00000  Uiso   1.00
H172   H     0.86441   0.83568   0.57844   0.00000  Uiso   1.00
H173   H     0.02296   0.87512   0.48649   0.00000  Uiso   1.00
H174   H     0.49994   0.07955   0.56229   0.00000  Uiso   1.00
H175   H     0.85322   0.02593   0.60496   0.00000  Uiso   1.00
O176   O     0.90824   0.93349   0.45889   0.00000  Uiso   1.00
O177   O     0.22206   0.88976   0.55834   0.00000  Uiso   1.00
O178   O     0.68556   0.13138   0.61432   0.00000  Uiso   1.00
N179   N     0.72072   0.84790   0.47932   0.00000  Uiso   1.00
N180   N     0.23174   0.10409   0.55019   0.00000  Uiso   1.00
N181   N     0.56200   0.98884   0.59008   0.00000  Uiso   1.00
N182   N     0.92169   0.85718   0.48729   0.00000  Uiso   1.00
N183   N     0.43270   0.11337   0.55815   0.00000  Uiso   1.00
N184   N     0.76297   0.99812   0.59805   0.00000  Uiso   1.00
C185   C     0.35379   0.84097   0.20583   0.00000  Uiso   1.00
C186   C     0.29592   0.89658   0.19128   0.00000  Uiso   1.00
C187   C     0.25244   0.83657   0.17462   0.00000  Uiso   1.00
C188   C     0.20278   0.90342   0.16320   0.00000  Uiso   1.00
C189   C     0.11388   0.97118   0.13985   0.00000  Uiso   1.00
C190   C     0.50093   0.96682   0.21081   0.00000  Uiso   1.00
C191   C     0.62981   0.96586   0.21057   0.00000  Uiso   1.00
C192   C     0.75272   0.09184   0.21559   0.00000  Uiso   1.00
C193   C     0.98209   0.26862   0.22257   0.00000  Uiso   1.00
C194   C     0.25707   0.81400   0.22180   0.00000  Uiso   1.00
C195   C     0.18095   0.68455   0.23081   0.00000  Uiso   1.00
C196   C     0.09857   0.68187   0.24509   0.00000  Uiso   1.00
C197   C     0.94932   0.62137   0.26913   0.00000  Uiso   1.00
C198   C     0.34289   0.06640   0.21520   0.00000  Uiso   1.00
C199   C     0.29000   0.01902   0.19637   0.00000  Uiso   1.00
C200   C     0.24038   0.08598   0.18498   0.00000  Uiso   1.00
C201   C     0.19683   0.02608   0.16830   0.00000  Uiso   1.00
C202   C     0.49501   0.08926   0.21590   0.00000  Uiso   1.00
C203   C     0.61775   0.21527   0.22093   0.00000  Uiso   1.00
C204   C     0.74679   0.21450   0.22069   0.00000  Uiso   1.00
C205   C     0.25115   0.93644   0.22689   0.00000  Uiso   1.00
C206   C     0.16888   0.93396   0.24117   0.00000  Uiso   1.00
C207   C     0.09264   0.80454   0.25019   0.00000  Uiso   1.00
H208   H     0.35841   0.74565   0.20186   0.00000  Uiso   1.00
H209   H     0.25706   0.74182   0.17068   0.00000  Uiso   1.00
H210   H     0.63436   0.87108   0.20663   0.00000  Uiso   1.00
H211   H     0.18556   0.58982   0.22686   0.00000  Uiso   1.00
H212   H     0.14212   0.79160   0.13835   0.00000  Uiso   1.00
H213   H     0.93768   0.06415   0.21415   0.00000  Uiso   1.00
H214   H     0.99131   0.47105   0.25682   0.00000  Uiso   1.00
H215   H     0.33828   0.16173   0.21916   0.00000  Uiso   1.00
H216   H     0.23581   0.18073   0.18892   0.00000  Uiso   1.00
H217   H     0.61312   0.31000   0.22487   0.00000  Uiso   1.00
H218   H     0.16432   0.02873   0.24510   0.00000  Uiso   1.00
H219   H     0.12488   0.14784   0.15316   0.00000  Uiso   1.00
H220   H     0.92045   0.42039   0.22896   0.00000  Uiso   1.00
H221   H     0.97407   0.82729   0.27163   0.00000  Uiso   1.00
O222   O     0.06651   0.97475   0.12555   0.00000  Uiso   1.00
O223   O     0.11024   0.33230   0.22500   0.00000  Uiso   1.00
O224   O     0.86862   0.55417   0.28098   0.00000  Uiso   1.00
N225   N     0.15210   0.87282   0.14599   0.00000  Uiso   1.00
N226   N     0.89591   0.12764   0.21685   0.00000  Uiso   1.00
N227   N     0.01116   0.57315   0.25675   0.00000  Uiso   1.00
N228   N     0.14282   0.06451   0.15396   0.00000  Uiso   1.00
N229   N     0.88663   0.31933   0.22482   0.00000  Uiso   1.00
N230   N     0.00188   0.76484   0.26472   0.00000  Uiso   1.00
C231   C     0.15903   0.51282   0.87249   0.00000  Uiso   1.00
C232   C     0.10342   0.39934   0.85795   0.00000  Uiso   1.00
C233   C     0.16343   0.41588   0.84128   0.00000  Uiso   1.00
C234   C     0.09658   0.29936   0.82987   0.00000  Uiso   1.00
C235   C     0.02882   0.14270   0.80651   0.00000  Uiso   1.00
C236   C     0.03318   0.53411   0.87748   0.00000  Uiso   1.00
C237   C     0.03414   0.66396   0.87723   0.00000  Uiso   1.00
C238   C     0.90816   0.66088   0.88226   0.00000  Uiso   1.00
C239   C     0.73138   0.71347   0.88923   0.00000  Uiso   1.00
C240   C     0.18600   0.44308   0.88847   0.00000  Uiso   1.00
C241   C     0.31545   0.49640   0.89747   0.00000  Uiso   1.00
C242   C     0.31813   0.41670   0.91176   0.00000  Uiso   1.00
C243   C     0.37863   0.32795   0.93580   0.00000  Uiso   1.00
C244   C     0.93360   0.27649   0.88186   0.00000  Uiso   1.00
C245   C     0.98098   0.27098   0.86304   0.00000  Uiso   1.00
C246   C     0.91402   0.15440   0.85165   0.00000  Uiso   1.00
C247   C     0.97392   0.17076   0.83497   0.00000  Uiso   1.00
C248   C     0.91074   0.40575   0.88257   0.00000  Uiso   1.00
C249   C     0.78473   0.40248   0.88760   0.00000  Uiso   1.00
C250   C     0.78550   0.53229   0.88736   0.00000  Uiso   1.00
C251   C     0.06356   0.31471   0.89356   0.00000  Uiso   1.00
C252   C     0.06604   0.23492   0.90784   0.00000  Uiso   1.00
C253   C     0.19546   0.28811   0.91686   0.00000  Uiso   1.00
H254   H     0.25435   0.61277   0.86853   0.00000  Uiso   1.00
H255   H     0.25818   0.51524   0.83735   0.00000  Uiso   1.00
H256   H     0.12892   0.76328   0.87329   0.00000  Uiso   1.00
H257   H     0.41018   0.59574   0.89353   0.00000  Uiso   1.00
H258   H     0.20840   0.35052   0.80502   0.00000  Uiso   1.00
H259   H     0.93585   0.87353   0.88082   0.00000  Uiso   1.00
H260   H     0.52895   0.52026   0.92349   0.00000  Uiso   1.00
H261   H     0.83827   0.17655   0.88582   0.00000  Uiso   1.00
H262   H     0.81927   0.05508   0.85559   0.00000  Uiso   1.00
H263   H     0.69000   0.30312   0.89154   0.00000  Uiso   1.00
H264   H     0.97127   0.13559   0.91177   0.00000  Uiso   1.00
H265   H     0.85216   0.97704   0.81983   0.00000  Uiso   1.00
H266   H     0.57961   0.50006   0.89563   0.00000  Uiso   1.00
H267   H     0.17271   0.14678   0.93830   0.00000  Uiso   1.00
O268   O     0.02525   0.09176   0.79222   0.00000  Uiso   1.00
O269   O     0.66770   0.77794   0.89167   0.00000  Uiso   1.00
O270   O     0.44583   0.31444   0.94765   0.00000  Uiso   1.00
N271   N     0.12718   0.27928   0.81266   0.00000  Uiso   1.00
N272   N     0.87236   0.76826   0.88352   0.00000  Uiso   1.00
N273   N     0.42685   0.43800   0.92342   0.00000  Uiso   1.00
N274   N     0.93549   0.07831   0.82062   0.00000  Uiso   1.00
N275   N     0.68067   0.56730   0.89149   0.00000  Uiso   1.00
N276   N     0.23516   0.23703   0.93138   0.00000  Uiso   1.00
C277   C     0.35379   0.51282   0.62751   0.00000  Uiso   1.00
C278   C     0.29592   0.39934   0.64205   0.00000  Uiso   1.00
C279   C     0.25244   0.41588   0.65872   0.00000  Uiso   1.00
C280   C     0.20278   0.29936   0.67013   0.00000  Uiso   1.00
C281   C     0.11388   0.14270   0.69349   0.00000  Uiso   1.00
C282   C     0.50093   0.53411   0.62252   0.00000  Uiso   1.00
C283   C     0.62981   0.66396   0.62277   0.00000  Uiso   1.00
C284   C     0.75272   0.66088   0.61774   0.00000  Uiso   1.00
C285   C     0.98209   0.71347   0.61077   0.00000  Uiso   1.00
C286   C     0.25707   0.44308   0.61153   0.00000  Uiso   1.00
C287   C     0.18095   0.49640   0.60253   0.00000  Uiso   1.00
C288   C     0.09857   0.41670   0.58824   0.00000  Uiso   1.00
C289   C     0.94932   0.32795   0.56420   0.00000  Uiso   1.00
C290   C     0.34289   0.27649   0.61814   0.00000  Uiso   1.00
C291   C     0.29000   0.27098   0.63696   0.00000  Uiso   1.00
C292   C     0.24038   0.15440   0.64835   0.00000  Uiso   1.00
C293   C     0.19683   0.17076   0.66503   0.00000  Uiso   1.00
C294   C     0.49501   0.40575   0.61743   0.00000  Uiso   1.00
C295   C     0.61775   0.40248   0.61240   0.00000  Uiso   1.00
C296   C     0.74679   0.53229   0.61264   0.00000  Uiso   1.00
C297   C     0.25115   0.31471   0.60644   0.00000  Uiso   1.00
C298   C     0.16888   0.23492   0.59216   0.00000  Uiso   1.00
C299   C     0.09264   0.28811   0.58314   0.00000  Uiso   1.00
H300   H     0.35841   0.61277   0.63147   0.00000  Uiso   1.00
H301   H     0.25706   0.51524   0.66265   0.00000  Uiso   1.00
H302   H     0.63436   0.76328   0.62671   0.00000  Uiso   1.00
H303   H     0.18556   0.59574   0.60647   0.00000  Uiso   1.00
H304   H     0.14212   0.35052   0.69498   0.00000  Uiso   1.00
H305   H     0.93768   0.87353   0.61918   0.00000  Uiso   1.00
H306   H     0.99131   0.52026   0.57651   0.00000  Uiso   1.00
H307   H     0.33828   0.17655   0.61418   0.00000  Uiso   1.00
H308   H     0.23581   0.05508   0.64441   0.00000  Uiso   1.00
H309   H     0.61312   0.30312   0.60846   0.00000  Uiso   1.00
H310   H     0.16432   0.13559   0.58823   0.00000  Uiso   1.00
H311   H     0.12488   0.97704   0.68017   0.00000  Uiso   1.00
H312   H     0.92045   0.50006   0.60437   0.00000  Uiso   1.00
H313   H     0.97407   0.14678   0.56170   0.00000  Uiso   1.00
O314   O     0.06651   0.09176   0.70778   0.00000  Uiso   1.00
O315   O     0.11024   0.77794   0.60833   0.00000  Uiso   1.00
O316   O     0.86862   0.31444   0.55235   0.00000  Uiso   1.00
N317   N     0.15210   0.27928   0.68734   0.00000  Uiso   1.00
N318   N     0.89591   0.76826   0.61648   0.00000  Uiso   1.00
N319   N     0.01116   0.43800   0.57658   0.00000  Uiso   1.00
N320   N     0.14282   0.07831   0.67938   0.00000  Uiso   1.00
N321   N     0.88663   0.56730   0.60851   0.00000  Uiso   1.00
N322   N     0.00188   0.23703   0.56862   0.00000  Uiso   1.00
C323   C     0.15903   0.64621   0.96084   0.00000  Uiso   1.00
C324   C     0.10342   0.70408   0.97538   0.00000  Uiso   1.00
C325   C     0.16343   0.74756   0.99205   0.00000  Uiso   1.00
C326   C     0.09658   0.79722   0.00346   0.00000  Uiso   1.00
C327   C     0.02882   0.88612   0.02682   0.00000  Uiso   1.00
C328   C     0.03318   0.49907   0.95586   0.00000  Uiso   1.00
C329   C     0.03414   0.37019   0.95610   0.00000  Uiso   1.00
C330   C     0.90816   0.24728   0.95107   0.00000  Uiso   1.00
C331   C     0.73138   0.01791   0.94410   0.00000  Uiso   1.00
C332   C     0.18600   0.74293   0.94486   0.00000  Uiso   1.00
C333   C     0.31545   0.81905   0.93586   0.00000  Uiso   1.00
C334   C     0.31813   0.90143   0.92157   0.00000  Uiso   1.00
C335   C     0.37863   0.05068   0.89753   0.00000  Uiso   1.00
C336   C     0.93360   0.65711   0.95147   0.00000  Uiso   1.00
C337   C     0.98098   0.71000   0.97029   0.00000  Uiso   1.00
C338   C     0.91402   0.75962   0.98168   0.00000  Uiso   1.00
C339   C     0.97392   0.80317   0.99836   0.00000  Uiso   1.00
C340   C     0.91074   0.50499   0.95077   0.00000  Uiso   1.00
C341   C     0.78473   0.38225   0.94574   0.00000  Uiso   1.00
C342   C     0.78550   0.25321   0.94597   0.00000  Uiso   1.00
C343   C     0.06356   0.74885   0.93977   0.00000  Uiso   1.00
C344   C     0.06604   0.83112   0.92550   0.00000  Uiso   1.00
C345   C     0.19546   0.90736   0.91648   0.00000  Uiso   1.00
H346   H     0.25435   0.64159   0.96480   0.00000  Uiso   1.00
H347   H     0.25818   0.74294   0.99598   0.00000  Uiso   1.00
H348   H     0.12892   0.36564   0.96004   0.00000  Uiso   1.00
H349   H     0.41018   0.81444   0.93980   0.00000  Uiso   1.00
H350   H     0.20840   0.85788   0.02831   0.00000  Uiso   1.00
H351   H     0.93585   0.06232   0.95251   0.00000  Uiso   1.00
H352   H     0.52895   0.00869   0.90984   0.00000  Uiso   1.00
H353   H     0.83827   0.66172   0.94751   0.00000  Uiso   1.00
H354   H     0.81927   0.76419   0.97774   0.00000  Uiso   1.00
H355   H     0.69000   0.38688   0.94180   0.00000  Uiso   1.00
H356   H     0.97127   0.83568   0.92156   0.00000  Uiso   1.00
H357   H     0.85216   0.87512   0.01351   0.00000  Uiso   1.00
H358   H     0.57961   0.07955   0.93771   0.00000  Uiso   1.00
H359   H     0.17271   0.02593   0.89504   0.00000  Uiso   1.00
O360   O     0.02525   0.93349   0.04111   0.00000  Uiso   1.00
O361   O     0.66770   0.88976   0.94166   0.00000  Uiso   1.00
O362   O     0.44583   0.13138   0.88568   0.00000  Uiso   1.00
N363   N     0.12718   0.84790   0.02068   0.00000  Uiso   1.00
N364   N     0.87236   0.10409   0.94981   0.00000  Uiso   1.00
N365   N     0.42685   0.98884   0.90992   0.00000  Uiso   1.00
N366   N     0.93549   0.85718   0.01271   0.00000  Uiso   1.00
N367   N     0.68067   0.11337   0.94185   0.00000  Uiso   1.00
N368   N     0.23516   0.99812   0.90195   0.00000  Uiso   1.00
C369   C     0.48718   0.84097   0.29417   0.00000  Uiso   1.00
C370   C     0.60066   0.89658   0.30872   0.00000  Uiso   1.00
C371   C     0.58412   0.83657   0.32538   0.00000  Uiso   1.00
C372   C     0.70064   0.90342   0.33680   0.00000  Uiso   1.00
C373   C     0.85730   0.97118   0.36015   0.00000  Uiso   1.00
C374   C     0.46589   0.96682   0.28919   0.00000  Uiso   1.00
C375   C     0.33604   0.96586   0.28943   0.00000  Uiso   1.00
C376   C     0.33912   0.09184   0.28441   0.00000  Uiso   1.00
C377   C     0.28653   0.26862   0.27743   0.00000  Uiso   1.00
C378   C     0.55692   0.81400   0.27820   0.00000  Uiso   1.00
C379   C     0.50360   0.68455   0.26919   0.00000  Uiso   1.00
C380   C     0.58330   0.68187   0.25491   0.00000  Uiso   1.00
C381   C     0.67205   0.62137   0.23087   0.00000  Uiso   1.00
C382   C     0.72351   0.06640   0.28480   0.00000  Uiso   1.00
C383   C     0.72902   0.01902   0.30363   0.00000  Uiso   1.00
C384   C     0.84560   0.08598   0.31502   0.00000  Uiso   1.00
C385   C     0.82924   0.02608   0.33170   0.00000  Uiso   1.00
C386   C     0.59425   0.08926   0.28410   0.00000  Uiso   1.00
C387   C     0.59752   0.21527   0.27907   0.00000  Uiso   1.00
C388   C     0.46771   0.21450   0.27931   0.00000  Uiso   1.00
C389   C     0.68529   0.93644   0.27311   0.00000  Uiso   1.00
C390   C     0.76508   0.93396   0.25883   0.00000  Uiso   1.00
C391   C     0.71189   0.80454   0.24981   0.00000  Uiso   1.00
H392   H     0.38723   0.74565   0.29814   0.00000  Uiso   1.00
H393   H     0.48476   0.74182   0.32932   0.00000  Uiso   1.00
H394   H     0.23672   0.87108   0.29337   0.00000  Uiso   1.00
H395   H     0.40426   0.58982   0.27314   0.00000  Uiso   1.00
H396   H     0.64948   0.79160   0.36165   0.00000  Uiso   1.00
H397   H     0.12647   0.06415   0.28585   0.00000  Uiso   1.00
H398   H     0.47974   0.47105   0.24318   0.00000  Uiso   1.00
H399   H     0.82345   0.16173   0.28084   0.00000  Uiso   1.00
H400   H     0.94492   0.18073   0.31108   0.00000  Uiso   1.00
H401   H     0.69688   0.31000   0.27513   0.00000  Uiso   1.00
H402   H     0.86441   0.02873   0.25490   0.00000  Uiso   1.00
H403   H     0.02296   0.14784   0.34684   0.00000  Uiso   1.00
H404   H     0.49994   0.42039   0.27104   0.00000  Uiso   1.00
H405   H     0.85322   0.82729   0.22837   0.00000  Uiso   1.00
O406   O     0.90824   0.97475   0.37445   0.00000  Uiso   1.00
O407   O     0.22206   0.33230   0.27500   0.00000  Uiso   1.00
O408   O     0.68556   0.55417   0.21902   0.00000  Uiso   1.00
N409   N     0.72072   0.87282   0.35401   0.00000  Uiso   1.00
N410   N     0.23174   0.12764   0.28315   0.00000  Uiso   1.00
N411   N     0.56200   0.57315   0.24325   0.00000  Uiso   1.00
N412   N     0.92169   0.06451   0.34604   0.00000  Uiso   1.00
N413   N     0.43270   0.31933   0.27518   0.00000  Uiso   1.00
N414   N     0.76297   0.76484   0.23528   0.00000  Uiso   1.00
C415   C     0.64621   0.48718   0.12751   0.00000  Uiso   1.00
C416   C     0.70408   0.60066   0.14205   0.00000  Uiso   1.00
C417   C     0.74756   0.58412   0.15872   0.00000  Uiso   1.00
C418   C     0.79722   0.70064   0.17013   0.00000  Uiso   1.00
C419   C     0.88612   0.85730   0.19349   0.00000  Uiso   1.00
C420   C     0.49907   0.46589   0.12252   0.00000  Uiso   1.00
C421   C     0.37019   0.33604   0.12277   0.00000  Uiso   1.00
C422   C     0.24728   0.33912   0.11774   0.00000  Uiso   1.00
C423   C     0.01791   0.28653   0.11077   0.00000  Uiso   1.00
C424   C     0.74293   0.55692   0.11153   0.00000  Uiso   1.00
C425   C     0.81905   0.50360   0.10253   0.00000  Uiso   1.00
C426   C     0.90143   0.58330   0.08824   0.00000  Uiso   1.00
C427   C     0.05068   0.67205   0.06420   0.00000  Uiso   1.00
C428   C     0.65711   0.72351   0.11814   0.00000  Uiso   1.00
C429   C     0.71000   0.72902   0.13696   0.00000  Uiso   1.00
C430   C     0.75962   0.84560   0.14835   0.00000  Uiso   1.00
C431   C     0.80317   0.82924   0.16503   0.00000  Uiso   1.00
C432   C     0.50499   0.59425   0.11743   0.00000  Uiso   1.00
C433   C     0.38225   0.59752   0.11240   0.00000  Uiso   1.00
C434   C     0.25321   0.46771   0.11264   0.00000  Uiso   1.00
C435   C     0.74885   0.68529   0.10644   0.00000  Uiso   1.00
C436   C     0.83112   0.76508   0.09216   0.00000  Uiso   1.00
C437   C     0.90736   0.71189   0.08314   0.00000  Uiso   1.00
H438   H     0.64159   0.38723   0.13147   0.00000  Uiso   1.00
H439   H     0.74294   0.48476   0.16265   0.00000  Uiso   1.00
H440   H     0.36564   0.23672   0.12671   0.00000  Uiso   1.00
H441   H     0.81444   0.40426   0.10647   0.00000  Uiso   1.00
H442   H     0.85788   0.64948   0.19498   0.00000  Uiso   1.00
H443   H     0.06232   0.12647   0.11918   0.00000  Uiso   1.00
H444   H     0.00869   0.47974   0.07651   0.00000  Uiso   1.00
H445   H     0.66172   0.82345   0.11418   0.00000  Uiso   1.00
H446   H     0.76419   0.94492   0.14441   0.00000  Uiso   1.00
H447   H     0.38688   0.69688   0.10846   0.00000  Uiso   1.00
H448   H     0.83568   0.86441   0.08823   0.00000  Uiso   1.00
H449   H     0.87512   0.02296   0.18017   0.00000  Uiso   1.00
H450   H     0.07955   0.49994   0.10437   0.00000  Uiso   1.00
H451   H     0.02593   0.85322   0.06170   0.00000  Uiso   1.00
O452   O     0.93349   0.90824   0.20778   0.00000  Uiso   1.00
O453   O     0.88976   0.22206   0.10833   0.00000  Uiso   1.00
O454   O     0.13138   0.68556   0.05235   0.00000  Uiso   1.00
N455   N     0.84790   0.72072   0.18734   0.00000  Uiso   1.00
N456   N     0.10409   0.23174   0.11648   0.00000  Uiso   1.00
N457   N     0.98884   0.56200   0.07658   0.00000  Uiso   1.00
N458   N     0.85718   0.92169   0.17938   0.00000  Uiso   1.00
N459   N     0.11337   0.43270   0.10851   0.00000  Uiso   1.00
N460   N     0.99812   0.76297   0.06862   0.00000  Uiso   1.00
C461   C     0.84097   0.35379   0.46084   0.00000  Uiso   1.00
C462   C     0.89658   0.29592   0.47538   0.00000  Uiso   1.00
C463   C     0.83657   0.25244   0.49205   0.00000  Uiso   1.00
C464   C     0.90342   0.20278   0.50346   0.00000  Uiso   1.00
C465   C     0.97118   0.11388   0.52682   0.00000  Uiso   1.00
C466   C     0.96682   0.50093   0.45586   0.00000  Uiso   1.00
C467   C     0.96586   0.62981   0.45610   0.00000  Uiso   1.00
C468   C     0.09184   0.75272   0.45107   0.00000  Uiso   1.00
C469   C     0.26862   0.98209   0.44410   0.00000  Uiso   1.00
C470   C     0.81400   0.25707   0.44486   0.00000  Uiso   1.00
C471   C     0.68455   0.18095   0.43586   0.00000  Uiso   1.00
C472   C     0.68187   0.09857   0.42157   0.00000  Uiso   1.00
C473   C     0.62137   0.94932   0.39753   0.00000  Uiso   1.00
C474   C     0.06640   0.34289   0.45147   0.00000  Uiso   1.00
C475   C     0.01902   0.29000   0.47029   0.00000  Uiso   1.00
C476   C     0.08598   0.24038   0.48168   0.00000  Uiso   1.00
C477   C     0.02608   0.19683   0.49836   0.00000  Uiso   1.00
C478   C     0.08926   0.49501   0.45077   0.00000  Uiso   1.00
C479   C     0.21527   0.61775   0.44574   0.00000  Uiso   1.00
C480   C     0.21450   0.74679   0.44597   0.00000  Uiso   1.00
C481   C     0.93644   0.25115   0.43977   0.00000  Uiso   1.00
C482   C     0.93396   0.16888   0.42550   0.00000  Uiso   1.00
C483   C     0.80454   0.09264   0.41648   0.00000  Uiso   1.00
H484   H     0.74565   0.35841   0.46480   0.00000  Uiso   1.00
H485   H     0.74182   0.25706   0.49598   0.00000  Uiso   1.00
H486   H     0.87108   0.63436   0.46004   0.00000  Uiso   1.00
H487   H     0.58982   0.18556   0.43980   0.00000  Uiso   1.00
H488   H     0.79160   0.14212   0.52831   0.00000  Uiso   1.00
H489   H     0.06415   0.93768   0.45251   0.00000  Uiso   1.00
H490   H     0.47105   0.99131   0.40984   0.00000  Uiso   1.00
H491   H     0.16173   0.33828   0.44751   0.00000  Uiso   1.00
H492   H     0.18073   0.23581   0.47774   0.00000  Uiso   1.00
H493   H     0.31000   0.61312   0.44180   0.00000  Uiso   1.00
H494   H     0.02873   0.16432   0.42156   0.00000  Uiso   1.00
H495   H     0.14784   0.12488   0.51351   0.00000  Uiso   1.00
H496   H     0.42039   0.92045   0.43771   0.00000  Uiso   1.00
H497   H     0.82729   0.97407   0.39504   0.00000  Uiso   1.00
O498   O     0.97475   0.06651   0.54111   0.00000  Uiso   1.00
O499   O     0.33230   0.11024   0.44166   0.00000  Uiso   1.00
O500   O     0.55417   0.86862   0.38568   0.00000  Uiso   1.00
N501   N     0.87282   0.15210   0.52068   0.00000  Uiso   1.00
N502   N     0.12764   0.89591   0.44981   0.00000  Uiso   1.00
N503   N     0.57315   0.01116   0.40992   0.00000  Uiso   1.00
N504   N     0.06451   0.14282   0.51271   0.00000  Uiso   1.00
N505   N     0.31933   0.88663   0.44185   0.00000  Uiso   1.00
N506   N     0.76484   0.00188   0.40195   0.00000  Uiso   1.00
C507   C     0.51282   0.15903   0.79417   0.00000  Uiso   1.00
C508   C     0.39934   0.10342   0.80872   0.00000  Uiso   1.00
C509   C     0.41588   0.16343   0.82538   0.00000  Uiso   1.00
C510   C     0.29936   0.09658   0.83680   0.00000  Uiso   1.00
C511   C     0.14270   0.02882   0.86015   0.00000  Uiso   1.00
C512   C     0.53411   0.03318   0.78919   0.00000  Uiso   1.00
C513   C     0.66396   0.03414   0.78943   0.00000  Uiso   1.00
C514   C     0.66088   0.90816   0.78441   0.00000  Uiso   1.00
C515   C     0.71347   0.73138   0.77743   0.00000  Uiso   1.00
C516   C     0.44308   0.18600   0.77820   0.00000  Uiso   1.00
C517   C     0.49640   0.31545   0.76919   0.00000  Uiso   1.00
C518   C     0.41670   0.31813   0.75491   0.00000  Uiso   1.00
C519   C     0.32795   0.37863   0.73087   0.00000  Uiso   1.00
C520   C     0.27649   0.93360   0.78480   0.00000  Uiso   1.00
C521   C     0.27098   0.98098   0.80363   0.00000  Uiso   1.00
C522   C     0.15440   0.91402   0.81502   0.00000  Uiso   1.00
C523   C     0.17076   0.97392   0.83170   0.00000  Uiso   1.00
C524   C     0.40575   0.91074   0.78410   0.00000  Uiso   1.00
C525   C     0.40248   0.78473   0.77907   0.00000  Uiso   1.00
C526   C     0.53229   0.78550   0.77931   0.00000  Uiso   1.00
C527   C     0.31471   0.06356   0.77311   0.00000  Uiso   1.00
C528   C     0.23492   0.06604   0.75883   0.00000  Uiso   1.00
C529   C     0.28811   0.19546   0.74981   0.00000  Uiso   1.00
H530   H     0.61277   0.25435   0.79814   0.00000  Uiso   1.00
H531   H     0.51524   0.25818   0.82932   0.00000  Uiso   1.00
H532   H     0.76328   0.12892   0.79337   0.00000  Uiso   1.00
H533   H     0.59574   0.41018   0.77314   0.00000  Uiso   1.00
H534   H     0.35052   0.20840   0.86165   0.00000  Uiso   1.00
H535   H     0.87353   0.93585   0.78585   0.00000  Uiso   1.00
H536   H     0.52026   0.52895   0.74318   0.00000  Uiso   1.00
H537   H     0.17655   0.83827   0.78084   0.00000  Uiso   1.00
H538   H     0.05508   0.81927   0.81108   0.00000  Uiso   1.00
H539   H     0.30312   0.69000   0.77513   0.00000  Uiso   1.00
H540   H     0.13559   0.97127   0.75490   0.00000  Uiso   1.00
H541   H     0.97704   0.85216   0.84684   0.00000  Uiso   1.00
H542   H     0.50006   0.57961   0.77104   0.00000  Uiso   1.00
H543   H     0.14678   0.17271   0.72837   0.00000  Uiso   1.00
O544   O     0.09176   0.02525   0.87445   0.00000  Uiso   1.00
O545   O     0.77794   0.66770   0.77500   0.00000  Uiso   1.00
O546   O     0.31444   0.44583   0.71902   0.00000  Uiso   1.00
N547   N     0.27928   0.12718   0.85401   0.00000  Uiso   1.00
N548   N     0.76826   0.87236   0.78315   0.00000  Uiso   1.00
N549   N     0.43800   0.42685   0.74325   0.00000  Uiso   1.00
N550   N     0.07831   0.93549   0.84604   0.00000  Uiso   1.00
N551   N     0.56730   0.68067   0.77518   0.00000  Uiso   1.00
N552   N     0.23703   0.23516   0.73528   0.00000  Uiso   1.00
