data_job_04608
_audit_creation_date              2018-12-19
_audit_creation_method            'Materials Studio'
_symmetry_space_group_name_H-M    'P1'
_symmetry_Int_Tables_number       1
_symmetry_cell_setting            triclinic
loop_
_symmetry_equiv_pos_as_xyz
  x,y,z
_cell_length_a                    17.0939
_cell_length_b                    7.0556
_cell_length_c                    24.0359
_cell_angle_alpha                 90.0000
_cell_angle_beta                  53.7268
_cell_angle_gamma                 90.0000
loop_
_atom_site_label
_atom_site_type_symbol
_atom_site_fract_x
_atom_site_fract_y
_atom_site_fract_z
_atom_site_U_iso_or_equiv
_atom_site_adp_type
_atom_site_occupancy
C1     C     0.80800   0.26689   0.72639   0.00000  Uiso   1.00
C2     C     0.74824   0.23588   0.80415   0.00000  Uiso   1.00
C3     C     0.72718   0.37252   0.85274   0.00000  Uiso   1.00
C4     C     0.67142   0.31591   0.92135   0.00000  Uiso   1.00
C5     C     0.58376   0.29611   0.03916   0.00000  Uiso   1.00
C6     C     0.89027   0.12256   0.69403   0.00000  Uiso   1.00
C7     C     0.98862   0.16393   0.65003   0.00000  Uiso   1.00
C8     C     0.05241   0.01191   0.62594   0.00000  Uiso   1.00
C9     C     0.18525   0.81618   0.57274   0.00000  Uiso   1.00
C10    C     0.74330   0.20680   0.70526   0.00000  Uiso   1.00
C11    C     0.71809   0.31898   0.67070   0.00000  Uiso   1.00
C12    C     0.65816   0.23786   0.65605   0.00000  Uiso   1.00
C13    C     0.56280   0.17293   0.62030   0.00000  Uiso   1.00
C14    C     0.74642   0.92335   0.76181   0.00000  Uiso   1.00
C15    C     0.71480   0.04928   0.82339   0.00000  Uiso   1.00
C16    C     0.65905   0.99244   0.89194   0.00000  Uiso   1.00
C17    C     0.63791   0.12897   0.94063   0.00000  Uiso   1.00
C18    C     0.85683   0.93597   0.71327   0.00000  Uiso   1.00
C19    C     0.92049   0.78384   0.68923   0.00000  Uiso   1.00
C20    C     0.01891   0.82497   0.64521   0.00000  Uiso   1.00
C21    C     0.70985   0.02020   0.72451   0.00000  Uiso   1.00
C22    C     0.64996   0.93889   0.70990   0.00000  Uiso   1.00
C23    C     0.62466   0.05093   0.67532   0.00000  Uiso   1.00
H24    H     0.83404   0.41216   0.71140   0.00000  Uiso   1.00
H25    H     0.75308   0.51691   0.83783   0.00000  Uiso   1.00
H26    H     0.01448   0.30835   0.63515   0.00000  Uiso   1.00
H27    H     0.74398   0.46337   0.65582   0.00000  Uiso   1.00
H28    H     0.64860   0.55074   0.98648   0.00000  Uiso   1.00
H29    H     0.19977   0.11097   0.55909   0.00000  Uiso   1.00
H30    H     0.62939   0.43787   0.60267   0.00000  Uiso   1.00
H31    H     0.72039   0.77806   0.77679   0.00000  Uiso   1.00
H32    H     0.63318   0.84802   0.90681   0.00000  Uiso   1.00
H33    H     0.89458   0.63946   0.70413   0.00000  Uiso   1.00
H34    H     0.62409   0.79449   0.72480   0.00000  Uiso   1.00
H35    H     0.55129   0.00785   0.04247   0.00000  Uiso   1.00
H36    H     0.10246   0.56807   0.61507   0.00000  Uiso   1.00
H37    H     0.53207   0.89497   0.65866   0.00000  Uiso   1.00
O38    O     0.54466   0.33674   0.09883   0.00000  Uiso   1.00
O39    O     0.26777   0.75978   0.53809   0.00000  Uiso   1.00
O40    O     0.51943   0.18866   0.59528   0.00000  Uiso   1.00
N41    N     0.63765   0.41338   0.98182   0.00000  Uiso   1.00
N42    N     0.15296   0.00222   0.58224   0.00000  Uiso   1.00
N43    N     0.61972   0.30783   0.62297   0.00000  Uiso   1.00
N44    N     0.58529   0.12125   0.01195   0.00000  Uiso   1.00
N45    N     0.10060   0.71009   0.61237   0.00000  Uiso   1.00
N46    N     0.56736   0.01570   0.65310   0.00000  Uiso   1.00
C47    C     0.19200   0.26689   0.77361   0.00000  Uiso   1.00
C48    C     0.25176   0.23588   0.69585   0.00000  Uiso   1.00
C49    C     0.27282   0.37252   0.64726   0.00000  Uiso   1.00
C50    C     0.32858   0.31591   0.57865   0.00000  Uiso   1.00
C51    C     0.41624   0.29611   0.46084   0.00000  Uiso   1.00
C52    C     0.10973   0.12256   0.80597   0.00000  Uiso   1.00
C53    C     0.01138   0.16393   0.84997   0.00000  Uiso   1.00
C54    C     0.94759   0.01191   0.87406   0.00000  Uiso   1.00
C55    C     0.81475   0.81618   0.92726   0.00000  Uiso   1.00
C56    C     0.25670   0.20680   0.79474   0.00000  Uiso   1.00
C57    C     0.28191   0.31898   0.82930   0.00000  Uiso   1.00
C58    C     0.34184   0.23786   0.84395   0.00000  Uiso   1.00
C59    C     0.43720   0.17293   0.87970   0.00000  Uiso   1.00
C60    C     0.25358   0.92335   0.73819   0.00000  Uiso   1.00
C61    C     0.28520   0.04928   0.67661   0.00000  Uiso   1.00
C62    C     0.34095   0.99244   0.60806   0.00000  Uiso   1.00
C63    C     0.36209   0.12897   0.55937   0.00000  Uiso   1.00
C64    C     0.14317   0.93597   0.78673   0.00000  Uiso   1.00
C65    C     0.07951   0.78384   0.81077   0.00000  Uiso   1.00
C66    C     0.98109   0.82497   0.85479   0.00000  Uiso   1.00
C67    C     0.29015   0.02020   0.77549   0.00000  Uiso   1.00
C68    C     0.35004   0.93889   0.79010   0.00000  Uiso   1.00
C69    C     0.37534   0.05093   0.82468   0.00000  Uiso   1.00
H70    H     0.16596   0.41216   0.78860   0.00000  Uiso   1.00
H71    H     0.24692   0.51691   0.66217   0.00000  Uiso   1.00
H72    H     0.98552   0.30835   0.86485   0.00000  Uiso   1.00
H73    H     0.25602   0.46337   0.84418   0.00000  Uiso   1.00
H74    H     0.35140   0.55074   0.51352   0.00000  Uiso   1.00
H75    H     0.80023   0.11097   0.94091   0.00000  Uiso   1.00
H76    H     0.37061   0.43787   0.89733   0.00000  Uiso   1.00
H77    H     0.27961   0.77806   0.72321   0.00000  Uiso   1.00
H78    H     0.36682   0.84802   0.59319   0.00000  Uiso   1.00
H79    H     0.10542   0.63946   0.79587   0.00000  Uiso   1.00
H80    H     0.37591   0.79449   0.77520   0.00000  Uiso   1.00
H81    H     0.44871   0.00785   0.45753   0.00000  Uiso   1.00
H82    H     0.89754   0.56807   0.88493   0.00000  Uiso   1.00
H83    H     0.46793   0.89497   0.84134   0.00000  Uiso   1.00
O84    O     0.45534   0.33674   0.40117   0.00000  Uiso   1.00
O85    O     0.73223   0.75978   0.96191   0.00000  Uiso   1.00
O86    O     0.48057   0.18866   0.90472   0.00000  Uiso   1.00
N87    N     0.36235   0.41338   0.51818   0.00000  Uiso   1.00
N88    N     0.84704   0.00222   0.91776   0.00000  Uiso   1.00
N89    N     0.38028   0.30783   0.87703   0.00000  Uiso   1.00
N90    N     0.41471   0.12125   0.48805   0.00000  Uiso   1.00
N91    N     0.89940   0.71009   0.88763   0.00000  Uiso   1.00
N92    N     0.43264   0.01570   0.84690   0.00000  Uiso   1.00
C93    C     0.19200   0.73311   0.27361   0.00000  Uiso   1.00
C94    C     0.25176   0.76412   0.19585   0.00000  Uiso   1.00
C95    C     0.27282   0.62748   0.14726   0.00000  Uiso   1.00
C96    C     0.32858   0.68409   0.07865   0.00000  Uiso   1.00
C97    C     0.41624   0.70389   0.96084   0.00000  Uiso   1.00
C98    C     0.10973   0.87744   0.30597   0.00000  Uiso   1.00
C99    C     0.01138   0.83607   0.34997   0.00000  Uiso   1.00
C100   C     0.94759   0.98809   0.37406   0.00000  Uiso   1.00
C101   C     0.81475   0.18382   0.42726   0.00000  Uiso   1.00
C102   C     0.25670   0.79320   0.29474   0.00000  Uiso   1.00
C103   C     0.28191   0.68102   0.32930   0.00000  Uiso   1.00
C104   C     0.34184   0.76214   0.34395   0.00000  Uiso   1.00
C105   C     0.43720   0.82707   0.37970   0.00000  Uiso   1.00
C106   C     0.25358   0.07665   0.23819   0.00000  Uiso   1.00
C107   C     0.28520   0.95072   0.17661   0.00000  Uiso   1.00
C108   C     0.34095   0.00756   0.10806   0.00000  Uiso   1.00
C109   C     0.36209   0.87103   0.05937   0.00000  Uiso   1.00
C110   C     0.14317   0.06403   0.28673   0.00000  Uiso   1.00
C111   C     0.07951   0.21616   0.31077   0.00000  Uiso   1.00
C112   C     0.98109   0.17503   0.35479   0.00000  Uiso   1.00
C113   C     0.29015   0.97980   0.27549   0.00000  Uiso   1.00
C114   C     0.35004   0.06111   0.29010   0.00000  Uiso   1.00
C115   C     0.37534   0.94907   0.32468   0.00000  Uiso   1.00
H116   H     0.16596   0.58784   0.28860   0.00000  Uiso   1.00
H117   H     0.24692   0.48309   0.16217   0.00000  Uiso   1.00
H118   H     0.98552   0.69165   0.36485   0.00000  Uiso   1.00
H119   H     0.25602   0.53663   0.34418   0.00000  Uiso   1.00
H120   H     0.35140   0.44926   0.01352   0.00000  Uiso   1.00
H121   H     0.80023   0.88903   0.44091   0.00000  Uiso   1.00
H122   H     0.37061   0.56213   0.39733   0.00000  Uiso   1.00
H123   H     0.27961   0.22194   0.22321   0.00000  Uiso   1.00
H124   H     0.36682   0.15198   0.09319   0.00000  Uiso   1.00
H125   H     0.10542   0.36054   0.29587   0.00000  Uiso   1.00
H126   H     0.37591   0.20551   0.27520   0.00000  Uiso   1.00
H127   H     0.44871   0.99215   0.95753   0.00000  Uiso   1.00
H128   H     0.89754   0.43193   0.38493   0.00000  Uiso   1.00
H129   H     0.46793   0.10503   0.34134   0.00000  Uiso   1.00
O130   O     0.45534   0.66326   0.90117   0.00000  Uiso   1.00
O131   O     0.73223   0.24022   0.46191   0.00000  Uiso   1.00
O132   O     0.48057   0.81134   0.40472   0.00000  Uiso   1.00
N133   N     0.36235   0.58662   0.01818   0.00000  Uiso   1.00
N134   N     0.84704   0.99778   0.41776   0.00000  Uiso   1.00
N135   N     0.38028   0.69217   0.37703   0.00000  Uiso   1.00
N136   N     0.41471   0.87875   0.98805   0.00000  Uiso   1.00
N137   N     0.89940   0.28991   0.38763   0.00000  Uiso   1.00
N138   N     0.43264   0.98430   0.34690   0.00000  Uiso   1.00
C139   C     0.80800   0.73311   0.22639   0.00000  Uiso   1.00
C140   C     0.74824   0.76412   0.30415   0.00000  Uiso   1.00
C141   C     0.72718   0.62748   0.35274   0.00000  Uiso   1.00
C142   C     0.67142   0.68409   0.42135   0.00000  Uiso   1.00
C143   C     0.58376   0.70389   0.53916   0.00000  Uiso   1.00
C144   C     0.89027   0.87744   0.19403   0.00000  Uiso   1.00
C145   C     0.98862   0.83607   0.15003   0.00000  Uiso   1.00
C146   C     0.05241   0.98809   0.12594   0.00000  Uiso   1.00
C147   C     0.18525   0.18382   0.07274   0.00000  Uiso   1.00
C148   C     0.74330   0.79320   0.20526   0.00000  Uiso   1.00
C149   C     0.71809   0.68102   0.17070   0.00000  Uiso   1.00
C150   C     0.65816   0.76214   0.15605   0.00000  Uiso   1.00
C151   C     0.56280   0.82707   0.12030   0.00000  Uiso   1.00
C152   C     0.74642   0.07665   0.26181   0.00000  Uiso   1.00
C153   C     0.71480   0.95072   0.32339   0.00000  Uiso   1.00
C154   C     0.65905   0.00756   0.39194   0.00000  Uiso   1.00
C155   C     0.63791   0.87103   0.44063   0.00000  Uiso   1.00
C156   C     0.85683   0.06403   0.21327   0.00000  Uiso   1.00
C157   C     0.92049   0.21616   0.18923   0.00000  Uiso   1.00
C158   C     0.01891   0.17503   0.14521   0.00000  Uiso   1.00
C159   C     0.70985   0.97980   0.22451   0.00000  Uiso   1.00
C160   C     0.64996   0.06111   0.20990   0.00000  Uiso   1.00
C161   C     0.62466   0.94907   0.17532   0.00000  Uiso   1.00
H162   H     0.83404   0.58784   0.21140   0.00000  Uiso   1.00
H163   H     0.75308   0.48309   0.33783   0.00000  Uiso   1.00
H164   H     0.01448   0.69165   0.13515   0.00000  Uiso   1.00
H165   H     0.74398   0.53663   0.15582   0.00000  Uiso   1.00
H166   H     0.64860   0.44926   0.48648   0.00000  Uiso   1.00
H167   H     0.19977   0.88903   0.05909   0.00000  Uiso   1.00
H168   H     0.62939   0.56213   0.10267   0.00000  Uiso   1.00
H169   H     0.72039   0.22194   0.27679   0.00000  Uiso   1.00
H170   H     0.63318   0.15198   0.40681   0.00000  Uiso   1.00
H171   H     0.89458   0.36054   0.20413   0.00000  Uiso   1.00
H172   H     0.62409   0.20551   0.22480   0.00000  Uiso   1.00
H173   H     0.55129   0.99215   0.54247   0.00000  Uiso   1.00
H174   H     0.10246   0.43193   0.11507   0.00000  Uiso   1.00
H175   H     0.53207   0.10503   0.15866   0.00000  Uiso   1.00
O176   O     0.54466   0.66326   0.59883   0.00000  Uiso   1.00
O177   O     0.26777   0.24022   0.03809   0.00000  Uiso   1.00
O178   O     0.51943   0.81134   0.09528   0.00000  Uiso   1.00
N179   N     0.63765   0.58662   0.48182   0.00000  Uiso   1.00
N180   N     0.15296   0.99778   0.08224   0.00000  Uiso   1.00
N181   N     0.61972   0.69217   0.12297   0.00000  Uiso   1.00
N182   N     0.58529   0.87875   0.51195   0.00000  Uiso   1.00
N183   N     0.10060   0.28991   0.11237   0.00000  Uiso   1.00
N184   N     0.56736   0.98430   0.15310   0.00000  Uiso   1.00
