data_job_06164
_audit_creation_date              2018-12-19
_audit_creation_method            'Materials Studio'
_symmetry_space_group_name_H-M    'P1'
_symmetry_Int_Tables_number       1
_symmetry_cell_setting            triclinic
loop_
_symmetry_equiv_pos_as_xyz
  x,y,z
_cell_length_a                    16.4119
_cell_length_b                    16.4137
_cell_length_c                    16.4155
_cell_angle_alpha                 109.1910
_cell_angle_beta                  109.1920
_cell_angle_gamma                 109.1920
loop_
_atom_site_label
_atom_site_type_symbol
_atom_site_fract_x
_atom_site_fract_y
_atom_site_fract_z
_atom_site_U_iso_or_equiv
_atom_site_adp_type
_atom_site_occupancy
C1     C     0.52334   0.81512   0.06429   0.00000  Uiso   1.00
C2     C     0.46848   0.72630   0.07333   0.00000  Uiso   1.00
C3     C     0.46511   0.72981   0.15773   0.00000  Uiso   1.00
C4     C     0.41092   0.64037   0.15095   0.00000  Uiso   1.00
C5     C     0.33322   0.51608   0.17840   0.00000  Uiso   1.00
C6     C     0.59352   0.79400   0.02995   0.00000  Uiso   1.00
C7     C     0.69528   0.85444   0.07787   0.00000  Uiso   1.00
C8     C     0.74635   0.82200   0.03456   0.00000  Uiso   1.00
C9     C     0.86278   0.80286   0.99462   0.00000  Uiso   1.00
C10    C     0.44620   0.81194   0.97849   0.00000  Uiso   1.00
C11    C     0.42410   0.88747   0.98313   0.00000  Uiso   1.00
C12    C     0.35114   0.87014   0.89649   0.00000  Uiso   1.00
C13    C     0.23883   0.87884   0.77665   0.00000  Uiso   1.00
C14    C     0.43310   0.65004   0.90216   0.00000  Uiso   1.00
C15    C     0.41946   0.63663   0.98527   0.00000  Uiso   1.00
C16    C     0.36526   0.54716   0.97836   0.00000  Uiso   1.00
C17    C     0.36180   0.55054   0.06273   0.00000  Uiso   1.00
C18    C     0.54451   0.70434   0.94189   0.00000  Uiso   1.00
C19    C     0.59543   0.67180   0.89849   0.00000  Uiso   1.00
C20    C     0.69724   0.73217   0.94634   0.00000  Uiso   1.00
C21    C     0.39717   0.72227   0.89043   0.00000  Uiso   1.00
C22    C     0.32425   0.70482   0.80376   0.00000  Uiso   1.00
C23    C     0.30204   0.78031   0.80827   0.00000  Uiso   1.00
H24    H     0.56151   0.88493   0.13285   0.00000  Uiso   1.00
H25    H     0.50306   0.79921   0.22587   0.00000  Uiso   1.00
H26    H     0.73320   0.92383   0.14601   0.00000  Uiso   1.00
H27    H     0.46205   0.95685   0.05129   0.00000  Uiso   1.00
H28    H     0.41667   0.66463   0.29018   0.00000  Uiso   1.00
H29    H     0.90192   0.92742   0.12177   0.00000  Uiso   1.00
H30    H     0.33016   0.99704   0.92204   0.00000  Uiso   1.00
H31    H     0.39493   0.58023   0.83360   0.00000  Uiso   1.00
H32    H     0.32733   0.47778   0.91020   0.00000  Uiso   1.00
H33    H     0.55747   0.60241   0.83034   0.00000  Uiso   1.00
H34    H     0.28633   0.63542   0.73563   0.00000  Uiso   1.00
H35    H     0.27404   0.40375   0.03397   0.00000  Uiso   1.00
H36    H     0.75930   0.66654   0.86556   0.00000  Uiso   1.00
H37    H     0.18753   0.73616   0.66583   0.00000  Uiso   1.00
O38    O     0.30392   0.47229   0.21787   0.00000  Uiso   1.00
O39    O     0.94055   0.81707   0.99692   0.00000  Uiso   1.00
O40    O     0.19041   0.90841   0.73488   0.00000  Uiso   1.00
N41    N     0.39236   0.61729   0.21936   0.00000  Uiso   1.00
N42    N     0.84605   0.86298   0.06192   0.00000  Uiso   1.00
N43    N     0.31151   0.92808   0.87518   0.00000  Uiso   1.00
N44    N     0.31561   0.47691   0.08149   0.00000  Uiso   1.00
N45    N     0.76930   0.72260   0.92406   0.00000  Uiso   1.00
N46    N     0.23477   0.78770   0.73732   0.00000  Uiso   1.00
C47    C     0.06432   0.52333   0.81510   0.00000  Uiso   1.00
C48    C     0.07337   0.46847   0.72629   0.00000  Uiso   1.00
C49    C     0.15779   0.46511   0.72981   0.00000  Uiso   1.00
C50    C     0.15101   0.41092   0.64038   0.00000  Uiso   1.00
C51    C     0.17847   0.33324   0.51611   0.00000  Uiso   1.00
C52    C     0.02997   0.59350   0.79398   0.00000  Uiso   1.00
C53    C     0.07789   0.69525   0.85442   0.00000  Uiso   1.00
C54    C     0.03457   0.74631   0.82197   0.00000  Uiso   1.00
C55    C     0.99461   0.86272   0.80283   0.00000  Uiso   1.00
C56    C     0.97850   0.44619   0.81192   0.00000  Uiso   1.00
C57    C     0.98314   0.42409   0.88744   0.00000  Uiso   1.00
C58    C     0.89648   0.35114   0.87010   0.00000  Uiso   1.00
C59    C     0.77661   0.23883   0.87881   0.00000  Uiso   1.00
C60    C     0.90216   0.43309   0.65003   0.00000  Uiso   1.00
C61    C     0.98528   0.41946   0.63663   0.00000  Uiso   1.00
C62    C     0.97837   0.36526   0.54717   0.00000  Uiso   1.00
C63    C     0.06277   0.36181   0.55056   0.00000  Uiso   1.00
C64    C     0.94189   0.54449   0.70433   0.00000  Uiso   1.00
C65    C     0.89848   0.59541   0.67179   0.00000  Uiso   1.00
C66    C     0.94633   0.69721   0.73215   0.00000  Uiso   1.00
C67    C     0.89042   0.39717   0.72226   0.00000  Uiso   1.00
C68    C     0.80373   0.32425   0.70480   0.00000  Uiso   1.00
C69    C     0.80824   0.30204   0.78028   0.00000  Uiso   1.00
H70    H     0.13289   0.56150   0.88491   0.00000  Uiso   1.00
H71    H     0.22594   0.50306   0.79921   0.00000  Uiso   1.00
H72    H     0.14605   0.73316   0.92380   0.00000  Uiso   1.00
H73    H     0.05131   0.46204   0.95681   0.00000  Uiso   1.00
H74    H     0.29027   0.41668   0.66465   0.00000  Uiso   1.00
H75    H     0.12180   0.90186   0.92738   0.00000  Uiso   1.00
H76    H     0.92203   0.33016   0.99700   0.00000  Uiso   1.00
H77    H     0.83358   0.39493   0.58023   0.00000  Uiso   1.00
H78    H     0.91020   0.32734   0.47780   0.00000  Uiso   1.00
H79    H     0.83032   0.55745   0.60240   0.00000  Uiso   1.00
H80    H     0.73558   0.28633   0.63541   0.00000  Uiso   1.00
H81    H     0.03401   0.27407   0.40378   0.00000  Uiso   1.00
H82    H     0.86554   0.75925   0.66652   0.00000  Uiso   1.00
H83    H     0.66577   0.18754   0.73613   0.00000  Uiso   1.00
O84    O     0.21795   0.30395   0.47233   0.00000  Uiso   1.00
O85    O     0.99692   0.94048   0.81704   0.00000  Uiso   1.00
O86    O     0.73483   0.19042   0.90837   0.00000  Uiso   1.00
N87    N     0.21943   0.39237   0.61731   0.00000  Uiso   1.00
N88    N     0.06193   0.84599   0.86294   0.00000  Uiso   1.00
N89    N     0.87516   0.31151   0.92804   0.00000  Uiso   1.00
N90    N     0.08154   0.31563   0.47694   0.00000  Uiso   1.00
N91    N     0.92404   0.76925   0.72258   0.00000  Uiso   1.00
N92    N     0.73727   0.23477   0.78767   0.00000  Uiso   1.00
C93    C     0.81514   0.06431   0.52332   0.00000  Uiso   1.00
C94    C     0.72631   0.07335   0.46847   0.00000  Uiso   1.00
C95    C     0.72982   0.15776   0.46510   0.00000  Uiso   1.00
C96    C     0.64037   0.15098   0.41092   0.00000  Uiso   1.00
C97    C     0.51607   0.17843   0.33324   0.00000  Uiso   1.00
C98    C     0.79401   0.02996   0.59348   0.00000  Uiso   1.00
C99    C     0.85446   0.07788   0.69522   0.00000  Uiso   1.00
C100   C     0.82201   0.03456   0.74627   0.00000  Uiso   1.00
C101   C     0.80286   0.99460   0.86267   0.00000  Uiso   1.00
C102   C     0.81196   0.97850   0.44619   0.00000  Uiso   1.00
C103   C     0.88750   0.98315   0.42410   0.00000  Uiso   1.00
C104   C     0.87017   0.89649   0.35116   0.00000  Uiso   1.00
C105   C     0.87888   0.77665   0.23887   0.00000  Uiso   1.00
C106   C     0.65004   0.90216   0.43309   0.00000  Uiso   1.00
C107   C     0.63663   0.98528   0.41946   0.00000  Uiso   1.00
C108   C     0.54715   0.97836   0.36526   0.00000  Uiso   1.00
C109   C     0.55053   0.06275   0.36181   0.00000  Uiso   1.00
C110   C     0.70434   0.94189   0.54447   0.00000  Uiso   1.00
C111   C     0.67179   0.89848   0.59538   0.00000  Uiso   1.00
C112   C     0.73217   0.94633   0.69717   0.00000  Uiso   1.00
C113   C     0.72228   0.89043   0.39717   0.00000  Uiso   1.00
C114   C     0.70483   0.80375   0.32426   0.00000  Uiso   1.00
C115   C     0.78033   0.80826   0.30206   0.00000  Uiso   1.00
H116   H     0.88496   0.13287   0.56149   0.00000  Uiso   1.00
H117   H     0.79923   0.22591   0.50305   0.00000  Uiso   1.00
H118   H     0.92385   0.14603   0.73313   0.00000  Uiso   1.00
H119   H     0.95689   0.05131   0.46205   0.00000  Uiso   1.00
H120   H     0.66464   0.29022   0.41667   0.00000  Uiso   1.00
H121   H     0.92743   0.12178   0.90180   0.00000  Uiso   1.00
H122   H     0.99709   0.92205   0.33018   0.00000  Uiso   1.00
H123   H     0.58022   0.83359   0.39493   0.00000  Uiso   1.00
H124   H     0.47777   0.91020   0.32734   0.00000  Uiso   1.00
H125   H     0.60239   0.83032   0.55743   0.00000  Uiso   1.00
H126   H     0.63542   0.73561   0.28635   0.00000  Uiso   1.00
H127   H     0.40373   0.03398   0.27406   0.00000  Uiso   1.00
H128   H     0.66652   0.86554   0.75920   0.00000  Uiso   1.00
H129   H     0.73618   0.66581   0.18758   0.00000  Uiso   1.00
O130   O     0.47228   0.21791   0.30394   0.00000  Uiso   1.00
O131   O     0.81707   0.99691   0.94042   0.00000  Uiso   1.00
O132   O     0.90845   0.73487   0.19046   0.00000  Uiso   1.00
N133   N     0.61730   0.21940   0.39237   0.00000  Uiso   1.00
N134   N     0.86298   0.06192   0.84594   0.00000  Uiso   1.00
N135   N     0.92812   0.87518   0.31154   0.00000  Uiso   1.00
N136   N     0.47690   0.08152   0.31563   0.00000  Uiso   1.00
N137   N     0.72259   0.92404   0.76921   0.00000  Uiso   1.00
N138   N     0.78772   0.73730   0.23481   0.00000  Uiso   1.00
C139   C     0.47666   0.18488   0.93571   0.00000  Uiso   1.00
C140   C     0.53152   0.27370   0.92667   0.00000  Uiso   1.00
C141   C     0.53489   0.27019   0.84227   0.00000  Uiso   1.00
C142   C     0.58908   0.35963   0.84905   0.00000  Uiso   1.00
C143   C     0.66678   0.48392   0.82160   0.00000  Uiso   1.00
C144   C     0.40648   0.20600   0.97005   0.00000  Uiso   1.00
C145   C     0.30472   0.14556   0.92213   0.00000  Uiso   1.00
C146   C     0.25365   0.17800   0.96544   0.00000  Uiso   1.00
C147   C     0.13722   0.19714   0.00538   0.00000  Uiso   1.00
C148   C     0.55380   0.18806   0.02151   0.00000  Uiso   1.00
C149   C     0.57590   0.11253   0.01687   0.00000  Uiso   1.00
C150   C     0.64886   0.12986   0.10351   0.00000  Uiso   1.00
C151   C     0.76117   0.12116   0.22335   0.00000  Uiso   1.00
C152   C     0.56690   0.34996   0.09784   0.00000  Uiso   1.00
C153   C     0.58054   0.36337   0.01473   0.00000  Uiso   1.00
C154   C     0.63474   0.45284   0.02164   0.00000  Uiso   1.00
C155   C     0.63820   0.44946   0.93727   0.00000  Uiso   1.00
C156   C     0.45549   0.29566   0.05811   0.00000  Uiso   1.00
C157   C     0.40457   0.32820   0.10151   0.00000  Uiso   1.00
C158   C     0.30276   0.26783   0.05366   0.00000  Uiso   1.00
C159   C     0.60282   0.27773   0.10957   0.00000  Uiso   1.00
C160   C     0.67575   0.29518   0.19624   0.00000  Uiso   1.00
C161   C     0.69796   0.21969   0.19173   0.00000  Uiso   1.00
H162   H     0.43849   0.11507   0.86715   0.00000  Uiso   1.00
H163   H     0.49694   0.20079   0.77413   0.00000  Uiso   1.00
H164   H     0.26680   0.07617   0.85399   0.00000  Uiso   1.00
H165   H     0.53795   0.04315   0.94871   0.00000  Uiso   1.00
H166   H     0.58333   0.33537   0.70982   0.00000  Uiso   1.00
H167   H     0.09808   0.07258   0.87823   0.00000  Uiso   1.00
H168   H     0.66984   0.00296   0.07796   0.00000  Uiso   1.00
H169   H     0.60507   0.41977   0.16640   0.00000  Uiso   1.00
H170   H     0.67267   0.52222   0.08980   0.00000  Uiso   1.00
H171   H     0.44253   0.39759   0.16966   0.00000  Uiso   1.00
H172   H     0.71367   0.36458   0.26437   0.00000  Uiso   1.00
H173   H     0.72596   0.59625   0.96603   0.00000  Uiso   1.00
H174   H     0.24070   0.33346   0.13444   0.00000  Uiso   1.00
H175   H     0.81247   0.26384   0.33417   0.00000  Uiso   1.00
O176   O     0.69608   0.52770   0.78213   0.00000  Uiso   1.00
O177   O     0.05945   0.18293   0.00308   0.00000  Uiso   1.00
O178   O     0.80959   0.09159   0.26512   0.00000  Uiso   1.00
N179   N     0.60764   0.38271   0.78064   0.00000  Uiso   1.00
N180   N     0.15395   0.13702   0.93808   0.00000  Uiso   1.00
N181   N     0.68849   0.07192   0.12482   0.00000  Uiso   1.00
N182   N     0.68439   0.52309   0.91851   0.00000  Uiso   1.00
N183   N     0.23070   0.27740   0.07594   0.00000  Uiso   1.00
N184   N     0.76523   0.21230   0.26268   0.00000  Uiso   1.00
C185   C     0.93568   0.47667   0.18490   0.00000  Uiso   1.00
C186   C     0.92663   0.53153   0.27371   0.00000  Uiso   1.00
C187   C     0.84221   0.53489   0.27019   0.00000  Uiso   1.00
C188   C     0.84899   0.58907   0.35962   0.00000  Uiso   1.00
C189   C     0.82153   0.66676   0.48389   0.00000  Uiso   1.00
C190   C     0.97003   0.40650   0.20602   0.00000  Uiso   1.00
C191   C     0.92211   0.30475   0.14558   0.00000  Uiso   1.00
C192   C     0.96543   0.25369   0.17803   0.00000  Uiso   1.00
C193   C     0.00539   0.13728   0.19717   0.00000  Uiso   1.00
C194   C     0.02150   0.55381   0.18808   0.00000  Uiso   1.00
C195   C     0.01686   0.57591   0.11256   0.00000  Uiso   1.00
C196   C     0.10352   0.64886   0.12990   0.00000  Uiso   1.00
C197   C     0.22339   0.76117   0.12119   0.00000  Uiso   1.00
C198   C     0.09784   0.56691   0.34997   0.00000  Uiso   1.00
C199   C     0.01472   0.58054   0.36337   0.00000  Uiso   1.00
C200   C     0.02163   0.63474   0.45283   0.00000  Uiso   1.00
C201   C     0.93723   0.63818   0.44944   0.00000  Uiso   1.00
C202   C     0.05811   0.45551   0.29567   0.00000  Uiso   1.00
C203   C     0.10152   0.40459   0.32821   0.00000  Uiso   1.00
C204   C     0.05367   0.30279   0.26785   0.00000  Uiso   1.00
C205   C     0.10958   0.60283   0.27774   0.00000  Uiso   1.00
C206   C     0.19627   0.67575   0.29519   0.00000  Uiso   1.00
C207   C     0.19176   0.69796   0.21972   0.00000  Uiso   1.00
H208   H     0.86711   0.43850   0.11509   0.00000  Uiso   1.00
H209   H     0.77406   0.49694   0.20079   0.00000  Uiso   1.00
H210   H     0.85395   0.26684   0.07620   0.00000  Uiso   1.00
H211   H     0.94869   0.53796   0.04319   0.00000  Uiso   1.00
H212   H     0.70973   0.58332   0.33535   0.00000  Uiso   1.00
H213   H     0.87820   0.09814   0.07262   0.00000  Uiso   1.00
H214   H     0.07797   0.66984   0.00300   0.00000  Uiso   1.00
H215   H     0.16642   0.60507   0.41977   0.00000  Uiso   1.00
H216   H     0.08980   0.67266   0.52220   0.00000  Uiso   1.00
H217   H     0.16968   0.44255   0.39760   0.00000  Uiso   1.00
H218   H     0.26442   0.71367   0.36459   0.00000  Uiso   1.00
H219   H     0.96599   0.72593   0.59622   0.00000  Uiso   1.00
H220   H     0.13446   0.24075   0.33348   0.00000  Uiso   1.00
H221   H     0.33423   0.81246   0.26387   0.00000  Uiso   1.00
O222   O     0.78205   0.69605   0.52767   0.00000  Uiso   1.00
O223   O     0.00308   0.05952   0.18296   0.00000  Uiso   1.00
O224   O     0.26517   0.80958   0.09163   0.00000  Uiso   1.00
N225   N     0.78057   0.60763   0.38269   0.00000  Uiso   1.00
N226   N     0.93807   0.15401   0.13705   0.00000  Uiso   1.00
N227   N     0.12484   0.68849   0.07196   0.00000  Uiso   1.00
N228   N     0.91846   0.68437   0.52306   0.00000  Uiso   1.00
N229   N     0.07596   0.23075   0.27742   0.00000  Uiso   1.00
N230   N     0.26273   0.76523   0.21233   0.00000  Uiso   1.00
C231   C     0.18486   0.93569   0.47668   0.00000  Uiso   1.00
C232   C     0.27369   0.92665   0.53153   0.00000  Uiso   1.00
C233   C     0.27018   0.84224   0.53490   0.00000  Uiso   1.00
C234   C     0.35963   0.84902   0.58908   0.00000  Uiso   1.00
C235   C     0.48393   0.82157   0.66676   0.00000  Uiso   1.00
C236   C     0.20599   0.97004   0.40652   0.00000  Uiso   1.00
C237   C     0.14554   0.92212   0.30478   0.00000  Uiso   1.00
C238   C     0.17799   0.96544   0.25373   0.00000  Uiso   1.00
C239   C     0.19714   0.00540   0.13733   0.00000  Uiso   1.00
C240   C     0.18804   0.02150   0.55381   0.00000  Uiso   1.00
C241   C     0.11250   0.01685   0.57590   0.00000  Uiso   1.00
C242   C     0.12983   0.10351   0.64884   0.00000  Uiso   1.00
C243   C     0.12112   0.22335   0.76113   0.00000  Uiso   1.00
C244   C     0.34996   0.09784   0.56691   0.00000  Uiso   1.00
C245   C     0.36337   0.01472   0.58054   0.00000  Uiso   1.00
C246   C     0.45285   0.02164   0.63474   0.00000  Uiso   1.00
C247   C     0.44947   0.93725   0.63819   0.00000  Uiso   1.00
C248   C     0.29566   0.05811   0.45553   0.00000  Uiso   1.00
C249   C     0.32821   0.10152   0.40462   0.00000  Uiso   1.00
C250   C     0.26783   0.05367   0.30283   0.00000  Uiso   1.00
C251   C     0.27772   0.10957   0.60283   0.00000  Uiso   1.00
C252   C     0.29517   0.19625   0.67574   0.00000  Uiso   1.00
C253   C     0.21967   0.19174   0.69794   0.00000  Uiso   1.00
H254   H     0.11504   0.86713   0.43851   0.00000  Uiso   1.00
H255   H     0.20077   0.77409   0.49695   0.00000  Uiso   1.00
H256   H     0.07615   0.85397   0.26687   0.00000  Uiso   1.00
H257   H     0.04311   0.94869   0.53795   0.00000  Uiso   1.00
H258   H     0.33536   0.70978   0.58333   0.00000  Uiso   1.00
H259   H     0.07257   0.87822   0.09819   0.00000  Uiso   1.00
H260   H     0.00291   0.07795   0.66982   0.00000  Uiso   1.00
H261   H     0.41978   0.16641   0.60507   0.00000  Uiso   1.00
H262   H     0.52223   0.08980   0.67266   0.00000  Uiso   1.00
H263   H     0.39761   0.16968   0.44257   0.00000  Uiso   1.00
H264   H     0.36458   0.26439   0.71365   0.00000  Uiso   1.00
H265   H     0.59627   0.96602   0.72593   0.00000  Uiso   1.00
H266   H     0.33348   0.13446   0.24080   0.00000  Uiso   1.00
H267   H     0.26382   0.33419   0.81242   0.00000  Uiso   1.00
O268   O     0.52772   0.78209   0.69606   0.00000  Uiso   1.00
O269   O     0.18293   0.00309   0.05958   0.00000  Uiso   1.00
O270   O     0.09155   0.26513   0.80954   0.00000  Uiso   1.00
N271   N     0.38270   0.78060   0.60763   0.00000  Uiso   1.00
N272   N     0.13702   0.93808   0.15406   0.00000  Uiso   1.00
N273   N     0.07188   0.12482   0.68846   0.00000  Uiso   1.00
N274   N     0.52310   0.91848   0.68437   0.00000  Uiso   1.00
N275   N     0.27741   0.07596   0.23079   0.00000  Uiso   1.00
N276   N     0.21228   0.26270   0.76519   0.00000  Uiso   1.00
