data_job_03526
_audit_creation_date              2018-12-19
_audit_creation_method            'Materials Studio'
_symmetry_space_group_name_H-M    'P1'
_symmetry_Int_Tables_number       1
_symmetry_cell_setting            triclinic
loop_
_symmetry_equiv_pos_as_xyz
  x,y,z
_cell_length_a                    15.4049
_cell_length_b                    19.8514
_cell_length_c                    36.2592
_cell_angle_alpha                 90.0000
_cell_angle_beta                  124.5893
_cell_angle_gamma                 90.0000
loop_
_atom_site_label
_atom_site_type_symbol
_atom_site_fract_x
_atom_site_fract_y
_atom_site_fract_z
_atom_site_U_iso_or_equiv
_atom_site_adp_type
_atom_site_occupancy
C1     C     0.03051   0.78411   0.10690   0.00000  Uiso   1.00
C2     C     0.11751   0.75539   0.15229   0.00000  Uiso   1.00
C3     C     0.20513   0.71993   0.16123   0.00000  Uiso   1.00
C4     C     0.27565   0.69787   0.20491   0.00000  Uiso   1.00
C5     C     0.41324   0.65127   0.27029   0.00000  Uiso   1.00
C6     C     0.92762   0.75408   0.09635   0.00000  Uiso   1.00
C7     C     0.85557   0.71753   0.05825   0.00000  Uiso   1.00
C8     C     0.76624   0.69437   0.05484   0.00000  Uiso   1.00
C9     C     0.60898   0.64579   0.03335   0.00000  Uiso   1.00
C10    C     0.02544   0.85920   0.11435   0.00000  Uiso   1.00
C11    C     0.03562   0.91105   0.09138   0.00000  Uiso   1.00
C12    C     0.02862   0.97639   0.10312   0.00000  Uiso   1.00
C13    C     0.02325   0.09103   0.10958   0.00000  Uiso   1.00
C14    C     0.99994   0.80798   0.16861   0.00000  Uiso   1.00
C15    C     0.10090   0.76835   0.18581   0.00000  Uiso   1.00
C16    C     0.17131   0.74634   0.22949   0.00000  Uiso   1.00
C17    C     0.25903   0.71085   0.23849   0.00000  Uiso   1.00
C18    C     0.91101   0.76704   0.12986   0.00000  Uiso   1.00
C19    C     0.82176   0.74394   0.12652   0.00000  Uiso   1.00
C20    C     0.74960   0.70736   0.08842   0.00000  Uiso   1.00
C21    C     0.00884   0.87217   0.14787   0.00000  Uiso   1.00
C22    C     0.00181   0.93745   0.15965   0.00000  Uiso   1.00
C23    C     0.01199   0.98938   0.13670   0.00000  Uiso   1.00
H24    H     0.04342   0.77402   0.08081   0.00000  Uiso   1.00
H25    H     0.21794   0.70991   0.13528   0.00000  Uiso   1.00
H26    H     0.86844   0.70751   0.03232   0.00000  Uiso   1.00
H27    H     0.04847   0.90099   0.06544   0.00000  Uiso   1.00
H28    H     0.40409   0.64453   0.21044   0.00000  Uiso   1.00
H29    H     0.66712   0.63950   0.99333   0.00000  Uiso   1.00
H30    H     0.04674   0.04749   0.06319   0.00000  Uiso   1.00
H31    H     0.98701   0.81807   0.19470   0.00000  Uiso   1.00
H32    H     0.15845   0.75638   0.25542   0.00000  Uiso   1.00
H33    H     0.80893   0.75398   0.15246   0.00000  Uiso   1.00
H34    H     0.98896   0.94746   0.18558   0.00000  Uiso   1.00
H35    H     0.35580   0.68224   0.30796   0.00000  Uiso   1.00
H36    H     0.61882   0.67721   0.09084   0.00000  Uiso   1.00
H37    H     0.99845   0.08520   0.16070   0.00000  Uiso   1.00
O38    O     0.49372   0.62199   0.29708   0.00000  Uiso   1.00
O39    O     0.52683   0.61540   0.01224   0.00000  Uiso   1.00
O40    O     0.02489   0.15067   0.10389   0.00000  Uiso   1.00
N41    N     0.36921   0.66188   0.22506   0.00000  Uiso   1.00
N42    N     0.68019   0.65717   0.02208   0.00000  Uiso   1.00
N43    N     0.03508   0.03861   0.08738   0.00000  Uiso   1.00
N44    N     0.34322   0.68217   0.27753   0.00000  Uiso   1.00
N45    N     0.65421   0.67746   0.07455   0.00000  Uiso   1.00
N46    N     0.00909   0.05890   0.13985   0.00000  Uiso   1.00
C47    C     0.53051   0.28411   0.10690   0.00000  Uiso   1.00
C48    C     0.61751   0.25539   0.15229   0.00000  Uiso   1.00
C49    C     0.70513   0.21993   0.16123   0.00000  Uiso   1.00
C50    C     0.77565   0.19787   0.20491   0.00000  Uiso   1.00
C51    C     0.91324   0.15127   0.27029   0.00000  Uiso   1.00
C52    C     0.42762   0.25408   0.09635   0.00000  Uiso   1.00
C53    C     0.35557   0.21753   0.05825   0.00000  Uiso   1.00
C54    C     0.26624   0.19437   0.05484   0.00000  Uiso   1.00
C55    C     0.10898   0.14579   0.03335   0.00000  Uiso   1.00
C56    C     0.52544   0.35920   0.11435   0.00000  Uiso   1.00
C57    C     0.53562   0.41105   0.09138   0.00000  Uiso   1.00
C58    C     0.52862   0.47639   0.10312   0.00000  Uiso   1.00
C59    C     0.52325   0.59103   0.10958   0.00000  Uiso   1.00
C60    C     0.49994   0.30798   0.16861   0.00000  Uiso   1.00
C61    C     0.60090   0.26835   0.18581   0.00000  Uiso   1.00
C62    C     0.67131   0.24634   0.22949   0.00000  Uiso   1.00
C63    C     0.75903   0.21085   0.23849   0.00000  Uiso   1.00
C64    C     0.41101   0.26704   0.12986   0.00000  Uiso   1.00
C65    C     0.32176   0.24394   0.12652   0.00000  Uiso   1.00
C66    C     0.24960   0.20736   0.08842   0.00000  Uiso   1.00
C67    C     0.50884   0.37217   0.14787   0.00000  Uiso   1.00
C68    C     0.50181   0.43745   0.15965   0.00000  Uiso   1.00
C69    C     0.51199   0.48938   0.13670   0.00000  Uiso   1.00
H70    H     0.54342   0.27402   0.08081   0.00000  Uiso   1.00
H71    H     0.71794   0.20991   0.13528   0.00000  Uiso   1.00
H72    H     0.36844   0.20751   0.03232   0.00000  Uiso   1.00
H73    H     0.54847   0.40099   0.06544   0.00000  Uiso   1.00
H74    H     0.90409   0.14453   0.21044   0.00000  Uiso   1.00
H75    H     0.16712   0.13950   0.99333   0.00000  Uiso   1.00
H76    H     0.54674   0.54749   0.06319   0.00000  Uiso   1.00
H77    H     0.48701   0.31807   0.19470   0.00000  Uiso   1.00
H78    H     0.65845   0.25638   0.25542   0.00000  Uiso   1.00
H79    H     0.30893   0.25398   0.15246   0.00000  Uiso   1.00
H80    H     0.48896   0.44746   0.18558   0.00000  Uiso   1.00
H81    H     0.85580   0.18224   0.30796   0.00000  Uiso   1.00
H82    H     0.11882   0.17721   0.09084   0.00000  Uiso   1.00
H83    H     0.49845   0.58520   0.16070   0.00000  Uiso   1.00
O84    O     0.99372   0.12199   0.29708   0.00000  Uiso   1.00
O85    O     0.02683   0.11540   0.01224   0.00000  Uiso   1.00
O86    O     0.52489   0.65067   0.10389   0.00000  Uiso   1.00
N87    N     0.86921   0.16188   0.22506   0.00000  Uiso   1.00
N88    N     0.18019   0.15717   0.02208   0.00000  Uiso   1.00
N89    N     0.53508   0.53861   0.08738   0.00000  Uiso   1.00
N90    N     0.84322   0.18217   0.27753   0.00000  Uiso   1.00
N91    N     0.15421   0.17746   0.07455   0.00000  Uiso   1.00
N92    N     0.50909   0.55890   0.13985   0.00000  Uiso   1.00
C93    C     0.96949   0.78411   0.39310   0.00000  Uiso   1.00
C94    C     0.88249   0.75539   0.34771   0.00000  Uiso   1.00
C95    C     0.79487   0.71993   0.33877   0.00000  Uiso   1.00
C96    C     0.72435   0.69787   0.29509   0.00000  Uiso   1.00
C97    C     0.58676   0.65127   0.22971   0.00000  Uiso   1.00
C98    C     0.07238   0.75408   0.40365   0.00000  Uiso   1.00
C99    C     0.14443   0.71753   0.44175   0.00000  Uiso   1.00
C100   C     0.23376   0.69437   0.44516   0.00000  Uiso   1.00
C101   C     0.39102   0.64579   0.46665   0.00000  Uiso   1.00
C102   C     0.97456   0.85920   0.38565   0.00000  Uiso   1.00
C103   C     0.96438   0.91105   0.40862   0.00000  Uiso   1.00
C104   C     0.97138   0.97639   0.39688   0.00000  Uiso   1.00
C105   C     0.97675   0.09103   0.39042   0.00000  Uiso   1.00
C106   C     0.00006   0.80798   0.33139   0.00000  Uiso   1.00
C107   C     0.89910   0.76835   0.31419   0.00000  Uiso   1.00
C108   C     0.82869   0.74634   0.27051   0.00000  Uiso   1.00
C109   C     0.74097   0.71085   0.26151   0.00000  Uiso   1.00
C110   C     0.08899   0.76704   0.37014   0.00000  Uiso   1.00
C111   C     0.17824   0.74394   0.37348   0.00000  Uiso   1.00
C112   C     0.25040   0.70736   0.41158   0.00000  Uiso   1.00
C113   C     0.99116   0.87217   0.35213   0.00000  Uiso   1.00
C114   C     0.99819   0.93745   0.34035   0.00000  Uiso   1.00
C115   C     0.98801   0.98938   0.36330   0.00000  Uiso   1.00
H116   H     0.95658   0.77402   0.41919   0.00000  Uiso   1.00
H117   H     0.78206   0.70991   0.36472   0.00000  Uiso   1.00
H118   H     0.13156   0.70751   0.46768   0.00000  Uiso   1.00
H119   H     0.95153   0.90099   0.43456   0.00000  Uiso   1.00
H120   H     0.59591   0.64453   0.28956   0.00000  Uiso   1.00
H121   H     0.33288   0.63950   0.50667   0.00000  Uiso   1.00
H122   H     0.95326   0.04749   0.43681   0.00000  Uiso   1.00
H123   H     0.01299   0.81807   0.30530   0.00000  Uiso   1.00
H124   H     0.84155   0.75638   0.24458   0.00000  Uiso   1.00
H125   H     0.19107   0.75398   0.34754   0.00000  Uiso   1.00
H126   H     0.01104   0.94746   0.31442   0.00000  Uiso   1.00
H127   H     0.64420   0.68224   0.19204   0.00000  Uiso   1.00
H128   H     0.38118   0.67721   0.40916   0.00000  Uiso   1.00
H129   H     0.00155   0.08520   0.33930   0.00000  Uiso   1.00
O130   O     0.50628   0.62199   0.20292   0.00000  Uiso   1.00
O131   O     0.47317   0.61540   0.48776   0.00000  Uiso   1.00
O132   O     0.97511   0.15067   0.39611   0.00000  Uiso   1.00
N133   N     0.63079   0.66188   0.27494   0.00000  Uiso   1.00
N134   N     0.31981   0.65717   0.47792   0.00000  Uiso   1.00
N135   N     0.96492   0.03861   0.41262   0.00000  Uiso   1.00
N136   N     0.65678   0.68217   0.22247   0.00000  Uiso   1.00
N137   N     0.34579   0.67746   0.42545   0.00000  Uiso   1.00
N138   N     0.99091   0.05890   0.36015   0.00000  Uiso   1.00
C139   C     0.46949   0.28411   0.39310   0.00000  Uiso   1.00
C140   C     0.38249   0.25539   0.34771   0.00000  Uiso   1.00
C141   C     0.29487   0.21993   0.33877   0.00000  Uiso   1.00
C142   C     0.22435   0.19787   0.29509   0.00000  Uiso   1.00
C143   C     0.08676   0.15127   0.22971   0.00000  Uiso   1.00
C144   C     0.57238   0.25408   0.40365   0.00000  Uiso   1.00
C145   C     0.64443   0.21753   0.44175   0.00000  Uiso   1.00
C146   C     0.73376   0.19437   0.44516   0.00000  Uiso   1.00
C147   C     0.89102   0.14579   0.46665   0.00000  Uiso   1.00
C148   C     0.47456   0.35920   0.38565   0.00000  Uiso   1.00
C149   C     0.46438   0.41105   0.40862   0.00000  Uiso   1.00
C150   C     0.47138   0.47639   0.39688   0.00000  Uiso   1.00
C151   C     0.47675   0.59103   0.39042   0.00000  Uiso   1.00
C152   C     0.50006   0.30798   0.33139   0.00000  Uiso   1.00
C153   C     0.39910   0.26835   0.31419   0.00000  Uiso   1.00
C154   C     0.32869   0.24634   0.27051   0.00000  Uiso   1.00
C155   C     0.24097   0.21085   0.26151   0.00000  Uiso   1.00
C156   C     0.58899   0.26704   0.37014   0.00000  Uiso   1.00
C157   C     0.67824   0.24394   0.37348   0.00000  Uiso   1.00
C158   C     0.75040   0.20736   0.41158   0.00000  Uiso   1.00
C159   C     0.49116   0.37217   0.35213   0.00000  Uiso   1.00
C160   C     0.49819   0.43745   0.34035   0.00000  Uiso   1.00
C161   C     0.48801   0.48938   0.36330   0.00000  Uiso   1.00
H162   H     0.45658   0.27402   0.41919   0.00000  Uiso   1.00
H163   H     0.28206   0.20991   0.36472   0.00000  Uiso   1.00
H164   H     0.63156   0.20751   0.46768   0.00000  Uiso   1.00
H165   H     0.45153   0.40099   0.43456   0.00000  Uiso   1.00
H166   H     0.09591   0.14453   0.28956   0.00000  Uiso   1.00
H167   H     0.83288   0.13950   0.50667   0.00000  Uiso   1.00
H168   H     0.45326   0.54749   0.43681   0.00000  Uiso   1.00
H169   H     0.51299   0.31807   0.30530   0.00000  Uiso   1.00
H170   H     0.34155   0.25638   0.24458   0.00000  Uiso   1.00
H171   H     0.69107   0.25398   0.34754   0.00000  Uiso   1.00
H172   H     0.51104   0.44746   0.31442   0.00000  Uiso   1.00
H173   H     0.14420   0.18224   0.19204   0.00000  Uiso   1.00
H174   H     0.88118   0.17721   0.40916   0.00000  Uiso   1.00
H175   H     0.50155   0.58520   0.33930   0.00000  Uiso   1.00
O176   O     0.00628   0.12199   0.20292   0.00000  Uiso   1.00
O177   O     0.97317   0.11540   0.48776   0.00000  Uiso   1.00
O178   O     0.47511   0.65067   0.39611   0.00000  Uiso   1.00
N179   N     0.13079   0.16188   0.27494   0.00000  Uiso   1.00
N180   N     0.81981   0.15717   0.47792   0.00000  Uiso   1.00
N181   N     0.46492   0.53861   0.41262   0.00000  Uiso   1.00
N182   N     0.15678   0.18217   0.22247   0.00000  Uiso   1.00
N183   N     0.84579   0.17746   0.42545   0.00000  Uiso   1.00
N184   N     0.49091   0.55890   0.36015   0.00000  Uiso   1.00
C185   C     0.96949   0.21589   0.89310   0.00000  Uiso   1.00
C186   C     0.88249   0.24461   0.84771   0.00000  Uiso   1.00
C187   C     0.79487   0.28007   0.83877   0.00000  Uiso   1.00
C188   C     0.72435   0.30213   0.79509   0.00000  Uiso   1.00
C189   C     0.58676   0.34873   0.72971   0.00000  Uiso   1.00
C190   C     0.07238   0.24592   0.90365   0.00000  Uiso   1.00
C191   C     0.14443   0.28247   0.94175   0.00000  Uiso   1.00
C192   C     0.23376   0.30563   0.94516   0.00000  Uiso   1.00
C193   C     0.39102   0.35421   0.96665   0.00000  Uiso   1.00
C194   C     0.97456   0.14080   0.88565   0.00000  Uiso   1.00
C195   C     0.96438   0.08895   0.90862   0.00000  Uiso   1.00
C196   C     0.97138   0.02361   0.89688   0.00000  Uiso   1.00
C197   C     0.97675   0.90897   0.89042   0.00000  Uiso   1.00
C198   C     0.00006   0.19202   0.83139   0.00000  Uiso   1.00
C199   C     0.89910   0.23165   0.81419   0.00000  Uiso   1.00
C200   C     0.82869   0.25366   0.77051   0.00000  Uiso   1.00
C201   C     0.74097   0.28915   0.76151   0.00000  Uiso   1.00
C202   C     0.08899   0.23296   0.87014   0.00000  Uiso   1.00
C203   C     0.17824   0.25606   0.87348   0.00000  Uiso   1.00
C204   C     0.25040   0.29264   0.91158   0.00000  Uiso   1.00
C205   C     0.99116   0.12783   0.85213   0.00000  Uiso   1.00
C206   C     0.99819   0.06255   0.84035   0.00000  Uiso   1.00
C207   C     0.98801   0.01062   0.86330   0.00000  Uiso   1.00
H208   H     0.95658   0.22598   0.91919   0.00000  Uiso   1.00
H209   H     0.78206   0.29009   0.86472   0.00000  Uiso   1.00
H210   H     0.13156   0.29249   0.96768   0.00000  Uiso   1.00
H211   H     0.95153   0.09901   0.93456   0.00000  Uiso   1.00
H212   H     0.59591   0.35547   0.78956   0.00000  Uiso   1.00
H213   H     0.33288   0.36050   0.00667   0.00000  Uiso   1.00
H214   H     0.95326   0.95251   0.93681   0.00000  Uiso   1.00
H215   H     0.01299   0.18193   0.80530   0.00000  Uiso   1.00
H216   H     0.84155   0.24362   0.74458   0.00000  Uiso   1.00
H217   H     0.19107   0.24602   0.84754   0.00000  Uiso   1.00
H218   H     0.01104   0.05254   0.81442   0.00000  Uiso   1.00
H219   H     0.64420   0.31776   0.69204   0.00000  Uiso   1.00
H220   H     0.38118   0.32279   0.90916   0.00000  Uiso   1.00
H221   H     0.00155   0.91480   0.83930   0.00000  Uiso   1.00
O222   O     0.50628   0.37801   0.70292   0.00000  Uiso   1.00
O223   O     0.47317   0.38460   0.98776   0.00000  Uiso   1.00
O224   O     0.97511   0.84933   0.89611   0.00000  Uiso   1.00
N225   N     0.63079   0.33812   0.77494   0.00000  Uiso   1.00
N226   N     0.31981   0.34283   0.97792   0.00000  Uiso   1.00
N227   N     0.96492   0.96139   0.91262   0.00000  Uiso   1.00
N228   N     0.65678   0.31783   0.72247   0.00000  Uiso   1.00
N229   N     0.34579   0.32254   0.92545   0.00000  Uiso   1.00
N230   N     0.99091   0.94110   0.86015   0.00000  Uiso   1.00
C231   C     0.46949   0.71589   0.89310   0.00000  Uiso   1.00
C232   C     0.38249   0.74461   0.84771   0.00000  Uiso   1.00
C233   C     0.29487   0.78007   0.83877   0.00000  Uiso   1.00
C234   C     0.22435   0.80213   0.79509   0.00000  Uiso   1.00
C235   C     0.08676   0.84873   0.72971   0.00000  Uiso   1.00
C236   C     0.57238   0.74592   0.90365   0.00000  Uiso   1.00
C237   C     0.64443   0.78247   0.94175   0.00000  Uiso   1.00
C238   C     0.73376   0.80563   0.94516   0.00000  Uiso   1.00
C239   C     0.89102   0.85421   0.96665   0.00000  Uiso   1.00
C240   C     0.47456   0.64080   0.88565   0.00000  Uiso   1.00
C241   C     0.46438   0.58895   0.90862   0.00000  Uiso   1.00
C242   C     0.47138   0.52361   0.89688   0.00000  Uiso   1.00
C243   C     0.47675   0.40897   0.89042   0.00000  Uiso   1.00
C244   C     0.50006   0.69202   0.83139   0.00000  Uiso   1.00
C245   C     0.39910   0.73165   0.81419   0.00000  Uiso   1.00
C246   C     0.32869   0.75366   0.77051   0.00000  Uiso   1.00
C247   C     0.24097   0.78915   0.76151   0.00000  Uiso   1.00
C248   C     0.58899   0.73296   0.87014   0.00000  Uiso   1.00
C249   C     0.67824   0.75606   0.87348   0.00000  Uiso   1.00
C250   C     0.75040   0.79264   0.91158   0.00000  Uiso   1.00
C251   C     0.49116   0.62783   0.85213   0.00000  Uiso   1.00
C252   C     0.49819   0.56255   0.84035   0.00000  Uiso   1.00
C253   C     0.48801   0.51062   0.86330   0.00000  Uiso   1.00
H254   H     0.45658   0.72598   0.91919   0.00000  Uiso   1.00
H255   H     0.28206   0.79009   0.86472   0.00000  Uiso   1.00
H256   H     0.63156   0.79249   0.96768   0.00000  Uiso   1.00
H257   H     0.45153   0.59901   0.93456   0.00000  Uiso   1.00
H258   H     0.09591   0.85547   0.78956   0.00000  Uiso   1.00
H259   H     0.83288   0.86050   0.00667   0.00000  Uiso   1.00
H260   H     0.45326   0.45251   0.93681   0.00000  Uiso   1.00
H261   H     0.51299   0.68193   0.80530   0.00000  Uiso   1.00
H262   H     0.34155   0.74362   0.74458   0.00000  Uiso   1.00
H263   H     0.69107   0.74602   0.84754   0.00000  Uiso   1.00
H264   H     0.51104   0.55254   0.81442   0.00000  Uiso   1.00
H265   H     0.14420   0.81776   0.69204   0.00000  Uiso   1.00
H266   H     0.88118   0.82279   0.90916   0.00000  Uiso   1.00
H267   H     0.50155   0.41480   0.83930   0.00000  Uiso   1.00
O268   O     0.00628   0.87801   0.70292   0.00000  Uiso   1.00
O269   O     0.97317   0.88460   0.98776   0.00000  Uiso   1.00
O270   O     0.47511   0.34933   0.89611   0.00000  Uiso   1.00
N271   N     0.13079   0.83812   0.77494   0.00000  Uiso   1.00
N272   N     0.81981   0.84283   0.97792   0.00000  Uiso   1.00
N273   N     0.46492   0.46139   0.91262   0.00000  Uiso   1.00
N274   N     0.15678   0.81783   0.72247   0.00000  Uiso   1.00
N275   N     0.84579   0.82254   0.92545   0.00000  Uiso   1.00
N276   N     0.49091   0.44110   0.86015   0.00000  Uiso   1.00
C277   C     0.03051   0.21589   0.60690   0.00000  Uiso   1.00
C278   C     0.11751   0.24461   0.65229   0.00000  Uiso   1.00
C279   C     0.20513   0.28007   0.66123   0.00000  Uiso   1.00
C280   C     0.27565   0.30213   0.70491   0.00000  Uiso   1.00
C281   C     0.41324   0.34873   0.77029   0.00000  Uiso   1.00
C282   C     0.92762   0.24592   0.59635   0.00000  Uiso   1.00
C283   C     0.85557   0.28247   0.55825   0.00000  Uiso   1.00
C284   C     0.76624   0.30563   0.55484   0.00000  Uiso   1.00
C285   C     0.60898   0.35421   0.53335   0.00000  Uiso   1.00
C286   C     0.02544   0.14080   0.61435   0.00000  Uiso   1.00
C287   C     0.03562   0.08895   0.59138   0.00000  Uiso   1.00
C288   C     0.02862   0.02361   0.60312   0.00000  Uiso   1.00
C289   C     0.02325   0.90897   0.60958   0.00000  Uiso   1.00
C290   C     0.99994   0.19202   0.66861   0.00000  Uiso   1.00
C291   C     0.10090   0.23165   0.68581   0.00000  Uiso   1.00
C292   C     0.17131   0.25366   0.72949   0.00000  Uiso   1.00
C293   C     0.25903   0.28915   0.73849   0.00000  Uiso   1.00
C294   C     0.91101   0.23296   0.62986   0.00000  Uiso   1.00
C295   C     0.82176   0.25606   0.62652   0.00000  Uiso   1.00
C296   C     0.74960   0.29264   0.58842   0.00000  Uiso   1.00
C297   C     0.00884   0.12783   0.64787   0.00000  Uiso   1.00
C298   C     0.00181   0.06255   0.65965   0.00000  Uiso   1.00
C299   C     0.01199   0.01062   0.63670   0.00000  Uiso   1.00
H300   H     0.04342   0.22598   0.58081   0.00000  Uiso   1.00
H301   H     0.21794   0.29009   0.63528   0.00000  Uiso   1.00
H302   H     0.86844   0.29249   0.53232   0.00000  Uiso   1.00
H303   H     0.04847   0.09901   0.56544   0.00000  Uiso   1.00
H304   H     0.40409   0.35547   0.71044   0.00000  Uiso   1.00
H305   H     0.66712   0.36050   0.49333   0.00000  Uiso   1.00
H306   H     0.04674   0.95251   0.56319   0.00000  Uiso   1.00
H307   H     0.98701   0.18193   0.69470   0.00000  Uiso   1.00
H308   H     0.15845   0.24362   0.75542   0.00000  Uiso   1.00
H309   H     0.80893   0.24602   0.65246   0.00000  Uiso   1.00
H310   H     0.98896   0.05254   0.68558   0.00000  Uiso   1.00
H311   H     0.35580   0.31776   0.80796   0.00000  Uiso   1.00
H312   H     0.61882   0.32279   0.59084   0.00000  Uiso   1.00
H313   H     0.99845   0.91480   0.66070   0.00000  Uiso   1.00
O314   O     0.49372   0.37801   0.79708   0.00000  Uiso   1.00
O315   O     0.52683   0.38460   0.51224   0.00000  Uiso   1.00
O316   O     0.02489   0.84933   0.60389   0.00000  Uiso   1.00
N317   N     0.36921   0.33812   0.72506   0.00000  Uiso   1.00
N318   N     0.68019   0.34283   0.52208   0.00000  Uiso   1.00
N319   N     0.03508   0.96139   0.58738   0.00000  Uiso   1.00
N320   N     0.34322   0.31783   0.77753   0.00000  Uiso   1.00
N321   N     0.65421   0.32254   0.57455   0.00000  Uiso   1.00
N322   N     0.00909   0.94110   0.63985   0.00000  Uiso   1.00
C323   C     0.53051   0.71589   0.60690   0.00000  Uiso   1.00
C324   C     0.61751   0.74461   0.65229   0.00000  Uiso   1.00
C325   C     0.70513   0.78007   0.66123   0.00000  Uiso   1.00
C326   C     0.77565   0.80213   0.70491   0.00000  Uiso   1.00
C327   C     0.91324   0.84873   0.77029   0.00000  Uiso   1.00
C328   C     0.42762   0.74592   0.59635   0.00000  Uiso   1.00
C329   C     0.35557   0.78247   0.55825   0.00000  Uiso   1.00
C330   C     0.26624   0.80563   0.55484   0.00000  Uiso   1.00
C331   C     0.10898   0.85421   0.53335   0.00000  Uiso   1.00
C332   C     0.52544   0.64080   0.61435   0.00000  Uiso   1.00
C333   C     0.53562   0.58895   0.59138   0.00000  Uiso   1.00
C334   C     0.52862   0.52361   0.60312   0.00000  Uiso   1.00
C335   C     0.52325   0.40897   0.60958   0.00000  Uiso   1.00
C336   C     0.49994   0.69202   0.66861   0.00000  Uiso   1.00
C337   C     0.60090   0.73165   0.68581   0.00000  Uiso   1.00
C338   C     0.67131   0.75366   0.72949   0.00000  Uiso   1.00
C339   C     0.75903   0.78915   0.73849   0.00000  Uiso   1.00
C340   C     0.41101   0.73296   0.62986   0.00000  Uiso   1.00
C341   C     0.32176   0.75606   0.62652   0.00000  Uiso   1.00
C342   C     0.24960   0.79264   0.58842   0.00000  Uiso   1.00
C343   C     0.50884   0.62783   0.64787   0.00000  Uiso   1.00
C344   C     0.50181   0.56255   0.65965   0.00000  Uiso   1.00
C345   C     0.51199   0.51062   0.63670   0.00000  Uiso   1.00
H346   H     0.54342   0.72598   0.58081   0.00000  Uiso   1.00
H347   H     0.71794   0.79009   0.63528   0.00000  Uiso   1.00
H348   H     0.36844   0.79249   0.53232   0.00000  Uiso   1.00
H349   H     0.54847   0.59901   0.56544   0.00000  Uiso   1.00
H350   H     0.90409   0.85547   0.71044   0.00000  Uiso   1.00
H351   H     0.16712   0.86050   0.49333   0.00000  Uiso   1.00
H352   H     0.54674   0.45251   0.56319   0.00000  Uiso   1.00
H353   H     0.48701   0.68193   0.69470   0.00000  Uiso   1.00
H354   H     0.65845   0.74362   0.75542   0.00000  Uiso   1.00
H355   H     0.30893   0.74602   0.65246   0.00000  Uiso   1.00
H356   H     0.48896   0.55254   0.68558   0.00000  Uiso   1.00
H357   H     0.85580   0.81776   0.80796   0.00000  Uiso   1.00
H358   H     0.11882   0.82279   0.59084   0.00000  Uiso   1.00
H359   H     0.49845   0.41480   0.66070   0.00000  Uiso   1.00
O360   O     0.99372   0.87801   0.79708   0.00000  Uiso   1.00
O361   O     0.02683   0.88460   0.51224   0.00000  Uiso   1.00
O362   O     0.52489   0.34933   0.60389   0.00000  Uiso   1.00
N363   N     0.86921   0.83812   0.72506   0.00000  Uiso   1.00
N364   N     0.18019   0.84283   0.52208   0.00000  Uiso   1.00
N365   N     0.53508   0.46139   0.58738   0.00000  Uiso   1.00
N366   N     0.84322   0.81783   0.77753   0.00000  Uiso   1.00
N367   N     0.15421   0.82254   0.57455   0.00000  Uiso   1.00
N368   N     0.50909   0.44110   0.63985   0.00000  Uiso   1.00
