data_job_01507
_audit_creation_date              2018-12-19
_audit_creation_method            'Materials Studio'
_symmetry_space_group_name_H-M    'P1'
_symmetry_Int_Tables_number       1
_symmetry_cell_setting            triclinic
loop_
_symmetry_equiv_pos_as_xyz
  x,y,z
_cell_length_a                    32.0613
_cell_length_b                    32.0613
_cell_length_c                    7.1949
_cell_angle_alpha                 90.0000
_cell_angle_beta                  90.0000
_cell_angle_gamma                 120.0000
loop_
_atom_site_label
_atom_site_type_symbol
_atom_site_fract_x
_atom_site_fract_y
_atom_site_fract_z
_atom_site_U_iso_or_equiv
_atom_site_adp_type
_atom_site_occupancy
C1     C     0.48301   0.16762   0.14388   0.00000  Uiso   1.00
C2     C     0.46376   0.20089   0.09035   0.00000  Uiso   1.00
C3     C     0.45094   0.22593   0.21333   0.00000  Uiso   1.00
C4     C     0.43410   0.25448   0.13678   0.00000  Uiso   1.00
C5     C     0.40478   0.30562   0.08297   0.00000  Uiso   1.00
C6     C     0.44919   0.11912   0.05403   0.00000  Uiso   1.00
C7     C     0.42413   0.07540   0.14647   0.00000  Uiso   1.00
C8     C     0.39503   0.03512   0.03933   0.00000  Uiso   1.00
C9     C     0.34312   0.95929   0.92911   0.00000  Uiso   1.00
C10    C     0.53118   0.18708   0.04423   0.00000  Uiso   1.00
C11    C     0.57506   0.20050   0.12841   0.00000  Uiso   1.00
C12    C     0.61499   0.21743   0.01301   0.00000  Uiso   1.00
C13    C     0.69038   0.24712   0.88757   0.00000  Uiso   1.00
C14    C     0.47588   0.17380   0.78924   0.00000  Uiso   1.00
C15    C     0.45989   0.20425   0.89773   0.00000  Uiso   1.00
C16    C     0.44306   0.23277   0.82096   0.00000  Uiso   1.00
C17    C     0.43022   0.25785   0.94381   0.00000  Uiso   1.00
C18    C     0.44532   0.12248   0.86141   0.00000  Uiso   1.00
C19    C     0.41625   0.08225   0.75411   0.00000  Uiso   1.00
C20    C     0.39115   0.03849   0.84636   0.00000  Uiso   1.00
C21    C     0.52731   0.19044   0.85160   0.00000  Uiso   1.00
C22    C     0.56718   0.20735   0.73605   0.00000  Uiso   1.00
C23    C     0.61111   0.22079   0.82004   0.00000  Uiso   1.00
H24    H     0.48602   0.16500   0.29384   0.00000  Uiso   1.00
H25    H     0.45394   0.22331   0.36239   0.00000  Uiso   1.00
H26    H     0.42714   0.07281   0.29553   0.00000  Uiso   1.00
H27    H     0.57804   0.19789   0.27748   0.00000  Uiso   1.00
H28    H     0.41665   0.28944   0.35344   0.00000  Uiso   1.00
H29    H     0.36016   0.97209   0.21246   0.00000  Uiso   1.00
H30    H     0.67836   0.23585   0.17439   0.00000  Uiso   1.00
H31    H     0.47287   0.17642   0.63927   0.00000  Uiso   1.00
H32    H     0.44007   0.23537   0.67189   0.00000  Uiso   1.00
H33    H     0.41327   0.08486   0.60504   0.00000  Uiso   1.00
H34    H     0.56417   0.20994   0.58699   0.00000  Uiso   1.00
H35    H     0.40539   0.29922   0.79301   0.00000  Uiso   1.00
H36    H     0.34889   0.98187   0.65203   0.00000  Uiso   1.00
H37    H     0.66710   0.24563   0.61396   0.00000  Uiso   1.00
O38    O     0.38967   0.33289   0.10650   0.00000  Uiso   1.00
O39    O     0.31555   0.91654   0.92154   0.00000  Uiso   1.00
O40    O     0.73303   0.26258   0.87160   0.00000  Uiso   1.00
N41    N     0.41851   0.28366   0.21707   0.00000  Uiso   1.00
N42    N     0.36569   0.98696   0.08526   0.00000  Uiso   1.00
N43    N     0.66318   0.23354   0.04967   0.00000  Uiso   1.00
N44    N     0.41245   0.28892   0.91550   0.00000  Uiso   1.00
N45    N     0.35963   0.99222   0.78370   0.00000  Uiso   1.00
N46    N     0.65712   0.23880   0.74810   0.00000  Uiso   1.00
C47    C     0.83238   0.31539   0.47721   0.00000  Uiso   1.00
C48    C     0.79911   0.26287   0.42369   0.00000  Uiso   1.00
C49    C     0.77407   0.22502   0.54666   0.00000  Uiso   1.00
C50    C     0.74552   0.17962   0.47011   0.00000  Uiso   1.00
C51    C     0.69438   0.09916   0.41630   0.00000  Uiso   1.00
C52    C     0.88088   0.33007   0.38736   0.00000  Uiso   1.00
C53    C     0.92460   0.34873   0.47980   0.00000  Uiso   1.00
C54    C     0.96488   0.35991   0.37266   0.00000  Uiso   1.00
C55    C     0.04071   0.38383   0.26244   0.00000  Uiso   1.00
C56    C     0.81292   0.34410   0.37756   0.00000  Uiso   1.00
C57    C     0.79950   0.37456   0.46175   0.00000  Uiso   1.00
C58    C     0.78257   0.39756   0.34634   0.00000  Uiso   1.00
C59    C     0.75288   0.44325   0.22091   0.00000  Uiso   1.00
C60    C     0.82620   0.30208   0.12258   0.00000  Uiso   1.00
C61    C     0.79575   0.25564   0.23106   0.00000  Uiso   1.00
C62    C     0.76723   0.21029   0.15430   0.00000  Uiso   1.00
C63    C     0.74215   0.17237   0.27714   0.00000  Uiso   1.00
C64    C     0.87752   0.32284   0.19474   0.00000  Uiso   1.00
C65    C     0.91775   0.33400   0.08744   0.00000  Uiso   1.00
C66    C     0.96151   0.35267   0.17969   0.00000  Uiso   1.00
C67    C     0.80956   0.33687   0.18493   0.00000  Uiso   1.00
C68    C     0.79265   0.35983   0.06938   0.00000  Uiso   1.00
C69    C     0.77921   0.39032   0.15337   0.00000  Uiso   1.00
H70    H     0.83500   0.32102   0.62718   0.00000  Uiso   1.00
H71    H     0.77669   0.23063   0.69573   0.00000  Uiso   1.00
H72    H     0.92719   0.35433   0.62887   0.00000  Uiso   1.00
H73    H     0.80211   0.38015   0.61081   0.00000  Uiso   1.00
H74    H     0.71056   0.12722   0.68678   0.00000  Uiso   1.00
H75    H     0.02791   0.38806   0.54580   0.00000  Uiso   1.00
H76    H     0.76415   0.44252   0.50773   0.00000  Uiso   1.00
H77    H     0.82358   0.29645   0.97260   0.00000  Uiso   1.00
H78    H     0.76463   0.20470   0.00523   0.00000  Uiso   1.00
H79    H     0.91514   0.32840   0.93838   0.00000  Uiso   1.00
H80    H     0.79006   0.35422   0.92032   0.00000  Uiso   1.00
H81    H     0.70078   0.10617   0.12634   0.00000  Uiso   1.00
H82    H     0.01813   0.36702   0.98537   0.00000  Uiso   1.00
H83    H     0.75437   0.42147   0.94729   0.00000  Uiso   1.00
O84    O     0.66711   0.05678   0.43983   0.00000  Uiso   1.00
O85    O     0.08346   0.39901   0.25487   0.00000  Uiso   1.00
O86    O     0.73742   0.47045   0.20493   0.00000  Uiso   1.00
N87    N     0.71634   0.13486   0.55040   0.00000  Uiso   1.00
N88    N     0.01304   0.37873   0.41860   0.00000  Uiso   1.00
N89    N     0.76646   0.42964   0.38300   0.00000  Uiso   1.00
N90    N     0.71108   0.12353   0.24883   0.00000  Uiso   1.00
N91    N     0.00778   0.36740   0.11703   0.00000  Uiso   1.00
N92    N     0.76120   0.41832   0.08144   0.00000  Uiso   1.00
C93    C     0.68461   0.51699   0.81055   0.00000  Uiso   1.00
C94    C     0.73713   0.53624   0.75702   0.00000  Uiso   1.00
C95    C     0.77498   0.54906   0.88000   0.00000  Uiso   1.00
C96    C     0.82038   0.56590   0.80344   0.00000  Uiso   1.00
C97    C     0.90084   0.59522   0.74963   0.00000  Uiso   1.00
C98    C     0.66993   0.55081   0.72070   0.00000  Uiso   1.00
C99    C     0.65127   0.57587   0.81314   0.00000  Uiso   1.00
C100   C     0.64009   0.60497   0.70599   0.00000  Uiso   1.00
C101   C     0.61617   0.65688   0.59578   0.00000  Uiso   1.00
C102   C     0.65590   0.46882   0.71090   0.00000  Uiso   1.00
C103   C     0.62544   0.42494   0.79508   0.00000  Uiso   1.00
C104   C     0.60244   0.38501   0.67968   0.00000  Uiso   1.00
C105   C     0.55675   0.30962   0.55424   0.00000  Uiso   1.00
C106   C     0.69792   0.52412   0.45591   0.00000  Uiso   1.00
C107   C     0.74436   0.54011   0.56439   0.00000  Uiso   1.00
C108   C     0.78971   0.55694   0.48763   0.00000  Uiso   1.00
C109   C     0.82763   0.56978   0.61047   0.00000  Uiso   1.00
C110   C     0.67716   0.55468   0.52808   0.00000  Uiso   1.00
C111   C     0.66600   0.58375   0.42077   0.00000  Uiso   1.00
C112   C     0.64733   0.60885   0.51302   0.00000  Uiso   1.00
C113   C     0.66313   0.47269   0.51827   0.00000  Uiso   1.00
C114   C     0.64017   0.43282   0.40271   0.00000  Uiso   1.00
C115   C     0.60968   0.38889   0.48671   0.00000  Uiso   1.00
H116   H     0.67898   0.51398   0.96051   0.00000  Uiso   1.00
H117   H     0.76937   0.54606   0.02906   0.00000  Uiso   1.00
H118   H     0.64567   0.57286   0.96220   0.00000  Uiso   1.00
H119   H     0.61985   0.42196   0.94415   0.00000  Uiso   1.00
H120   H     0.87278   0.58335   0.02011   0.00000  Uiso   1.00
H121   H     0.61194   0.63984   0.87913   0.00000  Uiso   1.00
H122   H     0.55748   0.32164   0.84106   0.00000  Uiso   1.00
H123   H     0.70355   0.52713   0.30593   0.00000  Uiso   1.00
H124   H     0.79530   0.55993   0.33856   0.00000  Uiso   1.00
H125   H     0.67160   0.58673   0.27171   0.00000  Uiso   1.00
H126   H     0.64578   0.43583   0.25366   0.00000  Uiso   1.00
H127   H     0.89383   0.59461   0.45968   0.00000  Uiso   1.00
H128   H     0.63298   0.65111   0.31870   0.00000  Uiso   1.00
H129   H     0.57853   0.33290   0.28063   0.00000  Uiso   1.00
O130   O     0.94322   0.61033   0.77317   0.00000  Uiso   1.00
O131   O     0.60099   0.68445   0.58821   0.00000  Uiso   1.00
O132   O     0.52955   0.26697   0.53826   0.00000  Uiso   1.00
N133   N     0.86514   0.58149   0.88373   0.00000  Uiso   1.00
N134   N     0.62127   0.63431   0.75193   0.00000  Uiso   1.00
N135   N     0.57036   0.33682   0.71633   0.00000  Uiso   1.00
N136   N     0.87647   0.58755   0.58217   0.00000  Uiso   1.00
N137   N     0.63260   0.64037   0.45037   0.00000  Uiso   1.00
N138   N     0.58168   0.34288   0.41477   0.00000  Uiso   1.00
C139   C     0.51699   0.83238   0.14388   0.00000  Uiso   1.00
C140   C     0.53624   0.79911   0.09035   0.00000  Uiso   1.00
C141   C     0.54906   0.77407   0.21333   0.00000  Uiso   1.00
C142   C     0.56590   0.74552   0.13678   0.00000  Uiso   1.00
C143   C     0.59522   0.69438   0.08297   0.00000  Uiso   1.00
C144   C     0.55081   0.88088   0.05403   0.00000  Uiso   1.00
C145   C     0.57587   0.92460   0.14647   0.00000  Uiso   1.00
C146   C     0.60497   0.96488   0.03933   0.00000  Uiso   1.00
C147   C     0.65688   0.04071   0.92911   0.00000  Uiso   1.00
C148   C     0.46882   0.81292   0.04423   0.00000  Uiso   1.00
C149   C     0.42494   0.79950   0.12841   0.00000  Uiso   1.00
C150   C     0.38501   0.78257   0.01301   0.00000  Uiso   1.00
C151   C     0.30962   0.75288   0.88757   0.00000  Uiso   1.00
C152   C     0.52412   0.82620   0.78924   0.00000  Uiso   1.00
C153   C     0.54011   0.79575   0.89773   0.00000  Uiso   1.00
C154   C     0.55694   0.76723   0.82096   0.00000  Uiso   1.00
C155   C     0.56978   0.74215   0.94381   0.00000  Uiso   1.00
C156   C     0.55468   0.87752   0.86141   0.00000  Uiso   1.00
C157   C     0.58375   0.91775   0.75411   0.00000  Uiso   1.00
C158   C     0.60885   0.96151   0.84636   0.00000  Uiso   1.00
C159   C     0.47269   0.80956   0.85160   0.00000  Uiso   1.00
C160   C     0.43282   0.79265   0.73605   0.00000  Uiso   1.00
C161   C     0.38889   0.77921   0.82004   0.00000  Uiso   1.00
H162   H     0.51398   0.83500   0.29384   0.00000  Uiso   1.00
H163   H     0.54606   0.77669   0.36239   0.00000  Uiso   1.00
H164   H     0.57286   0.92719   0.29553   0.00000  Uiso   1.00
H165   H     0.42196   0.80211   0.27748   0.00000  Uiso   1.00
H166   H     0.58335   0.71056   0.35344   0.00000  Uiso   1.00
H167   H     0.63984   0.02791   0.21246   0.00000  Uiso   1.00
H168   H     0.32164   0.76415   0.17439   0.00000  Uiso   1.00
H169   H     0.52713   0.82358   0.63927   0.00000  Uiso   1.00
H170   H     0.55993   0.76463   0.67189   0.00000  Uiso   1.00
H171   H     0.58673   0.91514   0.60504   0.00000  Uiso   1.00
H172   H     0.43583   0.79006   0.58699   0.00000  Uiso   1.00
H173   H     0.59461   0.70078   0.79301   0.00000  Uiso   1.00
H174   H     0.65111   0.01813   0.65203   0.00000  Uiso   1.00
H175   H     0.33290   0.75437   0.61396   0.00000  Uiso   1.00
O176   O     0.61033   0.66711   0.10650   0.00000  Uiso   1.00
O177   O     0.68445   0.08346   0.92154   0.00000  Uiso   1.00
O178   O     0.26697   0.73742   0.87160   0.00000  Uiso   1.00
N179   N     0.58149   0.71634   0.21707   0.00000  Uiso   1.00
N180   N     0.63431   0.01304   0.08526   0.00000  Uiso   1.00
N181   N     0.33682   0.76646   0.04967   0.00000  Uiso   1.00
N182   N     0.58755   0.71108   0.91550   0.00000  Uiso   1.00
N183   N     0.64037   0.00778   0.78370   0.00000  Uiso   1.00
N184   N     0.34288   0.76120   0.74810   0.00000  Uiso   1.00
C185   C     0.16762   0.68461   0.47721   0.00000  Uiso   1.00
C186   C     0.20089   0.73713   0.42369   0.00000  Uiso   1.00
C187   C     0.22593   0.77498   0.54666   0.00000  Uiso   1.00
C188   C     0.25448   0.82038   0.47011   0.00000  Uiso   1.00
C189   C     0.30562   0.90084   0.41630   0.00000  Uiso   1.00
C190   C     0.11912   0.66993   0.38736   0.00000  Uiso   1.00
C191   C     0.07540   0.65127   0.47980   0.00000  Uiso   1.00
C192   C     0.03512   0.64009   0.37266   0.00000  Uiso   1.00
C193   C     0.95929   0.61617   0.26244   0.00000  Uiso   1.00
C194   C     0.18708   0.65590   0.37756   0.00000  Uiso   1.00
C195   C     0.20050   0.62544   0.46175   0.00000  Uiso   1.00
C196   C     0.21743   0.60244   0.34634   0.00000  Uiso   1.00
C197   C     0.24712   0.55675   0.22091   0.00000  Uiso   1.00
C198   C     0.17380   0.69792   0.12258   0.00000  Uiso   1.00
C199   C     0.20425   0.74436   0.23106   0.00000  Uiso   1.00
C200   C     0.23277   0.78971   0.15430   0.00000  Uiso   1.00
C201   C     0.25785   0.82763   0.27714   0.00000  Uiso   1.00
C202   C     0.12248   0.67716   0.19474   0.00000  Uiso   1.00
C203   C     0.08225   0.66600   0.08744   0.00000  Uiso   1.00
C204   C     0.03849   0.64733   0.17969   0.00000  Uiso   1.00
C205   C     0.19044   0.66313   0.18493   0.00000  Uiso   1.00
C206   C     0.20735   0.64017   0.06938   0.00000  Uiso   1.00
C207   C     0.22079   0.60968   0.15337   0.00000  Uiso   1.00
H208   H     0.16500   0.67898   0.62718   0.00000  Uiso   1.00
H209   H     0.22331   0.76937   0.69573   0.00000  Uiso   1.00
H210   H     0.07281   0.64567   0.62887   0.00000  Uiso   1.00
H211   H     0.19789   0.61985   0.61081   0.00000  Uiso   1.00
H212   H     0.28944   0.87278   0.68678   0.00000  Uiso   1.00
H213   H     0.97209   0.61194   0.54580   0.00000  Uiso   1.00
H214   H     0.23585   0.55748   0.50773   0.00000  Uiso   1.00
H215   H     0.17642   0.70355   0.97260   0.00000  Uiso   1.00
H216   H     0.23537   0.79530   0.00523   0.00000  Uiso   1.00
H217   H     0.08486   0.67160   0.93838   0.00000  Uiso   1.00
H218   H     0.20994   0.64578   0.92032   0.00000  Uiso   1.00
H219   H     0.29922   0.89383   0.12634   0.00000  Uiso   1.00
H220   H     0.98187   0.63298   0.98537   0.00000  Uiso   1.00
H221   H     0.24563   0.57853   0.94729   0.00000  Uiso   1.00
O222   O     0.33289   0.94322   0.43983   0.00000  Uiso   1.00
O223   O     0.91654   0.60099   0.25487   0.00000  Uiso   1.00
O224   O     0.26258   0.52955   0.20493   0.00000  Uiso   1.00
N225   N     0.28366   0.86514   0.55040   0.00000  Uiso   1.00
N226   N     0.98696   0.62127   0.41860   0.00000  Uiso   1.00
N227   N     0.23354   0.57036   0.38300   0.00000  Uiso   1.00
N228   N     0.28892   0.87647   0.24883   0.00000  Uiso   1.00
N229   N     0.99222   0.63260   0.11703   0.00000  Uiso   1.00
N230   N     0.23880   0.58168   0.08144   0.00000  Uiso   1.00
C231   C     0.31539   0.48301   0.81055   0.00000  Uiso   1.00
C232   C     0.26287   0.46376   0.75702   0.00000  Uiso   1.00
C233   C     0.22502   0.45094   0.88000   0.00000  Uiso   1.00
C234   C     0.17962   0.43410   0.80344   0.00000  Uiso   1.00
C235   C     0.09916   0.40478   0.74963   0.00000  Uiso   1.00
C236   C     0.33007   0.44919   0.72070   0.00000  Uiso   1.00
C237   C     0.34873   0.42413   0.81314   0.00000  Uiso   1.00
C238   C     0.35991   0.39503   0.70599   0.00000  Uiso   1.00
C239   C     0.38383   0.34312   0.59578   0.00000  Uiso   1.00
C240   C     0.34410   0.53118   0.71090   0.00000  Uiso   1.00
C241   C     0.37456   0.57506   0.79508   0.00000  Uiso   1.00
C242   C     0.39756   0.61499   0.67968   0.00000  Uiso   1.00
C243   C     0.44325   0.69038   0.55424   0.00000  Uiso   1.00
C244   C     0.30208   0.47588   0.45591   0.00000  Uiso   1.00
C245   C     0.25564   0.45989   0.56439   0.00000  Uiso   1.00
C246   C     0.21029   0.44306   0.48763   0.00000  Uiso   1.00
C247   C     0.17237   0.43022   0.61047   0.00000  Uiso   1.00
C248   C     0.32284   0.44532   0.52808   0.00000  Uiso   1.00
C249   C     0.33400   0.41625   0.42077   0.00000  Uiso   1.00
C250   C     0.35267   0.39115   0.51302   0.00000  Uiso   1.00
C251   C     0.33687   0.52731   0.51827   0.00000  Uiso   1.00
C252   C     0.35983   0.56718   0.40271   0.00000  Uiso   1.00
C253   C     0.39032   0.61111   0.48671   0.00000  Uiso   1.00
H254   H     0.32102   0.48602   0.96051   0.00000  Uiso   1.00
H255   H     0.23063   0.45394   0.02906   0.00000  Uiso   1.00
H256   H     0.35433   0.42714   0.96220   0.00000  Uiso   1.00
H257   H     0.38015   0.57804   0.94415   0.00000  Uiso   1.00
H258   H     0.12722   0.41665   0.02011   0.00000  Uiso   1.00
H259   H     0.38806   0.36016   0.87913   0.00000  Uiso   1.00
H260   H     0.44252   0.67836   0.84106   0.00000  Uiso   1.00
H261   H     0.29645   0.47287   0.30593   0.00000  Uiso   1.00
H262   H     0.20470   0.44007   0.33856   0.00000  Uiso   1.00
H263   H     0.32840   0.41327   0.27171   0.00000  Uiso   1.00
H264   H     0.35422   0.56417   0.25366   0.00000  Uiso   1.00
H265   H     0.10617   0.40539   0.45968   0.00000  Uiso   1.00
H266   H     0.36702   0.34889   0.31870   0.00000  Uiso   1.00
H267   H     0.42147   0.66710   0.28063   0.00000  Uiso   1.00
O268   O     0.05678   0.38967   0.77317   0.00000  Uiso   1.00
O269   O     0.39901   0.31555   0.58821   0.00000  Uiso   1.00
O270   O     0.47045   0.73303   0.53826   0.00000  Uiso   1.00
N271   N     0.13486   0.41851   0.88373   0.00000  Uiso   1.00
N272   N     0.37873   0.36569   0.75193   0.00000  Uiso   1.00
N273   N     0.42964   0.66318   0.71633   0.00000  Uiso   1.00
N274   N     0.12353   0.41245   0.58217   0.00000  Uiso   1.00
N275   N     0.36740   0.35963   0.45037   0.00000  Uiso   1.00
N276   N     0.41832   0.65712   0.41477   0.00000  Uiso   1.00
