data_job_05306
_audit_creation_date              2018-12-19
_audit_creation_method            'Materials Studio'
_symmetry_space_group_name_H-M    'P1'
_symmetry_Int_Tables_number       1
_symmetry_cell_setting            triclinic
loop_
_symmetry_equiv_pos_as_xyz
  x,y,z
_cell_length_a                    16.7963
_cell_length_b                    17.2097
_cell_length_c                    16.2386
_cell_angle_alpha                 90.0000
_cell_angle_beta                  90.0000
_cell_angle_gamma                 90.0000
loop_
_atom_site_label
_atom_site_type_symbol
_atom_site_fract_x
_atom_site_fract_y
_atom_site_fract_z
_atom_site_U_iso_or_equiv
_atom_site_adp_type
_atom_site_occupancy
C1     C     0.45569   0.78448   0.59096   0.00000  Uiso   1.00
C2     C     0.42757   0.70080   0.58056   0.00000  Uiso   1.00
C3     C     0.37091   0.66374   0.62879   0.00000  Uiso   1.00
C4     C     0.35343   0.58704   0.60937   0.00000  Uiso   1.00
C5     C     0.30403   0.46291   0.60318   0.00000  Uiso   1.00
C6     C     0.54579   0.78037   0.60165   0.00000  Uiso   1.00
C7     C     0.58853   0.81021   0.66760   0.00000  Uiso   1.00
C8     C     0.67058   0.80051   0.66592   0.00000  Uiso   1.00
C9     C     0.80473   0.79995   0.69244   0.00000  Uiso   1.00
C10    C     0.44149   0.82411   0.50827   0.00000  Uiso   1.00
C11    C     0.39655   0.89073   0.49570   0.00000  Uiso   1.00
C12    C     0.39080   0.91786   0.41539   0.00000  Uiso   1.00
C13    C     0.36301   0.98521   0.29692   0.00000  Uiso   1.00
C14    C     0.52540   0.71420   0.47070   0.00000  Uiso   1.00
C15    C     0.46543   0.66263   0.51524   0.00000  Uiso   1.00
C16    C     0.44804   0.58598   0.49574   0.00000  Uiso   1.00
C17    C     0.39136   0.54880   0.54393   0.00000  Uiso   1.00
C18    C     0.58366   0.74220   0.53633   0.00000  Uiso   1.00
C19    C     0.66566   0.73246   0.53455   0.00000  Uiso   1.00
C20    C     0.70852   0.76227   0.60048   0.00000  Uiso   1.00
C21    C     0.47935   0.78593   0.44294   0.00000  Uiso   1.00
C22    C     0.47368   0.81297   0.36264   0.00000  Uiso   1.00
C23    C     0.42874   0.87962   0.34996   0.00000  Uiso   1.00
H24    H     0.42622   0.81420   0.64182   0.00000  Uiso   1.00
H25    H     0.34163   0.69330   0.67934   0.00000  Uiso   1.00
H26    H     0.55922   0.83976   0.71814   0.00000  Uiso   1.00
H27    H     0.36726   0.92026   0.54626   0.00000  Uiso   1.00
H28    H     0.26456   0.54240   0.69216   0.00000  Uiso   1.00
H29    H     0.72337   0.85125   0.77395   0.00000  Uiso   1.00
H30    H     0.31859   0.02100   0.41151   0.00000  Uiso   1.00
H31    H     0.55488   0.68448   0.41984   0.00000  Uiso   1.00
H32    H     0.47735   0.55645   0.44518   0.00000  Uiso   1.00
H33    H     0.69494   0.70291   0.48399   0.00000  Uiso   1.00
H34    H     0.50299   0.78342   0.31211   0.00000  Uiso   1.00
H35    H     0.37472   0.43133   0.50211   0.00000  Uiso   1.00
H36    H     0.83353   0.74018   0.58390   0.00000  Uiso   1.00
H37    H     0.42875   0.90994   0.22147   0.00000  Uiso   1.00
O38    O     0.26634   0.40498   0.61783   0.00000  Uiso   1.00
O39    O     0.86827   0.81019   0.72513   0.00000  Uiso   1.00
O40    O     0.33721   0.03290   0.24962   0.00000  Uiso   1.00
N41    N     0.30112   0.53384   0.64394   0.00000  Uiso   1.00
N42    N     0.73007   0.82258   0.72042   0.00000  Uiso   1.00
N43    N     0.35166   0.98130   0.38158   0.00000  Uiso   1.00
N44    N     0.36039   0.47407   0.54168   0.00000  Uiso   1.00
N45    N     0.78935   0.76281   0.61816   0.00000  Uiso   1.00
N46    N     0.41093   0.92153   0.27931   0.00000  Uiso   1.00
C47    C     0.04431   0.71552   0.09096   0.00000  Uiso   1.00
C48    C     0.07243   0.79920   0.08056   0.00000  Uiso   1.00
C49    C     0.12909   0.83626   0.12879   0.00000  Uiso   1.00
C50    C     0.14657   0.91296   0.10937   0.00000  Uiso   1.00
C51    C     0.19597   0.03709   0.10318   0.00000  Uiso   1.00
C52    C     0.95421   0.71963   0.10165   0.00000  Uiso   1.00
C53    C     0.91147   0.68979   0.16760   0.00000  Uiso   1.00
C54    C     0.82942   0.69949   0.16592   0.00000  Uiso   1.00
C55    C     0.69527   0.70005   0.19244   0.00000  Uiso   1.00
C56    C     0.05851   0.67589   0.00827   0.00000  Uiso   1.00
C57    C     0.10345   0.60927   0.99570   0.00000  Uiso   1.00
C58    C     0.10920   0.58214   0.91539   0.00000  Uiso   1.00
C59    C     0.13699   0.51479   0.79692   0.00000  Uiso   1.00
C60    C     0.97460   0.78580   0.97070   0.00000  Uiso   1.00
C61    C     0.03457   0.83737   0.01524   0.00000  Uiso   1.00
C62    C     0.05196   0.91402   0.99574   0.00000  Uiso   1.00
C63    C     0.10864   0.95120   0.04393   0.00000  Uiso   1.00
C64    C     0.91634   0.75780   0.03633   0.00000  Uiso   1.00
C65    C     0.83434   0.76754   0.03455   0.00000  Uiso   1.00
C66    C     0.79148   0.73773   0.10048   0.00000  Uiso   1.00
C67    C     0.02065   0.71407   0.94294   0.00000  Uiso   1.00
C68    C     0.02632   0.68703   0.86264   0.00000  Uiso   1.00
C69    C     0.07126   0.62038   0.84996   0.00000  Uiso   1.00
H70    H     0.07378   0.68580   0.14182   0.00000  Uiso   1.00
H71    H     0.15837   0.80670   0.17934   0.00000  Uiso   1.00
H72    H     0.94078   0.66024   0.21814   0.00000  Uiso   1.00
H73    H     0.13274   0.57974   0.04626   0.00000  Uiso   1.00
H74    H     0.23544   0.95760   0.19216   0.00000  Uiso   1.00
H75    H     0.77663   0.64875   0.27395   0.00000  Uiso   1.00
H76    H     0.18141   0.47900   0.91151   0.00000  Uiso   1.00
H77    H     0.94512   0.81552   0.91984   0.00000  Uiso   1.00
H78    H     0.02265   0.94355   0.94518   0.00000  Uiso   1.00
H79    H     0.80506   0.79709   0.98399   0.00000  Uiso   1.00
H80    H     0.99701   0.71658   0.81211   0.00000  Uiso   1.00
H81    H     0.12528   0.06867   0.00211   0.00000  Uiso   1.00
H82    H     0.66647   0.75982   0.08390   0.00000  Uiso   1.00
H83    H     0.07125   0.59006   0.72147   0.00000  Uiso   1.00
O84    O     0.23366   0.09502   0.11783   0.00000  Uiso   1.00
O85    O     0.63173   0.68981   0.22513   0.00000  Uiso   1.00
O86    O     0.16279   0.46710   0.74962   0.00000  Uiso   1.00
N87    N     0.19888   0.96616   0.14394   0.00000  Uiso   1.00
N88    N     0.76993   0.67742   0.22042   0.00000  Uiso   1.00
N89    N     0.14834   0.51870   0.88158   0.00000  Uiso   1.00
N90    N     0.13961   0.02593   0.04168   0.00000  Uiso   1.00
N91    N     0.71065   0.73719   0.11816   0.00000  Uiso   1.00
N92    N     0.08907   0.57847   0.77931   0.00000  Uiso   1.00
C93    C     0.54431   0.78448   0.90904   0.00000  Uiso   1.00
C94    C     0.57243   0.70080   0.91944   0.00000  Uiso   1.00
C95    C     0.62909   0.66374   0.87121   0.00000  Uiso   1.00
C96    C     0.64657   0.58704   0.89063   0.00000  Uiso   1.00
C97    C     0.69597   0.46291   0.89682   0.00000  Uiso   1.00
C98    C     0.45421   0.78037   0.89835   0.00000  Uiso   1.00
C99    C     0.41147   0.81021   0.83240   0.00000  Uiso   1.00
C100   C     0.32942   0.80051   0.83408   0.00000  Uiso   1.00
C101   C     0.19527   0.79995   0.80756   0.00000  Uiso   1.00
C102   C     0.55851   0.82411   0.99173   0.00000  Uiso   1.00
C103   C     0.60345   0.89073   0.00430   0.00000  Uiso   1.00
C104   C     0.60920   0.91786   0.08461   0.00000  Uiso   1.00
C105   C     0.63699   0.98521   0.20308   0.00000  Uiso   1.00
C106   C     0.47460   0.71420   0.02930   0.00000  Uiso   1.00
C107   C     0.53457   0.66263   0.98476   0.00000  Uiso   1.00
C108   C     0.55196   0.58598   0.00426   0.00000  Uiso   1.00
C109   C     0.60864   0.54880   0.95607   0.00000  Uiso   1.00
C110   C     0.41634   0.74220   0.96367   0.00000  Uiso   1.00
C111   C     0.33434   0.73246   0.96545   0.00000  Uiso   1.00
C112   C     0.29148   0.76227   0.89952   0.00000  Uiso   1.00
C113   C     0.52065   0.78593   0.05706   0.00000  Uiso   1.00
C114   C     0.52632   0.81297   0.13736   0.00000  Uiso   1.00
C115   C     0.57126   0.87962   0.15004   0.00000  Uiso   1.00
H116   H     0.57378   0.81420   0.85818   0.00000  Uiso   1.00
H117   H     0.65837   0.69330   0.82066   0.00000  Uiso   1.00
H118   H     0.44078   0.83976   0.78186   0.00000  Uiso   1.00
H119   H     0.63274   0.92026   0.95374   0.00000  Uiso   1.00
H120   H     0.73544   0.54240   0.80784   0.00000  Uiso   1.00
H121   H     0.27663   0.85125   0.72605   0.00000  Uiso   1.00
H122   H     0.68141   0.02100   0.08849   0.00000  Uiso   1.00
H123   H     0.44512   0.68448   0.08016   0.00000  Uiso   1.00
H124   H     0.52265   0.55645   0.05482   0.00000  Uiso   1.00
H125   H     0.30506   0.70291   0.01601   0.00000  Uiso   1.00
H126   H     0.49701   0.78342   0.18789   0.00000  Uiso   1.00
H127   H     0.62528   0.43133   0.99789   0.00000  Uiso   1.00
H128   H     0.16647   0.74018   0.91610   0.00000  Uiso   1.00
H129   H     0.57125   0.90994   0.27853   0.00000  Uiso   1.00
O130   O     0.73366   0.40498   0.88217   0.00000  Uiso   1.00
O131   O     0.13173   0.81019   0.77487   0.00000  Uiso   1.00
O132   O     0.66279   0.03290   0.25038   0.00000  Uiso   1.00
N133   N     0.69888   0.53384   0.85606   0.00000  Uiso   1.00
N134   N     0.26993   0.82258   0.77958   0.00000  Uiso   1.00
N135   N     0.64834   0.98130   0.11842   0.00000  Uiso   1.00
N136   N     0.63961   0.47407   0.95832   0.00000  Uiso   1.00
N137   N     0.21065   0.76281   0.88184   0.00000  Uiso   1.00
N138   N     0.58907   0.92153   0.22069   0.00000  Uiso   1.00
C139   C     0.95569   0.71552   0.40904   0.00000  Uiso   1.00
C140   C     0.92757   0.79920   0.41944   0.00000  Uiso   1.00
C141   C     0.87091   0.83626   0.37121   0.00000  Uiso   1.00
C142   C     0.85343   0.91296   0.39063   0.00000  Uiso   1.00
C143   C     0.80403   0.03709   0.39682   0.00000  Uiso   1.00
C144   C     0.04579   0.71963   0.39835   0.00000  Uiso   1.00
C145   C     0.08853   0.68979   0.33240   0.00000  Uiso   1.00
C146   C     0.17058   0.69949   0.33408   0.00000  Uiso   1.00
C147   C     0.30473   0.70005   0.30756   0.00000  Uiso   1.00
C148   C     0.94149   0.67589   0.49173   0.00000  Uiso   1.00
C149   C     0.89655   0.60927   0.50430   0.00000  Uiso   1.00
C150   C     0.89080   0.58214   0.58461   0.00000  Uiso   1.00
C151   C     0.86301   0.51479   0.70308   0.00000  Uiso   1.00
C152   C     0.02540   0.78580   0.52930   0.00000  Uiso   1.00
C153   C     0.96543   0.83737   0.48476   0.00000  Uiso   1.00
C154   C     0.94804   0.91402   0.50426   0.00000  Uiso   1.00
C155   C     0.89136   0.95120   0.45607   0.00000  Uiso   1.00
C156   C     0.08366   0.75780   0.46367   0.00000  Uiso   1.00
C157   C     0.16566   0.76754   0.46545   0.00000  Uiso   1.00
C158   C     0.20852   0.73773   0.39952   0.00000  Uiso   1.00
C159   C     0.97935   0.71407   0.55706   0.00000  Uiso   1.00
C160   C     0.97368   0.68703   0.63736   0.00000  Uiso   1.00
C161   C     0.92874   0.62038   0.65004   0.00000  Uiso   1.00
H162   H     0.92622   0.68580   0.35818   0.00000  Uiso   1.00
H163   H     0.84163   0.80670   0.32066   0.00000  Uiso   1.00
H164   H     0.05922   0.66024   0.28186   0.00000  Uiso   1.00
H165   H     0.86726   0.57974   0.45374   0.00000  Uiso   1.00
H166   H     0.76456   0.95760   0.30784   0.00000  Uiso   1.00
H167   H     0.22337   0.64875   0.22605   0.00000  Uiso   1.00
H168   H     0.81859   0.47900   0.58849   0.00000  Uiso   1.00
H169   H     0.05488   0.81552   0.58016   0.00000  Uiso   1.00
H170   H     0.97735   0.94355   0.55482   0.00000  Uiso   1.00
H171   H     0.19494   0.79709   0.51601   0.00000  Uiso   1.00
H172   H     0.00299   0.71658   0.68789   0.00000  Uiso   1.00
H173   H     0.87472   0.06867   0.49789   0.00000  Uiso   1.00
H174   H     0.33353   0.75982   0.41610   0.00000  Uiso   1.00
H175   H     0.92875   0.59006   0.77853   0.00000  Uiso   1.00
O176   O     0.76634   0.09502   0.38217   0.00000  Uiso   1.00
O177   O     0.36827   0.68981   0.27487   0.00000  Uiso   1.00
O178   O     0.83721   0.46710   0.75038   0.00000  Uiso   1.00
N179   N     0.80112   0.96616   0.35606   0.00000  Uiso   1.00
N180   N     0.23007   0.67742   0.27958   0.00000  Uiso   1.00
N181   N     0.85166   0.51870   0.61842   0.00000  Uiso   1.00
N182   N     0.86039   0.02593   0.45832   0.00000  Uiso   1.00
N183   N     0.28935   0.73719   0.38184   0.00000  Uiso   1.00
N184   N     0.91093   0.57847   0.72069   0.00000  Uiso   1.00
C185   C     0.54431   0.21552   0.40904   0.00000  Uiso   1.00
C186   C     0.57243   0.29920   0.41944   0.00000  Uiso   1.00
C187   C     0.62909   0.33626   0.37121   0.00000  Uiso   1.00
C188   C     0.64657   0.41296   0.39063   0.00000  Uiso   1.00
C189   C     0.69597   0.53709   0.39682   0.00000  Uiso   1.00
C190   C     0.45421   0.21963   0.39835   0.00000  Uiso   1.00
C191   C     0.41147   0.18979   0.33240   0.00000  Uiso   1.00
C192   C     0.32942   0.19949   0.33408   0.00000  Uiso   1.00
C193   C     0.19527   0.20005   0.30756   0.00000  Uiso   1.00
C194   C     0.55851   0.17589   0.49173   0.00000  Uiso   1.00
C195   C     0.60345   0.10927   0.50430   0.00000  Uiso   1.00
C196   C     0.60920   0.08214   0.58461   0.00000  Uiso   1.00
C197   C     0.63699   0.01479   0.70308   0.00000  Uiso   1.00
C198   C     0.47460   0.28580   0.52930   0.00000  Uiso   1.00
C199   C     0.53457   0.33737   0.48476   0.00000  Uiso   1.00
C200   C     0.55196   0.41402   0.50426   0.00000  Uiso   1.00
C201   C     0.60864   0.45120   0.45607   0.00000  Uiso   1.00
C202   C     0.41634   0.25780   0.46367   0.00000  Uiso   1.00
C203   C     0.33434   0.26754   0.46545   0.00000  Uiso   1.00
C204   C     0.29148   0.23773   0.39952   0.00000  Uiso   1.00
C205   C     0.52065   0.21407   0.55706   0.00000  Uiso   1.00
C206   C     0.52632   0.18703   0.63736   0.00000  Uiso   1.00
C207   C     0.57126   0.12038   0.65004   0.00000  Uiso   1.00
H208   H     0.57378   0.18580   0.35818   0.00000  Uiso   1.00
H209   H     0.65837   0.30670   0.32066   0.00000  Uiso   1.00
H210   H     0.44078   0.16024   0.28186   0.00000  Uiso   1.00
H211   H     0.63274   0.07974   0.45374   0.00000  Uiso   1.00
H212   H     0.73544   0.45760   0.30784   0.00000  Uiso   1.00
H213   H     0.27663   0.14875   0.22605   0.00000  Uiso   1.00
H214   H     0.68141   0.97900   0.58849   0.00000  Uiso   1.00
H215   H     0.44512   0.31552   0.58016   0.00000  Uiso   1.00
H216   H     0.52265   0.44355   0.55482   0.00000  Uiso   1.00
H217   H     0.30506   0.29709   0.51601   0.00000  Uiso   1.00
H218   H     0.49701   0.21658   0.68789   0.00000  Uiso   1.00
H219   H     0.62528   0.56867   0.49789   0.00000  Uiso   1.00
H220   H     0.16647   0.25982   0.41610   0.00000  Uiso   1.00
H221   H     0.57125   0.09006   0.77853   0.00000  Uiso   1.00
O222   O     0.73366   0.59502   0.38217   0.00000  Uiso   1.00
O223   O     0.13173   0.18981   0.27487   0.00000  Uiso   1.00
O224   O     0.66279   0.96710   0.75038   0.00000  Uiso   1.00
N225   N     0.69888   0.46616   0.35606   0.00000  Uiso   1.00
N226   N     0.26993   0.17742   0.27958   0.00000  Uiso   1.00
N227   N     0.64834   0.01870   0.61842   0.00000  Uiso   1.00
N228   N     0.63961   0.52593   0.45832   0.00000  Uiso   1.00
N229   N     0.21065   0.23719   0.38184   0.00000  Uiso   1.00
N230   N     0.58907   0.07847   0.72069   0.00000  Uiso   1.00
C231   C     0.95569   0.28448   0.90904   0.00000  Uiso   1.00
C232   C     0.92757   0.20080   0.91944   0.00000  Uiso   1.00
C233   C     0.87091   0.16374   0.87121   0.00000  Uiso   1.00
C234   C     0.85343   0.08704   0.89063   0.00000  Uiso   1.00
C235   C     0.80403   0.96291   0.89682   0.00000  Uiso   1.00
C236   C     0.04579   0.28037   0.89835   0.00000  Uiso   1.00
C237   C     0.08853   0.31021   0.83240   0.00000  Uiso   1.00
C238   C     0.17058   0.30051   0.83408   0.00000  Uiso   1.00
C239   C     0.30473   0.29995   0.80756   0.00000  Uiso   1.00
C240   C     0.94149   0.32411   0.99173   0.00000  Uiso   1.00
C241   C     0.89655   0.39073   0.00430   0.00000  Uiso   1.00
C242   C     0.89080   0.41786   0.08461   0.00000  Uiso   1.00
C243   C     0.86301   0.48521   0.20308   0.00000  Uiso   1.00
C244   C     0.02540   0.21420   0.02930   0.00000  Uiso   1.00
C245   C     0.96543   0.16263   0.98476   0.00000  Uiso   1.00
C246   C     0.94804   0.08598   0.00426   0.00000  Uiso   1.00
C247   C     0.89136   0.04880   0.95607   0.00000  Uiso   1.00
C248   C     0.08366   0.24220   0.96367   0.00000  Uiso   1.00
C249   C     0.16566   0.23246   0.96545   0.00000  Uiso   1.00
C250   C     0.20852   0.26227   0.89952   0.00000  Uiso   1.00
C251   C     0.97935   0.28593   0.05706   0.00000  Uiso   1.00
C252   C     0.97368   0.31297   0.13736   0.00000  Uiso   1.00
C253   C     0.92874   0.37962   0.15004   0.00000  Uiso   1.00
H254   H     0.92622   0.31420   0.85818   0.00000  Uiso   1.00
H255   H     0.84163   0.19330   0.82066   0.00000  Uiso   1.00
H256   H     0.05922   0.33976   0.78186   0.00000  Uiso   1.00
H257   H     0.86726   0.42026   0.95374   0.00000  Uiso   1.00
H258   H     0.76456   0.04240   0.80784   0.00000  Uiso   1.00
H259   H     0.22337   0.35125   0.72605   0.00000  Uiso   1.00
H260   H     0.81859   0.52100   0.08849   0.00000  Uiso   1.00
H261   H     0.05488   0.18448   0.08016   0.00000  Uiso   1.00
H262   H     0.97735   0.05645   0.05482   0.00000  Uiso   1.00
H263   H     0.19494   0.20291   0.01601   0.00000  Uiso   1.00
H264   H     0.00299   0.28342   0.18789   0.00000  Uiso   1.00
H265   H     0.87472   0.93133   0.99789   0.00000  Uiso   1.00
H266   H     0.33353   0.24018   0.91610   0.00000  Uiso   1.00
H267   H     0.92875   0.40994   0.27853   0.00000  Uiso   1.00
O268   O     0.76634   0.90498   0.88217   0.00000  Uiso   1.00
O269   O     0.36827   0.31019   0.77487   0.00000  Uiso   1.00
O270   O     0.83721   0.53290   0.25038   0.00000  Uiso   1.00
N271   N     0.80112   0.03384   0.85606   0.00000  Uiso   1.00
N272   N     0.23007   0.32258   0.77958   0.00000  Uiso   1.00
N273   N     0.85166   0.48130   0.11842   0.00000  Uiso   1.00
N274   N     0.86039   0.97407   0.95832   0.00000  Uiso   1.00
N275   N     0.28935   0.26281   0.88184   0.00000  Uiso   1.00
N276   N     0.91093   0.42153   0.22069   0.00000  Uiso   1.00
C277   C     0.45569   0.21552   0.09096   0.00000  Uiso   1.00
C278   C     0.42757   0.29920   0.08056   0.00000  Uiso   1.00
C279   C     0.37091   0.33626   0.12879   0.00000  Uiso   1.00
C280   C     0.35343   0.41296   0.10937   0.00000  Uiso   1.00
C281   C     0.30403   0.53709   0.10318   0.00000  Uiso   1.00
C282   C     0.54579   0.21963   0.10165   0.00000  Uiso   1.00
C283   C     0.58853   0.18979   0.16760   0.00000  Uiso   1.00
C284   C     0.67058   0.19949   0.16592   0.00000  Uiso   1.00
C285   C     0.80473   0.20005   0.19244   0.00000  Uiso   1.00
C286   C     0.44149   0.17589   0.00827   0.00000  Uiso   1.00
C287   C     0.39655   0.10927   0.99570   0.00000  Uiso   1.00
C288   C     0.39080   0.08214   0.91539   0.00000  Uiso   1.00
C289   C     0.36301   0.01479   0.79692   0.00000  Uiso   1.00
C290   C     0.52540   0.28580   0.97070   0.00000  Uiso   1.00
C291   C     0.46543   0.33737   0.01524   0.00000  Uiso   1.00
C292   C     0.44804   0.41402   0.99574   0.00000  Uiso   1.00
C293   C     0.39136   0.45120   0.04393   0.00000  Uiso   1.00
C294   C     0.58366   0.25780   0.03633   0.00000  Uiso   1.00
C295   C     0.66566   0.26754   0.03455   0.00000  Uiso   1.00
C296   C     0.70852   0.23773   0.10048   0.00000  Uiso   1.00
C297   C     0.47935   0.21407   0.94294   0.00000  Uiso   1.00
C298   C     0.47368   0.18703   0.86264   0.00000  Uiso   1.00
C299   C     0.42874   0.12038   0.84996   0.00000  Uiso   1.00
H300   H     0.42622   0.18580   0.14182   0.00000  Uiso   1.00
H301   H     0.34163   0.30670   0.17934   0.00000  Uiso   1.00
H302   H     0.55922   0.16024   0.21814   0.00000  Uiso   1.00
H303   H     0.36726   0.07974   0.04626   0.00000  Uiso   1.00
H304   H     0.26456   0.45760   0.19216   0.00000  Uiso   1.00
H305   H     0.72337   0.14875   0.27395   0.00000  Uiso   1.00
H306   H     0.31859   0.97900   0.91151   0.00000  Uiso   1.00
H307   H     0.55488   0.31552   0.91984   0.00000  Uiso   1.00
H308   H     0.47735   0.44355   0.94518   0.00000  Uiso   1.00
H309   H     0.69494   0.29709   0.98399   0.00000  Uiso   1.00
H310   H     0.50299   0.21658   0.81211   0.00000  Uiso   1.00
H311   H     0.37472   0.56867   0.00211   0.00000  Uiso   1.00
H312   H     0.83353   0.25982   0.08390   0.00000  Uiso   1.00
H313   H     0.42875   0.09006   0.72147   0.00000  Uiso   1.00
O314   O     0.26634   0.59502   0.11783   0.00000  Uiso   1.00
O315   O     0.86827   0.18981   0.22513   0.00000  Uiso   1.00
O316   O     0.33721   0.96710   0.74962   0.00000  Uiso   1.00
N317   N     0.30112   0.46616   0.14394   0.00000  Uiso   1.00
N318   N     0.73007   0.17742   0.22042   0.00000  Uiso   1.00
N319   N     0.35166   0.01870   0.88158   0.00000  Uiso   1.00
N320   N     0.36039   0.52593   0.04168   0.00000  Uiso   1.00
N321   N     0.78935   0.23719   0.11816   0.00000  Uiso   1.00
N322   N     0.41093   0.07847   0.77931   0.00000  Uiso   1.00
C323   C     0.04431   0.28448   0.59096   0.00000  Uiso   1.00
C324   C     0.07243   0.20080   0.58056   0.00000  Uiso   1.00
C325   C     0.12909   0.16374   0.62879   0.00000  Uiso   1.00
C326   C     0.14657   0.08704   0.60937   0.00000  Uiso   1.00
C327   C     0.19597   0.96291   0.60318   0.00000  Uiso   1.00
C328   C     0.95421   0.28037   0.60165   0.00000  Uiso   1.00
C329   C     0.91147   0.31021   0.66760   0.00000  Uiso   1.00
C330   C     0.82942   0.30051   0.66592   0.00000  Uiso   1.00
C331   C     0.69527   0.29995   0.69244   0.00000  Uiso   1.00
C332   C     0.05851   0.32411   0.50827   0.00000  Uiso   1.00
C333   C     0.10345   0.39073   0.49570   0.00000  Uiso   1.00
C334   C     0.10920   0.41786   0.41539   0.00000  Uiso   1.00
C335   C     0.13699   0.48521   0.29692   0.00000  Uiso   1.00
C336   C     0.97460   0.21420   0.47070   0.00000  Uiso   1.00
C337   C     0.03457   0.16263   0.51524   0.00000  Uiso   1.00
C338   C     0.05196   0.08598   0.49574   0.00000  Uiso   1.00
C339   C     0.10864   0.04880   0.54393   0.00000  Uiso   1.00
C340   C     0.91634   0.24220   0.53633   0.00000  Uiso   1.00
C341   C     0.83434   0.23246   0.53455   0.00000  Uiso   1.00
C342   C     0.79148   0.26227   0.60048   0.00000  Uiso   1.00
C343   C     0.02065   0.28593   0.44294   0.00000  Uiso   1.00
C344   C     0.02632   0.31297   0.36264   0.00000  Uiso   1.00
C345   C     0.07126   0.37962   0.34996   0.00000  Uiso   1.00
H346   H     0.07378   0.31420   0.64182   0.00000  Uiso   1.00
H347   H     0.15837   0.19330   0.67934   0.00000  Uiso   1.00
H348   H     0.94078   0.33976   0.71814   0.00000  Uiso   1.00
H349   H     0.13274   0.42026   0.54626   0.00000  Uiso   1.00
H350   H     0.23544   0.04240   0.69216   0.00000  Uiso   1.00
H351   H     0.77663   0.35125   0.77395   0.00000  Uiso   1.00
H352   H     0.18141   0.52100   0.41151   0.00000  Uiso   1.00
H353   H     0.94512   0.18448   0.41984   0.00000  Uiso   1.00
H354   H     0.02265   0.05645   0.44518   0.00000  Uiso   1.00
H355   H     0.80506   0.20291   0.48399   0.00000  Uiso   1.00
H356   H     0.99701   0.28342   0.31211   0.00000  Uiso   1.00
H357   H     0.12528   0.93133   0.50211   0.00000  Uiso   1.00
H358   H     0.66647   0.24018   0.58390   0.00000  Uiso   1.00
H359   H     0.07125   0.40994   0.22147   0.00000  Uiso   1.00
O360   O     0.23366   0.90498   0.61783   0.00000  Uiso   1.00
O361   O     0.63173   0.31019   0.72513   0.00000  Uiso   1.00
O362   O     0.16279   0.53290   0.24962   0.00000  Uiso   1.00
N363   N     0.19888   0.03384   0.64394   0.00000  Uiso   1.00
N364   N     0.76993   0.32258   0.72042   0.00000  Uiso   1.00
N365   N     0.14834   0.48130   0.38158   0.00000  Uiso   1.00
N366   N     0.13961   0.97407   0.54168   0.00000  Uiso   1.00
N367   N     0.71065   0.26281   0.61816   0.00000  Uiso   1.00
N368   N     0.08907   0.42153   0.27931   0.00000  Uiso   1.00
