data_job_03610
_audit_creation_date              2018-12-19
_audit_creation_method            'Materials Studio'
_symmetry_space_group_name_H-M    'P1'
_symmetry_Int_Tables_number       1
_symmetry_cell_setting            triclinic
loop_
_symmetry_equiv_pos_as_xyz
  x,y,z
_cell_length_a                    40.4523
_cell_length_b                    23.3766
_cell_length_c                    14.4687
_cell_angle_alpha                 90.0000
_cell_angle_beta                  92.9051
_cell_angle_gamma                 90.0000
loop_
_atom_site_label
_atom_site_type_symbol
_atom_site_fract_x
_atom_site_fract_y
_atom_site_fract_z
_atom_site_U_iso_or_equiv
_atom_site_adp_type
_atom_site_occupancy
C1     C     0.33705   0.79356   0.45952   0.00000  Uiso   1.00
C2     C     0.31883   0.74147   0.41903   0.00000  Uiso   1.00
C3     C     0.30506   0.69782   0.46950   0.00000  Uiso   1.00
C4     C     0.28944   0.65393   0.41957   0.00000  Uiso   1.00
C5     C     0.26144   0.57305   0.37144   0.00000  Uiso   1.00
C6     C     0.37108   0.79330   0.41874   0.00000  Uiso   1.00
C7     C     0.40123   0.79324   0.46897   0.00000  Uiso   1.00
C8     C     0.42959   0.79299   0.41879   0.00000  Uiso   1.00
C9     C     0.48270   0.79263   0.37021   0.00000  Uiso   1.00
C10    C     0.31901   0.84569   0.41851   0.00000  Uiso   1.00
C11    C     0.30539   0.88969   0.46855   0.00000  Uiso   1.00
C12    C     0.28992   0.93355   0.41818   0.00000  Uiso   1.00
C13    C     0.26219   0.01453   0.36926   0.00000  Uiso   1.00
C14    C     0.33380   0.79323   0.28109   0.00000  Uiso   1.00
C15    C     0.31707   0.74129   0.32211   0.00000  Uiso   1.00
C16    C     0.30147   0.69745   0.27209   0.00000  Uiso   1.00
C17    C     0.28767   0.65374   0.32248   0.00000  Uiso   1.00
C18    C     0.36931   0.79312   0.32183   0.00000  Uiso   1.00
C19    C     0.39763   0.79287   0.27156   0.00000  Uiso   1.00
C20    C     0.42782   0.79281   0.32170   0.00000  Uiso   1.00
C21    C     0.31724   0.84551   0.32160   0.00000  Uiso   1.00
C22    C     0.30180   0.88931   0.27114   0.00000  Uiso   1.00
C23    C     0.28816   0.93337   0.32109   0.00000  Uiso   1.00
H24    H     0.33842   0.79371   0.53497   0.00000  Uiso   1.00
H25    H     0.30643   0.69797   0.54450   0.00000  Uiso   1.00
H26    H     0.40259   0.79339   0.54396   0.00000  Uiso   1.00
H27    H     0.30676   0.88981   0.54355   0.00000  Uiso   1.00
H28    H     0.27020   0.59175   0.51233   0.00000  Uiso   1.00
H29    H     0.47294   0.79296   0.51120   0.00000  Uiso   1.00
H30    H     0.27088   0.99629   0.51033   0.00000  Uiso   1.00
H31    H     0.33243   0.79309   0.20563   0.00000  Uiso   1.00
H32    H     0.30011   0.69732   0.19709   0.00000  Uiso   1.00
H33    H     0.39626   0.79273   0.19656   0.00000  Uiso   1.00
H34    H     0.30044   0.88916   0.19615   0.00000  Uiso   1.00
H35    H     0.26507   0.59121   0.23036   0.00000  Uiso   1.00
H36    H     0.46781   0.79243   0.22923   0.00000  Uiso   1.00
H37    H     0.26575   0.99576   0.22836   0.00000  Uiso   1.00
O38    O     0.24649   0.52848   0.37167   0.00000  Uiso   1.00
O39    O     0.51248   0.79247   0.37019   0.00000  Uiso   1.00
O40    O     0.24738   0.05924   0.36904   0.00000  Uiso   1.00
N41    N     0.27342   0.60477   0.44714   0.00000  Uiso   1.00
N42    N     0.46297   0.79288   0.44609   0.00000  Uiso   1.00
N43    N     0.27407   0.98299   0.44527   0.00000  Uiso   1.00
N44    N     0.27066   0.60448   0.29541   0.00000  Uiso   1.00
N45    N     0.46021   0.79259   0.29436   0.00000  Uiso   1.00
N46    N     0.27131   0.98270   0.29354   0.00000  Uiso   1.00
C47    C     0.83705   0.29356   0.45952   0.00000  Uiso   1.00
C48    C     0.81883   0.24147   0.41903   0.00000  Uiso   1.00
C49    C     0.80506   0.19782   0.46950   0.00000  Uiso   1.00
C50    C     0.78944   0.15393   0.41957   0.00000  Uiso   1.00
C51    C     0.76144   0.07305   0.37144   0.00000  Uiso   1.00
C52    C     0.87108   0.29330   0.41874   0.00000  Uiso   1.00
C53    C     0.90123   0.29324   0.46897   0.00000  Uiso   1.00
C54    C     0.92959   0.29299   0.41879   0.00000  Uiso   1.00
C55    C     0.98270   0.29263   0.37021   0.00000  Uiso   1.00
C56    C     0.81901   0.34569   0.41851   0.00000  Uiso   1.00
C57    C     0.80539   0.38969   0.46855   0.00000  Uiso   1.00
C58    C     0.78992   0.43355   0.41818   0.00000  Uiso   1.00
C59    C     0.76219   0.51453   0.36926   0.00000  Uiso   1.00
C60    C     0.83380   0.29323   0.28109   0.00000  Uiso   1.00
C61    C     0.81707   0.24129   0.32211   0.00000  Uiso   1.00
C62    C     0.80147   0.19745   0.27209   0.00000  Uiso   1.00
C63    C     0.78767   0.15374   0.32248   0.00000  Uiso   1.00
C64    C     0.86931   0.29312   0.32183   0.00000  Uiso   1.00
C65    C     0.89763   0.29287   0.27156   0.00000  Uiso   1.00
C66    C     0.92782   0.29281   0.32170   0.00000  Uiso   1.00
C67    C     0.81724   0.34551   0.32160   0.00000  Uiso   1.00
C68    C     0.80180   0.38931   0.27114   0.00000  Uiso   1.00
C69    C     0.78816   0.43337   0.32109   0.00000  Uiso   1.00
H70    H     0.83842   0.29371   0.53497   0.00000  Uiso   1.00
H71    H     0.80643   0.19797   0.54450   0.00000  Uiso   1.00
H72    H     0.90259   0.29339   0.54396   0.00000  Uiso   1.00
H73    H     0.80676   0.38981   0.54355   0.00000  Uiso   1.00
H74    H     0.77020   0.09175   0.51233   0.00000  Uiso   1.00
H75    H     0.97294   0.29296   0.51120   0.00000  Uiso   1.00
H76    H     0.77088   0.49629   0.51033   0.00000  Uiso   1.00
H77    H     0.83243   0.29309   0.20563   0.00000  Uiso   1.00
H78    H     0.80011   0.19732   0.19709   0.00000  Uiso   1.00
H79    H     0.89626   0.29273   0.19656   0.00000  Uiso   1.00
H80    H     0.80044   0.38916   0.19615   0.00000  Uiso   1.00
H81    H     0.76507   0.09121   0.23036   0.00000  Uiso   1.00
H82    H     0.96781   0.29243   0.22923   0.00000  Uiso   1.00
H83    H     0.76575   0.49576   0.22836   0.00000  Uiso   1.00
O84    O     0.74649   0.02848   0.37167   0.00000  Uiso   1.00
O85    O     0.01248   0.29247   0.37019   0.00000  Uiso   1.00
O86    O     0.74738   0.55924   0.36904   0.00000  Uiso   1.00
N87    N     0.77342   0.10477   0.44714   0.00000  Uiso   1.00
N88    N     0.96297   0.29288   0.44609   0.00000  Uiso   1.00
N89    N     0.77407   0.48299   0.44527   0.00000  Uiso   1.00
N90    N     0.77066   0.10448   0.29541   0.00000  Uiso   1.00
N91    N     0.96021   0.29259   0.29436   0.00000  Uiso   1.00
N92    N     0.77131   0.48270   0.29354   0.00000  Uiso   1.00
C93    C     0.66295   0.79356   0.04048   0.00000  Uiso   1.00
C94    C     0.68117   0.74147   0.08097   0.00000  Uiso   1.00
C95    C     0.69494   0.69782   0.03050   0.00000  Uiso   1.00
C96    C     0.71056   0.65393   0.08043   0.00000  Uiso   1.00
C97    C     0.73856   0.57305   0.12856   0.00000  Uiso   1.00
C98    C     0.62892   0.79330   0.08126   0.00000  Uiso   1.00
C99    C     0.59877   0.79324   0.03103   0.00000  Uiso   1.00
C100   C     0.57041   0.79299   0.08121   0.00000  Uiso   1.00
C101   C     0.51730   0.79263   0.12979   0.00000  Uiso   1.00
C102   C     0.68099   0.84569   0.08149   0.00000  Uiso   1.00
C103   C     0.69461   0.88969   0.03145   0.00000  Uiso   1.00
C104   C     0.71008   0.93355   0.08182   0.00000  Uiso   1.00
C105   C     0.73781   0.01453   0.13074   0.00000  Uiso   1.00
C106   C     0.66620   0.79323   0.21891   0.00000  Uiso   1.00
C107   C     0.68293   0.74129   0.17789   0.00000  Uiso   1.00
C108   C     0.69853   0.69745   0.22791   0.00000  Uiso   1.00
C109   C     0.71233   0.65374   0.17752   0.00000  Uiso   1.00
C110   C     0.63069   0.79312   0.17817   0.00000  Uiso   1.00
C111   C     0.60237   0.79287   0.22844   0.00000  Uiso   1.00
C112   C     0.57218   0.79281   0.17830   0.00000  Uiso   1.00
C113   C     0.68276   0.84551   0.17840   0.00000  Uiso   1.00
C114   C     0.69820   0.88931   0.22886   0.00000  Uiso   1.00
C115   C     0.71184   0.93337   0.17891   0.00000  Uiso   1.00
H116   H     0.66158   0.79371   0.96503   0.00000  Uiso   1.00
H117   H     0.69357   0.69797   0.95550   0.00000  Uiso   1.00
H118   H     0.59741   0.79339   0.95604   0.00000  Uiso   1.00
H119   H     0.69324   0.88981   0.95645   0.00000  Uiso   1.00
H120   H     0.72980   0.59175   0.98767   0.00000  Uiso   1.00
H121   H     0.52706   0.79296   0.98880   0.00000  Uiso   1.00
H122   H     0.72912   0.99629   0.98967   0.00000  Uiso   1.00
H123   H     0.66757   0.79309   0.29437   0.00000  Uiso   1.00
H124   H     0.69989   0.69732   0.30291   0.00000  Uiso   1.00
H125   H     0.60374   0.79273   0.30344   0.00000  Uiso   1.00
H126   H     0.69956   0.88916   0.30385   0.00000  Uiso   1.00
H127   H     0.73493   0.59121   0.26964   0.00000  Uiso   1.00
H128   H     0.53219   0.79243   0.27077   0.00000  Uiso   1.00
H129   H     0.73425   0.99576   0.27164   0.00000  Uiso   1.00
O130   O     0.75351   0.52848   0.12833   0.00000  Uiso   1.00
O131   O     0.48752   0.79247   0.12981   0.00000  Uiso   1.00
O132   O     0.75262   0.05924   0.13096   0.00000  Uiso   1.00
N133   N     0.72658   0.60477   0.05286   0.00000  Uiso   1.00
N134   N     0.53703   0.79288   0.05391   0.00000  Uiso   1.00
N135   N     0.72593   0.98299   0.05473   0.00000  Uiso   1.00
N136   N     0.72934   0.60448   0.20459   0.00000  Uiso   1.00
N137   N     0.53979   0.79259   0.20564   0.00000  Uiso   1.00
N138   N     0.72869   0.98270   0.20646   0.00000  Uiso   1.00
C139   C     0.16295   0.29356   0.04048   0.00000  Uiso   1.00
C140   C     0.18117   0.24147   0.08097   0.00000  Uiso   1.00
C141   C     0.19494   0.19782   0.03050   0.00000  Uiso   1.00
C142   C     0.21056   0.15393   0.08043   0.00000  Uiso   1.00
C143   C     0.23856   0.07305   0.12856   0.00000  Uiso   1.00
C144   C     0.12892   0.29330   0.08126   0.00000  Uiso   1.00
C145   C     0.09877   0.29324   0.03103   0.00000  Uiso   1.00
C146   C     0.07041   0.29299   0.08121   0.00000  Uiso   1.00
C147   C     0.01730   0.29263   0.12979   0.00000  Uiso   1.00
C148   C     0.18099   0.34569   0.08149   0.00000  Uiso   1.00
C149   C     0.19461   0.38969   0.03145   0.00000  Uiso   1.00
C150   C     0.21008   0.43355   0.08182   0.00000  Uiso   1.00
C151   C     0.23781   0.51453   0.13074   0.00000  Uiso   1.00
C152   C     0.16620   0.29323   0.21891   0.00000  Uiso   1.00
C153   C     0.18293   0.24129   0.17789   0.00000  Uiso   1.00
C154   C     0.19853   0.19745   0.22791   0.00000  Uiso   1.00
C155   C     0.21233   0.15374   0.17752   0.00000  Uiso   1.00
C156   C     0.13069   0.29312   0.17817   0.00000  Uiso   1.00
C157   C     0.10237   0.29287   0.22844   0.00000  Uiso   1.00
C158   C     0.07218   0.29281   0.17830   0.00000  Uiso   1.00
C159   C     0.18276   0.34551   0.17840   0.00000  Uiso   1.00
C160   C     0.19820   0.38931   0.22886   0.00000  Uiso   1.00
C161   C     0.21184   0.43337   0.17891   0.00000  Uiso   1.00
H162   H     0.16158   0.29371   0.96503   0.00000  Uiso   1.00
H163   H     0.19357   0.19797   0.95550   0.00000  Uiso   1.00
H164   H     0.09741   0.29339   0.95604   0.00000  Uiso   1.00
H165   H     0.19324   0.38981   0.95645   0.00000  Uiso   1.00
H166   H     0.22980   0.09175   0.98767   0.00000  Uiso   1.00
H167   H     0.02706   0.29296   0.98880   0.00000  Uiso   1.00
H168   H     0.22912   0.49629   0.98967   0.00000  Uiso   1.00
H169   H     0.16757   0.29309   0.29437   0.00000  Uiso   1.00
H170   H     0.19989   0.19732   0.30291   0.00000  Uiso   1.00
H171   H     0.10374   0.29273   0.30344   0.00000  Uiso   1.00
H172   H     0.19956   0.38916   0.30385   0.00000  Uiso   1.00
H173   H     0.23493   0.09121   0.26964   0.00000  Uiso   1.00
H174   H     0.03219   0.29243   0.27077   0.00000  Uiso   1.00
H175   H     0.23425   0.49576   0.27164   0.00000  Uiso   1.00
O176   O     0.25351   0.02848   0.12833   0.00000  Uiso   1.00
O177   O     0.98752   0.29247   0.12981   0.00000  Uiso   1.00
O178   O     0.25262   0.55924   0.13096   0.00000  Uiso   1.00
N179   N     0.22658   0.10477   0.05286   0.00000  Uiso   1.00
N180   N     0.03703   0.29288   0.05391   0.00000  Uiso   1.00
N181   N     0.22593   0.48299   0.05473   0.00000  Uiso   1.00
N182   N     0.22934   0.10448   0.20459   0.00000  Uiso   1.00
N183   N     0.03979   0.29259   0.20564   0.00000  Uiso   1.00
N184   N     0.22869   0.48270   0.20646   0.00000  Uiso   1.00
C185   C     0.66295   0.20644   0.54048   0.00000  Uiso   1.00
C186   C     0.68117   0.25853   0.58097   0.00000  Uiso   1.00
C187   C     0.69494   0.30218   0.53050   0.00000  Uiso   1.00
C188   C     0.71056   0.34607   0.58043   0.00000  Uiso   1.00
C189   C     0.73856   0.42695   0.62856   0.00000  Uiso   1.00
C190   C     0.62892   0.20670   0.58126   0.00000  Uiso   1.00
C191   C     0.59877   0.20676   0.53103   0.00000  Uiso   1.00
C192   C     0.57041   0.20701   0.58121   0.00000  Uiso   1.00
C193   C     0.51730   0.20737   0.62979   0.00000  Uiso   1.00
C194   C     0.68099   0.15431   0.58149   0.00000  Uiso   1.00
C195   C     0.69461   0.11031   0.53145   0.00000  Uiso   1.00
C196   C     0.71008   0.06645   0.58182   0.00000  Uiso   1.00
C197   C     0.73781   0.98547   0.63074   0.00000  Uiso   1.00
C198   C     0.66620   0.20677   0.71891   0.00000  Uiso   1.00
C199   C     0.68293   0.25871   0.67789   0.00000  Uiso   1.00
C200   C     0.69853   0.30255   0.72791   0.00000  Uiso   1.00
C201   C     0.71233   0.34626   0.67752   0.00000  Uiso   1.00
C202   C     0.63069   0.20688   0.67817   0.00000  Uiso   1.00
C203   C     0.60237   0.20713   0.72844   0.00000  Uiso   1.00
C204   C     0.57218   0.20719   0.67830   0.00000  Uiso   1.00
C205   C     0.68276   0.15449   0.67840   0.00000  Uiso   1.00
C206   C     0.69820   0.11069   0.72886   0.00000  Uiso   1.00
C207   C     0.71184   0.06663   0.67891   0.00000  Uiso   1.00
H208   H     0.66158   0.20629   0.46503   0.00000  Uiso   1.00
H209   H     0.69357   0.30203   0.45550   0.00000  Uiso   1.00
H210   H     0.59741   0.20661   0.45604   0.00000  Uiso   1.00
H211   H     0.69324   0.11019   0.45645   0.00000  Uiso   1.00
H212   H     0.72980   0.40825   0.48767   0.00000  Uiso   1.00
H213   H     0.52706   0.20704   0.48880   0.00000  Uiso   1.00
H214   H     0.72912   0.00371   0.48967   0.00000  Uiso   1.00
H215   H     0.66757   0.20691   0.79437   0.00000  Uiso   1.00
H216   H     0.69989   0.30268   0.80291   0.00000  Uiso   1.00
H217   H     0.60374   0.20727   0.80344   0.00000  Uiso   1.00
H218   H     0.69956   0.11084   0.80385   0.00000  Uiso   1.00
H219   H     0.73493   0.40879   0.76964   0.00000  Uiso   1.00
H220   H     0.53219   0.20757   0.77077   0.00000  Uiso   1.00
H221   H     0.73425   0.00424   0.77164   0.00000  Uiso   1.00
O222   O     0.75351   0.47152   0.62833   0.00000  Uiso   1.00
O223   O     0.48752   0.20753   0.62981   0.00000  Uiso   1.00
O224   O     0.75262   0.94076   0.63096   0.00000  Uiso   1.00
N225   N     0.72658   0.39523   0.55286   0.00000  Uiso   1.00
N226   N     0.53703   0.20712   0.55391   0.00000  Uiso   1.00
N227   N     0.72593   0.01701   0.55473   0.00000  Uiso   1.00
N228   N     0.72934   0.39552   0.70459   0.00000  Uiso   1.00
N229   N     0.53979   0.20741   0.70564   0.00000  Uiso   1.00
N230   N     0.72869   0.01730   0.70646   0.00000  Uiso   1.00
C231   C     0.16295   0.70644   0.54048   0.00000  Uiso   1.00
C232   C     0.18117   0.75853   0.58097   0.00000  Uiso   1.00
C233   C     0.19494   0.80218   0.53050   0.00000  Uiso   1.00
C234   C     0.21056   0.84607   0.58043   0.00000  Uiso   1.00
C235   C     0.23856   0.92695   0.62856   0.00000  Uiso   1.00
C236   C     0.12892   0.70670   0.58126   0.00000  Uiso   1.00
C237   C     0.09877   0.70676   0.53103   0.00000  Uiso   1.00
C238   C     0.07041   0.70701   0.58121   0.00000  Uiso   1.00
C239   C     0.01730   0.70737   0.62979   0.00000  Uiso   1.00
C240   C     0.18099   0.65431   0.58149   0.00000  Uiso   1.00
C241   C     0.19461   0.61031   0.53145   0.00000  Uiso   1.00
C242   C     0.21008   0.56645   0.58182   0.00000  Uiso   1.00
C243   C     0.23781   0.48547   0.63074   0.00000  Uiso   1.00
C244   C     0.16620   0.70677   0.71891   0.00000  Uiso   1.00
C245   C     0.18293   0.75871   0.67789   0.00000  Uiso   1.00
C246   C     0.19853   0.80255   0.72791   0.00000  Uiso   1.00
C247   C     0.21233   0.84626   0.67752   0.00000  Uiso   1.00
C248   C     0.13069   0.70688   0.67817   0.00000  Uiso   1.00
C249   C     0.10237   0.70713   0.72844   0.00000  Uiso   1.00
C250   C     0.07218   0.70719   0.67830   0.00000  Uiso   1.00
C251   C     0.18276   0.65449   0.67840   0.00000  Uiso   1.00
C252   C     0.19820   0.61069   0.72886   0.00000  Uiso   1.00
C253   C     0.21184   0.56663   0.67891   0.00000  Uiso   1.00
H254   H     0.16158   0.70629   0.46503   0.00000  Uiso   1.00
H255   H     0.19357   0.80203   0.45550   0.00000  Uiso   1.00
H256   H     0.09741   0.70661   0.45604   0.00000  Uiso   1.00
H257   H     0.19324   0.61019   0.45645   0.00000  Uiso   1.00
H258   H     0.22980   0.90825   0.48767   0.00000  Uiso   1.00
H259   H     0.02706   0.70704   0.48880   0.00000  Uiso   1.00
H260   H     0.22912   0.50371   0.48967   0.00000  Uiso   1.00
H261   H     0.16757   0.70691   0.79437   0.00000  Uiso   1.00
H262   H     0.19989   0.80268   0.80291   0.00000  Uiso   1.00
H263   H     0.10374   0.70727   0.80344   0.00000  Uiso   1.00
H264   H     0.19956   0.61084   0.80385   0.00000  Uiso   1.00
H265   H     0.23493   0.90879   0.76964   0.00000  Uiso   1.00
H266   H     0.03219   0.70757   0.77077   0.00000  Uiso   1.00
H267   H     0.23425   0.50424   0.77164   0.00000  Uiso   1.00
O268   O     0.25351   0.97152   0.62833   0.00000  Uiso   1.00
O269   O     0.98752   0.70753   0.62981   0.00000  Uiso   1.00
O270   O     0.25262   0.44076   0.63096   0.00000  Uiso   1.00
N271   N     0.22658   0.89523   0.55286   0.00000  Uiso   1.00
N272   N     0.03703   0.70712   0.55391   0.00000  Uiso   1.00
N273   N     0.22593   0.51701   0.55473   0.00000  Uiso   1.00
N274   N     0.22934   0.89552   0.70459   0.00000  Uiso   1.00
N275   N     0.03979   0.70741   0.70564   0.00000  Uiso   1.00
N276   N     0.22869   0.51730   0.70646   0.00000  Uiso   1.00
C277   C     0.33705   0.20644   0.95952   0.00000  Uiso   1.00
C278   C     0.31883   0.25853   0.91903   0.00000  Uiso   1.00
C279   C     0.30506   0.30218   0.96950   0.00000  Uiso   1.00
C280   C     0.28944   0.34607   0.91957   0.00000  Uiso   1.00
C281   C     0.26144   0.42695   0.87144   0.00000  Uiso   1.00
C282   C     0.37108   0.20670   0.91874   0.00000  Uiso   1.00
C283   C     0.40123   0.20676   0.96897   0.00000  Uiso   1.00
C284   C     0.42959   0.20701   0.91879   0.00000  Uiso   1.00
C285   C     0.48270   0.20737   0.87021   0.00000  Uiso   1.00
C286   C     0.31901   0.15431   0.91851   0.00000  Uiso   1.00
C287   C     0.30539   0.11031   0.96855   0.00000  Uiso   1.00
C288   C     0.28992   0.06645   0.91818   0.00000  Uiso   1.00
C289   C     0.26219   0.98547   0.86926   0.00000  Uiso   1.00
C290   C     0.33380   0.20677   0.78109   0.00000  Uiso   1.00
C291   C     0.31707   0.25871   0.82211   0.00000  Uiso   1.00
C292   C     0.30147   0.30255   0.77209   0.00000  Uiso   1.00
C293   C     0.28767   0.34626   0.82248   0.00000  Uiso   1.00
C294   C     0.36931   0.20688   0.82183   0.00000  Uiso   1.00
C295   C     0.39763   0.20713   0.77156   0.00000  Uiso   1.00
C296   C     0.42782   0.20719   0.82170   0.00000  Uiso   1.00
C297   C     0.31724   0.15449   0.82160   0.00000  Uiso   1.00
C298   C     0.30180   0.11069   0.77114   0.00000  Uiso   1.00
C299   C     0.28816   0.06663   0.82109   0.00000  Uiso   1.00
H300   H     0.33842   0.20629   0.03497   0.00000  Uiso   1.00
H301   H     0.30643   0.30203   0.04450   0.00000  Uiso   1.00
H302   H     0.40259   0.20661   0.04396   0.00000  Uiso   1.00
H303   H     0.30676   0.11019   0.04355   0.00000  Uiso   1.00
H304   H     0.27020   0.40825   0.01233   0.00000  Uiso   1.00
H305   H     0.47294   0.20704   0.01120   0.00000  Uiso   1.00
H306   H     0.27088   0.00371   0.01033   0.00000  Uiso   1.00
H307   H     0.33243   0.20691   0.70563   0.00000  Uiso   1.00
H308   H     0.30011   0.30268   0.69709   0.00000  Uiso   1.00
H309   H     0.39626   0.20727   0.69656   0.00000  Uiso   1.00
H310   H     0.30044   0.11084   0.69615   0.00000  Uiso   1.00
H311   H     0.26507   0.40879   0.73036   0.00000  Uiso   1.00
H312   H     0.46781   0.20757   0.72923   0.00000  Uiso   1.00
H313   H     0.26575   0.00424   0.72836   0.00000  Uiso   1.00
O314   O     0.24649   0.47152   0.87167   0.00000  Uiso   1.00
O315   O     0.51248   0.20753   0.87019   0.00000  Uiso   1.00
O316   O     0.24738   0.94076   0.86904   0.00000  Uiso   1.00
N317   N     0.27342   0.39523   0.94714   0.00000  Uiso   1.00
N318   N     0.46297   0.20712   0.94609   0.00000  Uiso   1.00
N319   N     0.27407   0.01701   0.94527   0.00000  Uiso   1.00
N320   N     0.27066   0.39552   0.79541   0.00000  Uiso   1.00
N321   N     0.46021   0.20741   0.79436   0.00000  Uiso   1.00
N322   N     0.27131   0.01730   0.79354   0.00000  Uiso   1.00
C323   C     0.83705   0.70644   0.95952   0.00000  Uiso   1.00
C324   C     0.81883   0.75853   0.91903   0.00000  Uiso   1.00
C325   C     0.80506   0.80218   0.96950   0.00000  Uiso   1.00
C326   C     0.78944   0.84607   0.91957   0.00000  Uiso   1.00
C327   C     0.76144   0.92695   0.87144   0.00000  Uiso   1.00
C328   C     0.87108   0.70670   0.91874   0.00000  Uiso   1.00
C329   C     0.90123   0.70676   0.96897   0.00000  Uiso   1.00
C330   C     0.92959   0.70701   0.91879   0.00000  Uiso   1.00
C331   C     0.98270   0.70737   0.87021   0.00000  Uiso   1.00
C332   C     0.81901   0.65431   0.91851   0.00000  Uiso   1.00
C333   C     0.80539   0.61031   0.96855   0.00000  Uiso   1.00
C334   C     0.78992   0.56645   0.91818   0.00000  Uiso   1.00
C335   C     0.76219   0.48547   0.86926   0.00000  Uiso   1.00
C336   C     0.83380   0.70677   0.78109   0.00000  Uiso   1.00
C337   C     0.81707   0.75871   0.82211   0.00000  Uiso   1.00
C338   C     0.80147   0.80255   0.77209   0.00000  Uiso   1.00
C339   C     0.78767   0.84626   0.82248   0.00000  Uiso   1.00
C340   C     0.86931   0.70688   0.82183   0.00000  Uiso   1.00
C341   C     0.89763   0.70713   0.77156   0.00000  Uiso   1.00
C342   C     0.92782   0.70719   0.82170   0.00000  Uiso   1.00
C343   C     0.81724   0.65449   0.82160   0.00000  Uiso   1.00
C344   C     0.80180   0.61069   0.77114   0.00000  Uiso   1.00
C345   C     0.78816   0.56663   0.82109   0.00000  Uiso   1.00
H346   H     0.83842   0.70629   0.03497   0.00000  Uiso   1.00
H347   H     0.80643   0.80203   0.04450   0.00000  Uiso   1.00
H348   H     0.90259   0.70661   0.04396   0.00000  Uiso   1.00
H349   H     0.80676   0.61019   0.04355   0.00000  Uiso   1.00
H350   H     0.77020   0.90825   0.01233   0.00000  Uiso   1.00
H351   H     0.97294   0.70704   0.01120   0.00000  Uiso   1.00
H352   H     0.77088   0.50371   0.01033   0.00000  Uiso   1.00
H353   H     0.83243   0.70691   0.70563   0.00000  Uiso   1.00
H354   H     0.80011   0.80268   0.69709   0.00000  Uiso   1.00
H355   H     0.89626   0.70727   0.69656   0.00000  Uiso   1.00
H356   H     0.80044   0.61084   0.69615   0.00000  Uiso   1.00
H357   H     0.76507   0.90879   0.73036   0.00000  Uiso   1.00
H358   H     0.96781   0.70757   0.72923   0.00000  Uiso   1.00
H359   H     0.76575   0.50424   0.72836   0.00000  Uiso   1.00
O360   O     0.74649   0.97152   0.87167   0.00000  Uiso   1.00
O361   O     0.01248   0.70753   0.87019   0.00000  Uiso   1.00
O362   O     0.74738   0.44076   0.86904   0.00000  Uiso   1.00
N363   N     0.77342   0.89523   0.94714   0.00000  Uiso   1.00
N364   N     0.96297   0.70712   0.94609   0.00000  Uiso   1.00
N365   N     0.77407   0.51701   0.94527   0.00000  Uiso   1.00
N366   N     0.77066   0.89552   0.79541   0.00000  Uiso   1.00
N367   N     0.96021   0.70741   0.79436   0.00000  Uiso   1.00
N368   N     0.77131   0.51730   0.79354   0.00000  Uiso   1.00
