data_job_05937
_audit_creation_date              2018-12-19
_audit_creation_method            'Materials Studio'
_symmetry_space_group_name_H-M    'P1'
_symmetry_Int_Tables_number       1
_symmetry_cell_setting            triclinic
loop_
_symmetry_equiv_pos_as_xyz
  x,y,z
_cell_length_a                    21.9451
_cell_length_b                    23.8672
_cell_length_c                    24.5305
_cell_angle_alpha                 111.3080
_cell_angle_beta                  72.0717
_cell_angle_gamma                 74.7988
loop_
_atom_site_label
_atom_site_type_symbol
_atom_site_fract_x
_atom_site_fract_y
_atom_site_fract_z
_atom_site_U_iso_or_equiv
_atom_site_adp_type
_atom_site_occupancy
C1     C     0.02563   0.33104   0.66565   0.00000  Uiso   1.00
C2     C     0.05259   0.36757   0.63113   0.00000  Uiso   1.00
C3     C     0.02035   0.39644   0.60155   0.00000  Uiso   1.00
C4     C     0.05334   0.42752   0.57259   0.00000  Uiso   1.00
C5     C     0.08564   0.48389   0.51887   0.00000  Uiso   1.00
C6     C     0.08565   0.26218   0.63184   0.00000  Uiso   1.00
C7     C     0.08121   0.20245   0.60286   0.00000  Uiso   1.00
C8     C     0.14204   0.14483   0.57450   0.00000  Uiso   1.00
C9     C     0.22566   0.03758   0.52192   0.00000  Uiso   1.00
C10    C     0.01810   0.36601   0.73477   0.00000  Uiso   1.00
C11    C     0.95685   0.39356   0.79234   0.00000  Uiso   1.00
C12    C     0.96081   0.42333   0.85063   0.00000  Uiso   1.00
C13    C     0.93954   0.47730   0.95786   0.00000  Uiso   1.00
C14    C     0.14156   0.33490   0.66681   0.00000  Uiso   1.00
C15    C     0.11556   0.36966   0.63177   0.00000  Uiso   1.00
C16    C     0.14861   0.40071   0.60284   0.00000  Uiso   1.00
C17    C     0.11643   0.42963   0.57322   0.00000  Uiso   1.00
C18    C     0.14862   0.26427   0.63247   0.00000  Uiso   1.00
C19    C     0.20947   0.20672   0.60415   0.00000  Uiso   1.00
C20    C     0.20512   0.14692   0.57513   0.00000  Uiso   1.00
C21    C     0.08107   0.36810   0.73540   0.00000  Uiso   1.00
C22    C     0.08512   0.39783   0.79362   0.00000  Uiso   1.00
C23    C     0.02390   0.42543   0.85126   0.00000  Uiso   1.00
H24    H     0.97661   0.32940   0.66516   0.00000  Uiso   1.00
H25    H     0.97162   0.39480   0.60107   0.00000  Uiso   1.00
H26    H     0.03247   0.20085   0.60239   0.00000  Uiso   1.00
H27    H     0.90813   0.39193   0.79183   0.00000  Uiso   1.00
H28    H     0.99387   0.46821   0.53028   0.00000  Uiso   1.00
H29    H     0.12217   0.05925   0.53307   0.00000  Uiso   1.00
H30    H     0.85999   0.46218   0.93254   0.00000  Uiso   1.00
H31    H     0.19059   0.33652   0.66730   0.00000  Uiso   1.00
H32    H     0.19735   0.40232   0.60334   0.00000  Uiso   1.00
H33    H     0.25819   0.20836   0.60465   0.00000  Uiso   1.00
H34    H     0.13386   0.39944   0.79409   0.00000  Uiso   1.00
H35    H     0.17708   0.47431   0.53211   0.00000  Uiso   1.00
H36    H     0.30538   0.06534   0.53491   0.00000  Uiso   1.00
H37    H     0.04320   0.46828   0.93438   0.00000  Uiso   1.00
O38    O     0.08607   0.51440   0.48905   0.00000  Uiso   1.00
O39    O     0.25438   0.97785   0.49274   0.00000  Uiso   1.00
O40    O     0.91041   0.50649   0.01683   0.00000  Uiso   1.00
N41    N     0.03605   0.46063   0.53950   0.00000  Uiso   1.00
N42    N     0.15601   0.07827   0.54210   0.00000  Uiso   1.00
N43    N     0.91090   0.45496   0.91558   0.00000  Uiso   1.00
N44    N     0.13464   0.46391   0.54049   0.00000  Uiso   1.00
N45    N     0.25459   0.08156   0.54309   0.00000  Uiso   1.00
N46    N     0.00948   0.45824   0.91656   0.00000  Uiso   1.00
C47    C     0.69163   0.33168   0.66662   0.00000  Uiso   1.00
C48    C     0.68411   0.36661   0.73574   0.00000  Uiso   1.00
C49    C     0.62284   0.39426   0.79331   0.00000  Uiso   1.00
C50    C     0.62680   0.42400   0.85160   0.00000  Uiso   1.00
C51    C     0.60553   0.47796   0.95883   0.00000  Uiso   1.00
C52    C     0.71871   0.36817   0.63211   0.00000  Uiso   1.00
C53    C     0.68653   0.39712   0.60254   0.00000  Uiso   1.00
C54    C     0.71963   0.42815   0.57359   0.00000  Uiso   1.00
C55    C     0.75211   0.48449   0.51988   0.00000  Uiso   1.00
C56    C     0.75156   0.26278   0.63281   0.00000  Uiso   1.00
C57    C     0.74702   0.20311   0.60381   0.00000  Uiso   1.00
C58    C     0.80778   0.14541   0.57543   0.00000  Uiso   1.00
C59    C     0.89127   0.03811   0.52281   0.00000  Uiso   1.00
C60    C     0.80763   0.33533   0.66779   0.00000  Uiso   1.00
C61    C     0.74712   0.36859   0.73637   0.00000  Uiso   1.00
C62    C     0.75118   0.39829   0.79460   0.00000  Uiso   1.00
C63    C     0.68992   0.42598   0.85224   0.00000  Uiso   1.00
C64    C     0.78171   0.37015   0.63274   0.00000  Uiso   1.00
C65    C     0.81487   0.40114   0.60383   0.00000  Uiso   1.00
C66    C     0.78276   0.43014   0.57422   0.00000  Uiso   1.00
C67    C     0.81457   0.26475   0.63344   0.00000  Uiso   1.00
C68    C     0.87536   0.20714   0.60510   0.00000  Uiso   1.00
C69    C     0.87090   0.14740   0.57606   0.00000  Uiso   1.00
H70    H     0.64258   0.33014   0.66613   0.00000  Uiso   1.00
H71    H     0.57409   0.39272   0.79280   0.00000  Uiso   1.00
H72    H     0.63778   0.39557   0.60205   0.00000  Uiso   1.00
H73    H     0.69825   0.20160   0.60333   0.00000  Uiso   1.00
H74    H     0.52593   0.46300   0.93351   0.00000  Uiso   1.00
H75    H     0.66024   0.46898   0.53129   0.00000  Uiso   1.00
H76    H     0.78776   0.05995   0.53398   0.00000  Uiso   1.00
H77    H     0.85669   0.33687   0.66828   0.00000  Uiso   1.00
H78    H     0.79994   0.39981   0.79507   0.00000  Uiso   1.00
H79    H     0.86363   0.40266   0.60432   0.00000  Uiso   1.00
H80    H     0.92411   0.20869   0.60560   0.00000  Uiso   1.00
H81    H     0.70924   0.46875   0.93536   0.00000  Uiso   1.00
H82    H     0.84356   0.47474   0.53313   0.00000  Uiso   1.00
H83    H     0.97107   0.06571   0.53582   0.00000  Uiso   1.00
O84    O     0.57639   0.50718   0.01780   0.00000  Uiso   1.00
O85    O     0.75261   0.51502   0.49010   0.00000  Uiso   1.00
O86    O     0.91990   0.97838   0.49362   0.00000  Uiso   1.00
N87    N     0.57686   0.45570   0.91655   0.00000  Uiso   1.00
N88    N     0.70243   0.46131   0.54050   0.00000  Uiso   1.00
N89    N     0.82165   0.07889   0.54300   0.00000  Uiso   1.00
N90    N     0.67550   0.45880   0.91754   0.00000  Uiso   1.00
N91    N     0.80107   0.46440   0.54150   0.00000  Uiso   1.00
N92    N     0.92029   0.08199   0.54399   0.00000  Uiso   1.00
C93    C     0.35902   0.33146   0.66601   0.00000  Uiso   1.00
C94    C     0.41897   0.26255   0.63215   0.00000  Uiso   1.00
C95    C     0.41439   0.20289   0.60325   0.00000  Uiso   1.00
C96    C     0.47516   0.14520   0.57484   0.00000  Uiso   1.00
C97    C     0.55864   0.03790   0.52222   0.00000  Uiso   1.00
C98    C     0.35162   0.36639   0.73508   0.00000  Uiso   1.00
C99    C     0.29042   0.39404   0.79271   0.00000  Uiso   1.00
C100   C     0.29450   0.42377   0.85095   0.00000  Uiso   1.00
C101   C     0.27342   0.47772   0.95813   0.00000  Uiso   1.00
C102   C     0.38600   0.36795   0.63145   0.00000  Uiso   1.00
C103   C     0.35370   0.39692   0.60197   0.00000  Uiso   1.00
C104   C     0.38673   0.42797   0.57297   0.00000  Uiso   1.00
C105   C     0.41903   0.48434   0.51925   0.00000  Uiso   1.00
C106   C     0.47509   0.33511   0.66696   0.00000  Uiso   1.00
C107   C     0.48201   0.26454   0.63268   0.00000  Uiso   1.00
C108   C     0.54281   0.20692   0.60430   0.00000  Uiso   1.00
C109   C     0.53832   0.14718   0.57535   0.00000  Uiso   1.00
C110   C     0.41467   0.36837   0.73560   0.00000  Uiso   1.00
C111   C     0.41884   0.39807   0.79377   0.00000  Uiso   1.00
C112   C     0.35766   0.42575   0.85147   0.00000  Uiso   1.00
C113   C     0.44905   0.36993   0.63197   0.00000  Uiso   1.00
C114   C     0.48213   0.40095   0.60302   0.00000  Uiso   1.00
C115   C     0.44988   0.42996   0.57349   0.00000  Uiso   1.00
H116   H     0.30993   0.32993   0.66561   0.00000  Uiso   1.00
H117   H     0.36558   0.20138   0.60286   0.00000  Uiso   1.00
H118   H     0.24164   0.39250   0.79230   0.00000  Uiso   1.00
H119   H     0.30492   0.39538   0.60157   0.00000  Uiso   1.00
H120   H     0.45508   0.05973   0.53354   0.00000  Uiso   1.00
H121   H     0.19373   0.46275   0.93297   0.00000  Uiso   1.00
H122   H     0.32716   0.46881   0.53081   0.00000  Uiso   1.00
H123   H     0.52417   0.33665   0.66737   0.00000  Uiso   1.00
H124   H     0.59159   0.20847   0.60471   0.00000  Uiso   1.00
H125   H     0.46764   0.39960   0.79415   0.00000  Uiso   1.00
H126   H     0.53091   0.40247   0.60343   0.00000  Uiso   1.00
H127   H     0.63851   0.06548   0.53504   0.00000  Uiso   1.00
H128   H     0.37715   0.46851   0.93448   0.00000  Uiso   1.00
H129   H     0.51058   0.47457   0.53231   0.00000  Uiso   1.00
O130   O     0.58727   0.97816   0.49306   0.00000  Uiso   1.00
O131   O     0.24438   0.50692   0.01710   0.00000  Uiso   1.00
O132   O     0.41944   0.51487   0.48946   0.00000  Uiso   1.00
N133   N     0.48900   0.07868   0.54248   0.00000  Uiso   1.00
N134   N     0.24465   0.45547   0.91593   0.00000  Uiso   1.00
N135   N     0.36939   0.46115   0.53995   0.00000  Uiso   1.00
N136   N     0.58771   0.08177   0.54329   0.00000  Uiso   1.00
N137   N     0.34336   0.45856   0.91674   0.00000  Uiso   1.00
N138   N     0.46809   0.46425   0.54076   0.00000  Uiso   1.00
C139   C     0.97437   0.66896   0.33435   0.00000  Uiso   1.00
C140   C     0.94741   0.63243   0.36887   0.00000  Uiso   1.00
C141   C     0.97965   0.60356   0.39845   0.00000  Uiso   1.00
C142   C     0.94666   0.57248   0.42741   0.00000  Uiso   1.00
C143   C     0.91436   0.51611   0.48113   0.00000  Uiso   1.00
C144   C     0.91435   0.73782   0.36816   0.00000  Uiso   1.00
C145   C     0.91879   0.79755   0.39714   0.00000  Uiso   1.00
C146   C     0.85796   0.85517   0.42550   0.00000  Uiso   1.00
C147   C     0.77434   0.96242   0.47808   0.00000  Uiso   1.00
C148   C     0.98190   0.63399   0.26523   0.00000  Uiso   1.00
C149   C     0.04315   0.60644   0.20766   0.00000  Uiso   1.00
C150   C     0.03919   0.57667   0.14937   0.00000  Uiso   1.00
C151   C     0.06046   0.52271   0.04214   0.00000  Uiso   1.00
C152   C     0.85844   0.66510   0.33319   0.00000  Uiso   1.00
C153   C     0.88444   0.63034   0.36824   0.00000  Uiso   1.00
C154   C     0.85139   0.59929   0.39716   0.00000  Uiso   1.00
C155   C     0.88357   0.57037   0.42678   0.00000  Uiso   1.00
C156   C     0.85138   0.73573   0.36753   0.00000  Uiso   1.00
C157   C     0.79053   0.79328   0.39585   0.00000  Uiso   1.00
C158   C     0.79488   0.85308   0.42487   0.00000  Uiso   1.00
C159   C     0.91893   0.63190   0.26460   0.00000  Uiso   1.00
C160   C     0.91488   0.60217   0.20638   0.00000  Uiso   1.00
C161   C     0.97610   0.57457   0.14874   0.00000  Uiso   1.00
H162   H     0.02339   0.67060   0.33484   0.00000  Uiso   1.00
H163   H     0.02838   0.60520   0.39893   0.00000  Uiso   1.00
H164   H     0.96753   0.79915   0.39761   0.00000  Uiso   1.00
H165   H     0.09187   0.60807   0.20817   0.00000  Uiso   1.00
H166   H     0.00613   0.53179   0.46972   0.00000  Uiso   1.00
H167   H     0.87783   0.94075   0.46693   0.00000  Uiso   1.00
H168   H     0.14001   0.53782   0.06746   0.00000  Uiso   1.00
H169   H     0.80941   0.66348   0.33270   0.00000  Uiso   1.00
H170   H     0.80265   0.59768   0.39667   0.00000  Uiso   1.00
H171   H     0.74181   0.79164   0.39535   0.00000  Uiso   1.00
H172   H     0.86614   0.60056   0.20591   0.00000  Uiso   1.00
H173   H     0.82292   0.52569   0.46789   0.00000  Uiso   1.00
H174   H     0.69462   0.93466   0.46509   0.00000  Uiso   1.00
H175   H     0.95680   0.53172   0.06562   0.00000  Uiso   1.00
O176   O     0.91393   0.48560   0.51095   0.00000  Uiso   1.00
O177   O     0.74562   0.02215   0.50726   0.00000  Uiso   1.00
O178   O     0.08959   0.49351   0.98317   0.00000  Uiso   1.00
N179   N     0.96395   0.53937   0.46050   0.00000  Uiso   1.00
N180   N     0.84399   0.92173   0.45790   0.00000  Uiso   1.00
N181   N     0.08910   0.54504   0.08442   0.00000  Uiso   1.00
N182   N     0.86536   0.53609   0.45951   0.00000  Uiso   1.00
N183   N     0.74541   0.91844   0.45691   0.00000  Uiso   1.00
N184   N     0.99052   0.54176   0.08344   0.00000  Uiso   1.00
C185   C     0.30837   0.66832   0.33338   0.00000  Uiso   1.00
C186   C     0.31589   0.63339   0.26426   0.00000  Uiso   1.00
C187   C     0.37716   0.60574   0.20669   0.00000  Uiso   1.00
C188   C     0.37320   0.57600   0.14840   0.00000  Uiso   1.00
C189   C     0.39447   0.52204   0.04117   0.00000  Uiso   1.00
C190   C     0.28129   0.63183   0.36789   0.00000  Uiso   1.00
C191   C     0.31347   0.60289   0.39746   0.00000  Uiso   1.00
C192   C     0.28037   0.57185   0.42641   0.00000  Uiso   1.00
C193   C     0.24789   0.51551   0.48012   0.00000  Uiso   1.00
C194   C     0.24844   0.73722   0.36719   0.00000  Uiso   1.00
C195   C     0.25298   0.79689   0.39619   0.00000  Uiso   1.00
C196   C     0.19222   0.85459   0.42457   0.00000  Uiso   1.00
C197   C     0.10873   0.96189   0.47719   0.00000  Uiso   1.00
C198   C     0.19237   0.66467   0.33221   0.00000  Uiso   1.00
C199   C     0.25288   0.63141   0.26363   0.00000  Uiso   1.00
C200   C     0.24882   0.60171   0.20540   0.00000  Uiso   1.00
C201   C     0.31008   0.57402   0.14776   0.00000  Uiso   1.00
C202   C     0.21829   0.62985   0.36726   0.00000  Uiso   1.00
C203   C     0.18513   0.59886   0.39617   0.00000  Uiso   1.00
C204   C     0.21724   0.56986   0.42578   0.00000  Uiso   1.00
C205   C     0.18543   0.73525   0.36656   0.00000  Uiso   1.00
C206   C     0.12464   0.79286   0.39490   0.00000  Uiso   1.00
C207   C     0.12910   0.85260   0.42394   0.00000  Uiso   1.00
H208   H     0.35742   0.66986   0.33387   0.00000  Uiso   1.00
H209   H     0.42591   0.60728   0.20720   0.00000  Uiso   1.00
H210   H     0.36222   0.60443   0.39795   0.00000  Uiso   1.00
H211   H     0.30175   0.79840   0.39668   0.00000  Uiso   1.00
H212   H     0.47407   0.53700   0.06649   0.00000  Uiso   1.00
H213   H     0.33976   0.53102   0.46871   0.00000  Uiso   1.00
H214   H     0.21224   0.94005   0.46602   0.00000  Uiso   1.00
H215   H     0.14331   0.66313   0.33172   0.00000  Uiso   1.00
H216   H     0.20006   0.60019   0.20493   0.00000  Uiso   1.00
H217   H     0.13637   0.59734   0.39568   0.00000  Uiso   1.00
H218   H     0.07589   0.79131   0.39440   0.00000  Uiso   1.00
H219   H     0.29076   0.53125   0.06464   0.00000  Uiso   1.00
H220   H     0.15644   0.52526   0.46687   0.00000  Uiso   1.00
H221   H     0.02893   0.93429   0.46418   0.00000  Uiso   1.00
O222   O     0.42361   0.49282   0.98220   0.00000  Uiso   1.00
O223   O     0.24739   0.48498   0.50990   0.00000  Uiso   1.00
O224   O     0.08010   0.02162   0.50638   0.00000  Uiso   1.00
N225   N     0.42314   0.54430   0.08345   0.00000  Uiso   1.00
N226   N     0.29757   0.53869   0.45950   0.00000  Uiso   1.00
N227   N     0.17835   0.92111   0.45700   0.00000  Uiso   1.00
N228   N     0.32450   0.54120   0.08246   0.00000  Uiso   1.00
N229   N     0.19893   0.53560   0.45850   0.00000  Uiso   1.00
N230   N     0.07971   0.91801   0.45601   0.00000  Uiso   1.00
C231   C     0.64098   0.66854   0.33399   0.00000  Uiso   1.00
C232   C     0.58103   0.73745   0.36785   0.00000  Uiso   1.00
C233   C     0.58561   0.79711   0.39675   0.00000  Uiso   1.00
C234   C     0.52484   0.85480   0.42516   0.00000  Uiso   1.00
C235   C     0.44136   0.96210   0.47778   0.00000  Uiso   1.00
C236   C     0.64838   0.63361   0.26492   0.00000  Uiso   1.00
C237   C     0.70958   0.60596   0.20729   0.00000  Uiso   1.00
C238   C     0.70550   0.57623   0.14905   0.00000  Uiso   1.00
C239   C     0.72658   0.52228   0.04188   0.00000  Uiso   1.00
C240   C     0.61400   0.63205   0.36855   0.00000  Uiso   1.00
C241   C     0.64630   0.60308   0.39803   0.00000  Uiso   1.00
C242   C     0.61327   0.57203   0.42703   0.00000  Uiso   1.00
C243   C     0.58097   0.51566   0.48075   0.00000  Uiso   1.00
C244   C     0.52491   0.66489   0.33304   0.00000  Uiso   1.00
C245   C     0.51799   0.73546   0.36732   0.00000  Uiso   1.00
C246   C     0.45719   0.79308   0.39570   0.00000  Uiso   1.00
C247   C     0.46168   0.85282   0.42465   0.00000  Uiso   1.00
C248   C     0.58533   0.63163   0.26440   0.00000  Uiso   1.00
C249   C     0.58116   0.60193   0.20623   0.00000  Uiso   1.00
C250   C     0.64234   0.57425   0.14853   0.00000  Uiso   1.00
C251   C     0.55095   0.63007   0.36803   0.00000  Uiso   1.00
C252   C     0.51787   0.59905   0.39698   0.00000  Uiso   1.00
C253   C     0.55012   0.57004   0.42651   0.00000  Uiso   1.00
H254   H     0.69007   0.67007   0.33439   0.00000  Uiso   1.00
H255   H     0.63442   0.79862   0.39714   0.00000  Uiso   1.00
H256   H     0.75836   0.60750   0.20771   0.00000  Uiso   1.00
H257   H     0.69508   0.60462   0.39843   0.00000  Uiso   1.00
H258   H     0.54492   0.94027   0.46646   0.00000  Uiso   1.00
H259   H     0.80627   0.53725   0.06703   0.00000  Uiso   1.00
H260   H     0.67284   0.53119   0.46920   0.00000  Uiso   1.00
H261   H     0.47583   0.66335   0.33263   0.00000  Uiso   1.00
H262   H     0.40841   0.79153   0.39529   0.00000  Uiso   1.00
H263   H     0.53236   0.60040   0.20585   0.00000  Uiso   1.00
H264   H     0.46909   0.59753   0.39657   0.00000  Uiso   1.00
H265   H     0.36149   0.93452   0.46496   0.00000  Uiso   1.00
H266   H     0.62285   0.53149   0.06552   0.00000  Uiso   1.00
H267   H     0.48942   0.52543   0.46769   0.00000  Uiso   1.00
O268   O     0.41273   0.02184   0.50694   0.00000  Uiso   1.00
O269   O     0.75562   0.49308   0.98290   0.00000  Uiso   1.00
O270   O     0.58056   0.48513   0.51054   0.00000  Uiso   1.00
N271   N     0.51100   0.92132   0.45752   0.00000  Uiso   1.00
N272   N     0.75535   0.54453   0.08407   0.00000  Uiso   1.00
N273   N     0.63061   0.53885   0.46005   0.00000  Uiso   1.00
N274   N     0.41229   0.91823   0.45671   0.00000  Uiso   1.00
N275   N     0.65664   0.54144   0.08326   0.00000  Uiso   1.00
N276   N     0.53191   0.53575   0.45924   0.00000  Uiso   1.00
