data_job_00375
_audit_creation_date              2018-12-19
_audit_creation_method            'Materials Studio'
_symmetry_space_group_name_H-M    'P1'
_symmetry_Int_Tables_number       1
_symmetry_cell_setting            triclinic
loop_
_symmetry_equiv_pos_as_xyz
  x,y,z
_cell_length_a                    23.5621
_cell_length_b                    7.4166
_cell_length_c                    39.5189
_cell_angle_alpha                 90.0000
_cell_angle_beta                  137.3474
_cell_angle_gamma                 90.0000
loop_
_atom_site_label
_atom_site_type_symbol
_atom_site_fract_x
_atom_site_fract_y
_atom_site_fract_z
_atom_site_U_iso_or_equiv
_atom_site_adp_type
_atom_site_occupancy
C1     C     0.75781   0.53143   0.88228   0.00000  Uiso   1.00
C2     C     0.72040   0.42374   0.89507   0.00000  Uiso   1.00
C3     C     0.71160   0.48377   0.92428   0.00000  Uiso   1.00
C4     C     0.67587   0.36487   0.93159   0.00000  Uiso   1.00
C5     C     0.62177   0.22389   0.95468   0.00000  Uiso   1.00
C6     C     0.82932   0.41722   0.89966   0.00000  Uiso   1.00
C7     C     0.91209   0.47179   0.93273   0.00000  Uiso   1.00
C8     C     0.96804   0.34741   0.94391   0.00000  Uiso   1.00
C9     C     0.08302   0.19637   0.97411   0.00000  Uiso   1.00
C10    C     0.69097   0.53545   0.82542   0.00000  Uiso   1.00
C11    C     0.65743   0.68942   0.79606   0.00000  Uiso   1.00
C12    C     0.59691   0.66457   0.74472   0.00000  Uiso   1.00
C13    C     0.49708   0.69709   0.65964   0.00000  Uiso   1.00
C14    C     0.71001   0.21351   0.84332   0.00000  Uiso   1.00
C15    C     0.69444   0.25106   0.87391   0.00000  Uiso   1.00
C16    C     0.65871   0.13204   0.88117   0.00000  Uiso   1.00
C17    C     0.64986   0.19188   0.91039   0.00000  Uiso   1.00
C18    C     0.80336   0.24455   0.87850   0.00000  Uiso   1.00
C19    C     0.85920   0.12006   0.88963   0.00000  Uiso   1.00
C20    C     0.94203   0.17442   0.92271   0.00000  Uiso   1.00
C21    C     0.66500   0.36277   0.80425   0.00000  Uiso   1.00
C22    C     0.60453   0.33768   0.75295   0.00000  Uiso   1.00
C23    C     0.57090   0.49158   0.72352   0.00000  Uiso   1.00
H24    H     0.77803   0.66586   0.89876   0.00000  Uiso   1.00
H25    H     0.73171   0.61741   0.94065   0.00000  Uiso   1.00
H26    H     0.93216   0.60544   0.94910   0.00000  Uiso   1.00
H27    H     0.67753   0.82302   0.81244   0.00000  Uiso   1.00
H28    H     0.66893   0.48751   0.97778   0.00000  Uiso   1.00
H29    H     0.09158   0.46230   0.99558   0.00000  Uiso   1.00
H30    H     0.55466   0.92112   0.70742   0.00000  Uiso   1.00
H31    H     0.68980   0.07907   0.82684   0.00000  Uiso   1.00
H32    H     0.63863   0.99842   0.86479   0.00000  Uiso   1.00
H33    H     0.83908   0.98645   0.87324   0.00000  Uiso   1.00
H34    H     0.58446   0.20404   0.73659   0.00000  Uiso   1.00
H35    H     0.59339   0.98511   0.91622   0.00000  Uiso   1.00
H36    H     0.01604   0.95990   0.93401   0.00000  Uiso   1.00
H37    H     0.47912   0.41873   0.64585   0.00000  Uiso   1.00
O38    O     0.59912   0.19382   0.97327   0.00000  Uiso   1.00
O39    O     0.15362   0.16076   0.99662   0.00000  Uiso   1.00
O40    O     0.44918   0.76272   0.61856   0.00000  Uiso   1.00
N41    N     0.65816   0.38035   0.95808   0.00000  Uiso   1.00
N42    N     0.05332   0.35677   0.97472   0.00000  Uiso   1.00
N43    N     0.55135   0.78573   0.70532   0.00000  Uiso   1.00
N44    N     0.61751   0.11002   0.92495   0.00000  Uiso   1.00
N45    N     0.01267   0.08643   0.94160   0.00000  Uiso   1.00
N46    N     0.51070   0.51540   0.67219   0.00000  Uiso   1.00
C47    C     0.25781   0.03143   0.88228   0.00000  Uiso   1.00
C48    C     0.22040   0.92374   0.89507   0.00000  Uiso   1.00
C49    C     0.21160   0.98377   0.92428   0.00000  Uiso   1.00
C50    C     0.17587   0.86487   0.93159   0.00000  Uiso   1.00
C51    C     0.12177   0.72389   0.95468   0.00000  Uiso   1.00
C52    C     0.32932   0.91722   0.89966   0.00000  Uiso   1.00
C53    C     0.41209   0.97179   0.93273   0.00000  Uiso   1.00
C54    C     0.46804   0.84741   0.94391   0.00000  Uiso   1.00
C55    C     0.58302   0.69637   0.97411   0.00000  Uiso   1.00
C56    C     0.19097   0.03545   0.82542   0.00000  Uiso   1.00
C57    C     0.15743   0.18942   0.79606   0.00000  Uiso   1.00
C58    C     0.09691   0.16457   0.74472   0.00000  Uiso   1.00
C59    C     0.99708   0.19709   0.65964   0.00000  Uiso   1.00
C60    C     0.21001   0.71351   0.84332   0.00000  Uiso   1.00
C61    C     0.19444   0.75106   0.87391   0.00000  Uiso   1.00
C62    C     0.15871   0.63204   0.88117   0.00000  Uiso   1.00
C63    C     0.14986   0.69188   0.91039   0.00000  Uiso   1.00
C64    C     0.30336   0.74455   0.87850   0.00000  Uiso   1.00
C65    C     0.35920   0.62006   0.88963   0.00000  Uiso   1.00
C66    C     0.44203   0.67442   0.92271   0.00000  Uiso   1.00
C67    C     0.16500   0.86277   0.80425   0.00000  Uiso   1.00
C68    C     0.10453   0.83768   0.75295   0.00000  Uiso   1.00
C69    C     0.07090   0.99158   0.72352   0.00000  Uiso   1.00
H70    H     0.27803   0.16586   0.89876   0.00000  Uiso   1.00
H71    H     0.23171   0.11741   0.94065   0.00000  Uiso   1.00
H72    H     0.43216   0.10544   0.94910   0.00000  Uiso   1.00
H73    H     0.17753   0.32302   0.81244   0.00000  Uiso   1.00
H74    H     0.16893   0.98751   0.97778   0.00000  Uiso   1.00
H75    H     0.59158   0.96230   0.99558   0.00000  Uiso   1.00
H76    H     0.05466   0.42112   0.70742   0.00000  Uiso   1.00
H77    H     0.18980   0.57907   0.82684   0.00000  Uiso   1.00
H78    H     0.13863   0.49842   0.86479   0.00000  Uiso   1.00
H79    H     0.33908   0.48645   0.87324   0.00000  Uiso   1.00
H80    H     0.08446   0.70404   0.73659   0.00000  Uiso   1.00
H81    H     0.09339   0.48511   0.91622   0.00000  Uiso   1.00
H82    H     0.51604   0.45990   0.93401   0.00000  Uiso   1.00
H83    H     0.97912   0.91873   0.64585   0.00000  Uiso   1.00
O84    O     0.09912   0.69382   0.97327   0.00000  Uiso   1.00
O85    O     0.65362   0.66076   0.99662   0.00000  Uiso   1.00
O86    O     0.94918   0.26272   0.61856   0.00000  Uiso   1.00
N87    N     0.15816   0.88035   0.95808   0.00000  Uiso   1.00
N88    N     0.55332   0.85677   0.97472   0.00000  Uiso   1.00
N89    N     0.05135   0.28573   0.70532   0.00000  Uiso   1.00
N90    N     0.11751   0.61002   0.92495   0.00000  Uiso   1.00
N91    N     0.51267   0.58643   0.94160   0.00000  Uiso   1.00
N92    N     0.01070   0.01540   0.67219   0.00000  Uiso   1.00
C93    C     0.24219   0.53143   0.61772   0.00000  Uiso   1.00
C94    C     0.27960   0.42374   0.60493   0.00000  Uiso   1.00
C95    C     0.28840   0.48377   0.57572   0.00000  Uiso   1.00
C96    C     0.32413   0.36487   0.56841   0.00000  Uiso   1.00
C97    C     0.37823   0.22389   0.54532   0.00000  Uiso   1.00
C98    C     0.17068   0.41722   0.60034   0.00000  Uiso   1.00
C99    C     0.08791   0.47179   0.56727   0.00000  Uiso   1.00
C100   C     0.03196   0.34741   0.55609   0.00000  Uiso   1.00
C101   C     0.91698   0.19637   0.52589   0.00000  Uiso   1.00
C102   C     0.30903   0.53545   0.67458   0.00000  Uiso   1.00
C103   C     0.34257   0.68942   0.70394   0.00000  Uiso   1.00
C104   C     0.40309   0.66457   0.75528   0.00000  Uiso   1.00
C105   C     0.50292   0.69709   0.84036   0.00000  Uiso   1.00
C106   C     0.28999   0.21351   0.65668   0.00000  Uiso   1.00
C107   C     0.30556   0.25106   0.62609   0.00000  Uiso   1.00
C108   C     0.34129   0.13204   0.61883   0.00000  Uiso   1.00
C109   C     0.35014   0.19188   0.58961   0.00000  Uiso   1.00
C110   C     0.19664   0.24455   0.62150   0.00000  Uiso   1.00
C111   C     0.14080   0.12006   0.61037   0.00000  Uiso   1.00
C112   C     0.05797   0.17442   0.57729   0.00000  Uiso   1.00
C113   C     0.33500   0.36277   0.69575   0.00000  Uiso   1.00
C114   C     0.39547   0.33768   0.74705   0.00000  Uiso   1.00
C115   C     0.42910   0.49158   0.77648   0.00000  Uiso   1.00
H116   H     0.22197   0.66586   0.60124   0.00000  Uiso   1.00
H117   H     0.26829   0.61741   0.55935   0.00000  Uiso   1.00
H118   H     0.06784   0.60544   0.55090   0.00000  Uiso   1.00
H119   H     0.32247   0.82302   0.68756   0.00000  Uiso   1.00
H120   H     0.33107   0.48751   0.52222   0.00000  Uiso   1.00
H121   H     0.90842   0.46230   0.50442   0.00000  Uiso   1.00
H122   H     0.44534   0.92112   0.79258   0.00000  Uiso   1.00
H123   H     0.31020   0.07907   0.67316   0.00000  Uiso   1.00
H124   H     0.36137   0.99842   0.63521   0.00000  Uiso   1.00
H125   H     0.16092   0.98645   0.62676   0.00000  Uiso   1.00
H126   H     0.41554   0.20404   0.76341   0.00000  Uiso   1.00
H127   H     0.40661   0.98511   0.58378   0.00000  Uiso   1.00
H128   H     0.98396   0.95990   0.56599   0.00000  Uiso   1.00
H129   H     0.52088   0.41873   0.85415   0.00000  Uiso   1.00
O130   O     0.40088   0.19382   0.52673   0.00000  Uiso   1.00
O131   O     0.84638   0.16076   0.50338   0.00000  Uiso   1.00
O132   O     0.55082   0.76272   0.88144   0.00000  Uiso   1.00
N133   N     0.34184   0.38035   0.54192   0.00000  Uiso   1.00
N134   N     0.94668   0.35677   0.52528   0.00000  Uiso   1.00
N135   N     0.44865   0.78573   0.79468   0.00000  Uiso   1.00
N136   N     0.38249   0.11002   0.57505   0.00000  Uiso   1.00
N137   N     0.98733   0.08643   0.55840   0.00000  Uiso   1.00
N138   N     0.48930   0.51540   0.82781   0.00000  Uiso   1.00
C139   C     0.74219   0.03143   0.61772   0.00000  Uiso   1.00
C140   C     0.77960   0.92374   0.60493   0.00000  Uiso   1.00
C141   C     0.78840   0.98377   0.57572   0.00000  Uiso   1.00
C142   C     0.82413   0.86487   0.56841   0.00000  Uiso   1.00
C143   C     0.87823   0.72389   0.54532   0.00000  Uiso   1.00
C144   C     0.67068   0.91722   0.60034   0.00000  Uiso   1.00
C145   C     0.58791   0.97179   0.56727   0.00000  Uiso   1.00
C146   C     0.53196   0.84741   0.55609   0.00000  Uiso   1.00
C147   C     0.41698   0.69637   0.52589   0.00000  Uiso   1.00
C148   C     0.80903   0.03545   0.67458   0.00000  Uiso   1.00
C149   C     0.84257   0.18942   0.70394   0.00000  Uiso   1.00
C150   C     0.90309   0.16457   0.75528   0.00000  Uiso   1.00
C151   C     0.00292   0.19709   0.84036   0.00000  Uiso   1.00
C152   C     0.78999   0.71351   0.65668   0.00000  Uiso   1.00
C153   C     0.80556   0.75106   0.62609   0.00000  Uiso   1.00
C154   C     0.84129   0.63204   0.61883   0.00000  Uiso   1.00
C155   C     0.85014   0.69188   0.58961   0.00000  Uiso   1.00
C156   C     0.69664   0.74455   0.62150   0.00000  Uiso   1.00
C157   C     0.64080   0.62006   0.61037   0.00000  Uiso   1.00
C158   C     0.55797   0.67442   0.57729   0.00000  Uiso   1.00
C159   C     0.83500   0.86277   0.69575   0.00000  Uiso   1.00
C160   C     0.89547   0.83768   0.74705   0.00000  Uiso   1.00
C161   C     0.92910   0.99158   0.77648   0.00000  Uiso   1.00
H162   H     0.72197   0.16586   0.60124   0.00000  Uiso   1.00
H163   H     0.76829   0.11741   0.55935   0.00000  Uiso   1.00
H164   H     0.56784   0.10544   0.55090   0.00000  Uiso   1.00
H165   H     0.82247   0.32302   0.68756   0.00000  Uiso   1.00
H166   H     0.83107   0.98751   0.52222   0.00000  Uiso   1.00
H167   H     0.40842   0.96230   0.50442   0.00000  Uiso   1.00
H168   H     0.94534   0.42112   0.79258   0.00000  Uiso   1.00
H169   H     0.81020   0.57907   0.67316   0.00000  Uiso   1.00
H170   H     0.86137   0.49842   0.63521   0.00000  Uiso   1.00
H171   H     0.66092   0.48645   0.62676   0.00000  Uiso   1.00
H172   H     0.91554   0.70404   0.76341   0.00000  Uiso   1.00
H173   H     0.90661   0.48511   0.58378   0.00000  Uiso   1.00
H174   H     0.48396   0.45990   0.56599   0.00000  Uiso   1.00
H175   H     0.02088   0.91873   0.85415   0.00000  Uiso   1.00
O176   O     0.90088   0.69382   0.52673   0.00000  Uiso   1.00
O177   O     0.34638   0.66076   0.50338   0.00000  Uiso   1.00
O178   O     0.05082   0.26272   0.88144   0.00000  Uiso   1.00
N179   N     0.84184   0.88035   0.54192   0.00000  Uiso   1.00
N180   N     0.44668   0.85677   0.52528   0.00000  Uiso   1.00
N181   N     0.94865   0.28573   0.79468   0.00000  Uiso   1.00
N182   N     0.88249   0.61002   0.57505   0.00000  Uiso   1.00
N183   N     0.48733   0.58643   0.55840   0.00000  Uiso   1.00
N184   N     0.98930   0.01540   0.82781   0.00000  Uiso   1.00
C185   C     0.24219   0.46857   0.11772   0.00000  Uiso   1.00
C186   C     0.27960   0.57626   0.10493   0.00000  Uiso   1.00
C187   C     0.28840   0.51623   0.07572   0.00000  Uiso   1.00
C188   C     0.32413   0.63513   0.06841   0.00000  Uiso   1.00
C189   C     0.37823   0.77611   0.04532   0.00000  Uiso   1.00
C190   C     0.17068   0.58278   0.10034   0.00000  Uiso   1.00
C191   C     0.08791   0.52821   0.06727   0.00000  Uiso   1.00
C192   C     0.03196   0.65259   0.05609   0.00000  Uiso   1.00
C193   C     0.91698   0.80363   0.02589   0.00000  Uiso   1.00
C194   C     0.30903   0.46455   0.17458   0.00000  Uiso   1.00
C195   C     0.34257   0.31058   0.20394   0.00000  Uiso   1.00
C196   C     0.40309   0.33543   0.25528   0.00000  Uiso   1.00
C197   C     0.50292   0.30291   0.34036   0.00000  Uiso   1.00
C198   C     0.28999   0.78649   0.15668   0.00000  Uiso   1.00
C199   C     0.30556   0.74894   0.12609   0.00000  Uiso   1.00
C200   C     0.34129   0.86796   0.11883   0.00000  Uiso   1.00
C201   C     0.35014   0.80812   0.08961   0.00000  Uiso   1.00
C202   C     0.19664   0.75545   0.12150   0.00000  Uiso   1.00
C203   C     0.14080   0.87994   0.11037   0.00000  Uiso   1.00
C204   C     0.05797   0.82558   0.07729   0.00000  Uiso   1.00
C205   C     0.33500   0.63723   0.19575   0.00000  Uiso   1.00
C206   C     0.39547   0.66232   0.24705   0.00000  Uiso   1.00
C207   C     0.42910   0.50842   0.27648   0.00000  Uiso   1.00
H208   H     0.22197   0.33414   0.10124   0.00000  Uiso   1.00
H209   H     0.26829   0.38259   0.05935   0.00000  Uiso   1.00
H210   H     0.06784   0.39456   0.05090   0.00000  Uiso   1.00
H211   H     0.32247   0.17698   0.18756   0.00000  Uiso   1.00
H212   H     0.33107   0.51249   0.02222   0.00000  Uiso   1.00
H213   H     0.90842   0.53770   0.00442   0.00000  Uiso   1.00
H214   H     0.44534   0.07888   0.29258   0.00000  Uiso   1.00
H215   H     0.31020   0.92093   0.17316   0.00000  Uiso   1.00
H216   H     0.36137   0.00158   0.13521   0.00000  Uiso   1.00
H217   H     0.16092   0.01355   0.12676   0.00000  Uiso   1.00
H218   H     0.41554   0.79596   0.26341   0.00000  Uiso   1.00
H219   H     0.40661   0.01489   0.08378   0.00000  Uiso   1.00
H220   H     0.98396   0.04010   0.06599   0.00000  Uiso   1.00
H221   H     0.52088   0.58127   0.35415   0.00000  Uiso   1.00
O222   O     0.40088   0.80618   0.02673   0.00000  Uiso   1.00
O223   O     0.84638   0.83924   0.00338   0.00000  Uiso   1.00
O224   O     0.55082   0.23728   0.38144   0.00000  Uiso   1.00
N225   N     0.34184   0.61965   0.04192   0.00000  Uiso   1.00
N226   N     0.94668   0.64323   0.02528   0.00000  Uiso   1.00
N227   N     0.44865   0.21427   0.29468   0.00000  Uiso   1.00
N228   N     0.38249   0.88998   0.07505   0.00000  Uiso   1.00
N229   N     0.98733   0.91357   0.05840   0.00000  Uiso   1.00
N230   N     0.48930   0.48460   0.32781   0.00000  Uiso   1.00
C231   C     0.74219   0.96857   0.11772   0.00000  Uiso   1.00
C232   C     0.77960   0.07626   0.10493   0.00000  Uiso   1.00
C233   C     0.78840   0.01623   0.07572   0.00000  Uiso   1.00
C234   C     0.82413   0.13513   0.06841   0.00000  Uiso   1.00
C235   C     0.87823   0.27611   0.04532   0.00000  Uiso   1.00
C236   C     0.67068   0.08278   0.10034   0.00000  Uiso   1.00
C237   C     0.58791   0.02821   0.06727   0.00000  Uiso   1.00
C238   C     0.53196   0.15259   0.05609   0.00000  Uiso   1.00
C239   C     0.41698   0.30363   0.02589   0.00000  Uiso   1.00
C240   C     0.80903   0.96455   0.17458   0.00000  Uiso   1.00
C241   C     0.84257   0.81058   0.20394   0.00000  Uiso   1.00
C242   C     0.90309   0.83543   0.25528   0.00000  Uiso   1.00
C243   C     0.00292   0.80291   0.34036   0.00000  Uiso   1.00
C244   C     0.78999   0.28649   0.15668   0.00000  Uiso   1.00
C245   C     0.80556   0.24894   0.12609   0.00000  Uiso   1.00
C246   C     0.84129   0.36796   0.11883   0.00000  Uiso   1.00
C247   C     0.85014   0.30812   0.08961   0.00000  Uiso   1.00
C248   C     0.69664   0.25545   0.12150   0.00000  Uiso   1.00
C249   C     0.64080   0.37994   0.11037   0.00000  Uiso   1.00
C250   C     0.55797   0.32558   0.07729   0.00000  Uiso   1.00
C251   C     0.83500   0.13723   0.19575   0.00000  Uiso   1.00
C252   C     0.89547   0.16232   0.24705   0.00000  Uiso   1.00
C253   C     0.92910   0.00842   0.27648   0.00000  Uiso   1.00
H254   H     0.72197   0.83414   0.10124   0.00000  Uiso   1.00
H255   H     0.76829   0.88259   0.05935   0.00000  Uiso   1.00
H256   H     0.56784   0.89456   0.05090   0.00000  Uiso   1.00
H257   H     0.82247   0.67698   0.18756   0.00000  Uiso   1.00
H258   H     0.83107   0.01249   0.02222   0.00000  Uiso   1.00
H259   H     0.40842   0.03770   0.00442   0.00000  Uiso   1.00
H260   H     0.94534   0.57888   0.29258   0.00000  Uiso   1.00
H261   H     0.81020   0.42093   0.17316   0.00000  Uiso   1.00
H262   H     0.86137   0.50158   0.13521   0.00000  Uiso   1.00
H263   H     0.66092   0.51355   0.12676   0.00000  Uiso   1.00
H264   H     0.91554   0.29596   0.26341   0.00000  Uiso   1.00
H265   H     0.90661   0.51489   0.08378   0.00000  Uiso   1.00
H266   H     0.48396   0.54010   0.06599   0.00000  Uiso   1.00
H267   H     0.02088   0.08127   0.35415   0.00000  Uiso   1.00
O268   O     0.90088   0.30618   0.02673   0.00000  Uiso   1.00
O269   O     0.34638   0.33924   0.00338   0.00000  Uiso   1.00
O270   O     0.05082   0.73728   0.38144   0.00000  Uiso   1.00
N271   N     0.84184   0.11965   0.04192   0.00000  Uiso   1.00
N272   N     0.44668   0.14323   0.02528   0.00000  Uiso   1.00
N273   N     0.94865   0.71427   0.29468   0.00000  Uiso   1.00
N274   N     0.88249   0.38998   0.07505   0.00000  Uiso   1.00
N275   N     0.48733   0.41357   0.05840   0.00000  Uiso   1.00
N276   N     0.98930   0.98460   0.32781   0.00000  Uiso   1.00
C277   C     0.75781   0.46857   0.38228   0.00000  Uiso   1.00
C278   C     0.72040   0.57626   0.39507   0.00000  Uiso   1.00
C279   C     0.71160   0.51623   0.42428   0.00000  Uiso   1.00
C280   C     0.67587   0.63513   0.43159   0.00000  Uiso   1.00
C281   C     0.62177   0.77611   0.45468   0.00000  Uiso   1.00
C282   C     0.82932   0.58278   0.39966   0.00000  Uiso   1.00
C283   C     0.91209   0.52821   0.43273   0.00000  Uiso   1.00
C284   C     0.96804   0.65259   0.44391   0.00000  Uiso   1.00
C285   C     0.08302   0.80363   0.47411   0.00000  Uiso   1.00
C286   C     0.69097   0.46455   0.32542   0.00000  Uiso   1.00
C287   C     0.65743   0.31058   0.29606   0.00000  Uiso   1.00
C288   C     0.59691   0.33543   0.24472   0.00000  Uiso   1.00
C289   C     0.49708   0.30291   0.15964   0.00000  Uiso   1.00
C290   C     0.71001   0.78649   0.34332   0.00000  Uiso   1.00
C291   C     0.69444   0.74894   0.37391   0.00000  Uiso   1.00
C292   C     0.65871   0.86796   0.38117   0.00000  Uiso   1.00
C293   C     0.64986   0.80812   0.41039   0.00000  Uiso   1.00
C294   C     0.80336   0.75545   0.37850   0.00000  Uiso   1.00
C295   C     0.85920   0.87994   0.38963   0.00000  Uiso   1.00
C296   C     0.94203   0.82558   0.42271   0.00000  Uiso   1.00
C297   C     0.66500   0.63723   0.30425   0.00000  Uiso   1.00
C298   C     0.60453   0.66232   0.25295   0.00000  Uiso   1.00
C299   C     0.57090   0.50842   0.22352   0.00000  Uiso   1.00
H300   H     0.77803   0.33414   0.39876   0.00000  Uiso   1.00
H301   H     0.73171   0.38259   0.44065   0.00000  Uiso   1.00
H302   H     0.93216   0.39456   0.44910   0.00000  Uiso   1.00
H303   H     0.67753   0.17698   0.31244   0.00000  Uiso   1.00
H304   H     0.66893   0.51249   0.47778   0.00000  Uiso   1.00
H305   H     0.09158   0.53770   0.49558   0.00000  Uiso   1.00
H306   H     0.55466   0.07888   0.20742   0.00000  Uiso   1.00
H307   H     0.68980   0.92093   0.32684   0.00000  Uiso   1.00
H308   H     0.63863   0.00158   0.36479   0.00000  Uiso   1.00
H309   H     0.83908   0.01355   0.37324   0.00000  Uiso   1.00
H310   H     0.58446   0.79596   0.23659   0.00000  Uiso   1.00
H311   H     0.59339   0.01489   0.41622   0.00000  Uiso   1.00
H312   H     0.01604   0.04010   0.43401   0.00000  Uiso   1.00
H313   H     0.47912   0.58127   0.14585   0.00000  Uiso   1.00
O314   O     0.59912   0.80618   0.47327   0.00000  Uiso   1.00
O315   O     0.15362   0.83924   0.49662   0.00000  Uiso   1.00
O316   O     0.44918   0.23728   0.11856   0.00000  Uiso   1.00
N317   N     0.65816   0.61965   0.45808   0.00000  Uiso   1.00
N318   N     0.05332   0.64323   0.47472   0.00000  Uiso   1.00
N319   N     0.55135   0.21427   0.20532   0.00000  Uiso   1.00
N320   N     0.61751   0.88998   0.42495   0.00000  Uiso   1.00
N321   N     0.01267   0.91357   0.44160   0.00000  Uiso   1.00
N322   N     0.51070   0.48460   0.17219   0.00000  Uiso   1.00
C323   C     0.25781   0.96857   0.38228   0.00000  Uiso   1.00
C324   C     0.22040   0.07626   0.39507   0.00000  Uiso   1.00
C325   C     0.21160   0.01623   0.42428   0.00000  Uiso   1.00
C326   C     0.17587   0.13513   0.43159   0.00000  Uiso   1.00
C327   C     0.12177   0.27611   0.45468   0.00000  Uiso   1.00
C328   C     0.32932   0.08278   0.39966   0.00000  Uiso   1.00
C329   C     0.41209   0.02821   0.43273   0.00000  Uiso   1.00
C330   C     0.46804   0.15259   0.44391   0.00000  Uiso   1.00
C331   C     0.58302   0.30363   0.47411   0.00000  Uiso   1.00
C332   C     0.19097   0.96455   0.32542   0.00000  Uiso   1.00
C333   C     0.15743   0.81058   0.29606   0.00000  Uiso   1.00
C334   C     0.09691   0.83543   0.24472   0.00000  Uiso   1.00
C335   C     0.99708   0.80291   0.15964   0.00000  Uiso   1.00
C336   C     0.21001   0.28649   0.34332   0.00000  Uiso   1.00
C337   C     0.19444   0.24894   0.37391   0.00000  Uiso   1.00
C338   C     0.15871   0.36796   0.38117   0.00000  Uiso   1.00
C339   C     0.14986   0.30812   0.41039   0.00000  Uiso   1.00
C340   C     0.30336   0.25545   0.37850   0.00000  Uiso   1.00
C341   C     0.35920   0.37994   0.38963   0.00000  Uiso   1.00
C342   C     0.44203   0.32558   0.42271   0.00000  Uiso   1.00
C343   C     0.16500   0.13723   0.30425   0.00000  Uiso   1.00
C344   C     0.10453   0.16232   0.25295   0.00000  Uiso   1.00
C345   C     0.07090   0.00842   0.22352   0.00000  Uiso   1.00
H346   H     0.27803   0.83414   0.39876   0.00000  Uiso   1.00
H347   H     0.23171   0.88259   0.44065   0.00000  Uiso   1.00
H348   H     0.43216   0.89456   0.44910   0.00000  Uiso   1.00
H349   H     0.17753   0.67698   0.31244   0.00000  Uiso   1.00
H350   H     0.16893   0.01249   0.47778   0.00000  Uiso   1.00
H351   H     0.59158   0.03770   0.49558   0.00000  Uiso   1.00
H352   H     0.05466   0.57888   0.20742   0.00000  Uiso   1.00
H353   H     0.18980   0.42093   0.32684   0.00000  Uiso   1.00
H354   H     0.13863   0.50158   0.36479   0.00000  Uiso   1.00
H355   H     0.33908   0.51355   0.37324   0.00000  Uiso   1.00
H356   H     0.08446   0.29596   0.23659   0.00000  Uiso   1.00
H357   H     0.09339   0.51489   0.41622   0.00000  Uiso   1.00
H358   H     0.51604   0.54010   0.43401   0.00000  Uiso   1.00
H359   H     0.97912   0.08127   0.14585   0.00000  Uiso   1.00
O360   O     0.09912   0.30618   0.47327   0.00000  Uiso   1.00
O361   O     0.65362   0.33924   0.49662   0.00000  Uiso   1.00
O362   O     0.94918   0.73728   0.11856   0.00000  Uiso   1.00
N363   N     0.15816   0.11965   0.45808   0.00000  Uiso   1.00
N364   N     0.55332   0.14323   0.47472   0.00000  Uiso   1.00
N365   N     0.05135   0.71427   0.20532   0.00000  Uiso   1.00
N366   N     0.11751   0.38998   0.42495   0.00000  Uiso   1.00
N367   N     0.51267   0.41357   0.44160   0.00000  Uiso   1.00
N368   N     0.01070   0.98460   0.17219   0.00000  Uiso   1.00
