data_job_05278
_audit_creation_date              2018-12-19
_audit_creation_method            'Materials Studio'
_symmetry_space_group_name_H-M    'P1'
_symmetry_Int_Tables_number       1
_symmetry_cell_setting            triclinic
loop_
_symmetry_equiv_pos_as_xyz
  x,y,z
_cell_length_a                    20.8306
_cell_length_b                    20.8744
_cell_length_c                    11.5439
_cell_angle_alpha                 90.0000
_cell_angle_beta                  90.0000
_cell_angle_gamma                 90.0000
loop_
_atom_site_label
_atom_site_type_symbol
_atom_site_fract_x
_atom_site_fract_y
_atom_site_fract_z
_atom_site_U_iso_or_equiv
_atom_site_adp_type
_atom_site_occupancy
C1     C     0.42068   0.36119   0.83618   0.00000  Uiso   1.00
C2     C     0.40052   0.40619   0.73868   0.00000  Uiso   1.00
C3     C     0.35497   0.45448   0.74709   0.00000  Uiso   1.00
C4     C     0.34335   0.49040   0.64806   0.00000  Uiso   1.00
C5     C     0.30704   0.56207   0.51242   0.00000  Uiso   1.00
C6     C     0.40971   0.29347   0.79080   0.00000  Uiso   1.00
C7     C     0.37188   0.24698   0.84304   0.00000  Uiso   1.00
C8     C     0.36801   0.18800   0.78788   0.00000  Uiso   1.00
C9     C     0.34599   0.08465   0.73320   0.00000  Uiso   1.00
C10    C     0.49318   0.36878   0.84828   0.00000  Uiso   1.00
C11    C     0.52554   0.38560   0.94886   0.00000  Uiso   1.00
C12    C     0.59195   0.39001   0.94211   0.00000  Uiso   1.00
C13    C     0.69954   0.40360   0.97667   0.00000  Uiso   1.00
C14    C     0.48105   0.33910   0.64534   0.00000  Uiso   1.00
C15    C     0.43331   0.39419   0.63502   0.00000  Uiso   1.00
C16    C     0.42176   0.43004   0.53595   0.00000  Uiso   1.00
C17    C     0.37620   0.47838   0.54421   0.00000  Uiso   1.00
C18    C     0.44250   0.28147   0.68714   0.00000  Uiso   1.00
C19    C     0.43868   0.22254   0.63190   0.00000  Uiso   1.00
C20    C     0.40086   0.17598   0.68404   0.00000  Uiso   1.00
C21    C     0.52597   0.35678   0.74462   0.00000  Uiso   1.00
C22    C     0.59234   0.36116   0.73771   0.00000  Uiso   1.00
C23    C     0.62480   0.37799   0.83826   0.00000  Uiso   1.00
H24    H     0.39515   0.37053   0.91688   0.00000  Uiso   1.00
H25    H     0.32960   0.46375   0.82732   0.00000  Uiso   1.00
H26    H     0.34652   0.25628   0.92326   0.00000  Uiso   1.00
H27    H     0.50015   0.39488   0.02906   0.00000  Uiso   1.00
H28    H     0.27137   0.56179   0.68231   0.00000  Uiso   1.00
H29    H     0.30706   0.12432   0.88462   0.00000  Uiso   1.00
H30    H     0.63103   0.41659   0.10772   0.00000  Uiso   1.00
H31    H     0.50658   0.32976   0.56463   0.00000  Uiso   1.00
H32    H     0.44715   0.42075   0.45574   0.00000  Uiso   1.00
H33    H     0.46406   0.21327   0.55169   0.00000  Uiso   1.00
H34    H     0.61770   0.35188   0.65748   0.00000  Uiso   1.00
H35    H     0.36677   0.52689   0.38072   0.00000  Uiso   1.00
H36    H     0.40247   0.08941   0.58304   0.00000  Uiso   1.00
H37    H     0.72643   0.38168   0.80613   0.00000  Uiso   1.00
O38    O     0.27795   0.60491   0.46623   0.00000  Uiso   1.00
O39    O     0.32478   0.03096   0.73167   0.00000  Uiso   1.00
O40    O     0.74982   0.41442   0.02437   0.00000  Uiso   1.00
N41    N     0.30199   0.54110   0.62628   0.00000  Uiso   1.00
N42    N     0.33535   0.13209   0.81542   0.00000  Uiso   1.00
N43    N     0.63823   0.40532   0.02401   0.00000  Uiso   1.00
N44    N     0.35333   0.52232   0.46400   0.00000  Uiso   1.00
N45    N     0.38669   0.11331   0.65314   0.00000  Uiso   1.00
N46    N     0.68957   0.38654   0.86173   0.00000  Uiso   1.00
C47    C     0.07932   0.63881   0.33618   0.00000  Uiso   1.00
C48    C     0.09948   0.59381   0.23868   0.00000  Uiso   1.00
C49    C     0.14503   0.54552   0.24709   0.00000  Uiso   1.00
C50    C     0.15665   0.50960   0.14806   0.00000  Uiso   1.00
C51    C     0.19296   0.43793   0.01242   0.00000  Uiso   1.00
C52    C     0.09029   0.70653   0.29080   0.00000  Uiso   1.00
C53    C     0.12812   0.75302   0.34304   0.00000  Uiso   1.00
C54    C     0.13199   0.81200   0.28788   0.00000  Uiso   1.00
C55    C     0.15401   0.91535   0.23320   0.00000  Uiso   1.00
C56    C     0.00682   0.63122   0.34828   0.00000  Uiso   1.00
C57    C     0.97446   0.61440   0.44886   0.00000  Uiso   1.00
C58    C     0.90805   0.60999   0.44211   0.00000  Uiso   1.00
C59    C     0.80046   0.59640   0.47667   0.00000  Uiso   1.00
C60    C     0.01895   0.66090   0.14534   0.00000  Uiso   1.00
C61    C     0.06669   0.60581   0.13502   0.00000  Uiso   1.00
C62    C     0.07824   0.56996   0.03595   0.00000  Uiso   1.00
C63    C     0.12380   0.52162   0.04421   0.00000  Uiso   1.00
C64    C     0.05750   0.71853   0.18714   0.00000  Uiso   1.00
C65    C     0.06132   0.77746   0.13190   0.00000  Uiso   1.00
C66    C     0.09914   0.82402   0.18404   0.00000  Uiso   1.00
C67    C     0.97403   0.64322   0.24462   0.00000  Uiso   1.00
C68    C     0.90766   0.63884   0.23771   0.00000  Uiso   1.00
C69    C     0.87520   0.62201   0.33826   0.00000  Uiso   1.00
H70    H     0.10485   0.62947   0.41688   0.00000  Uiso   1.00
H71    H     0.17040   0.53625   0.32732   0.00000  Uiso   1.00
H72    H     0.15348   0.74372   0.42326   0.00000  Uiso   1.00
H73    H     0.99985   0.60512   0.52906   0.00000  Uiso   1.00
H74    H     0.22863   0.43821   0.18231   0.00000  Uiso   1.00
H75    H     0.19294   0.87568   0.38462   0.00000  Uiso   1.00
H76    H     0.86897   0.58341   0.60772   0.00000  Uiso   1.00
H77    H     0.99342   0.67024   0.06463   0.00000  Uiso   1.00
H78    H     0.05285   0.57925   0.95574   0.00000  Uiso   1.00
H79    H     0.03594   0.78673   0.05169   0.00000  Uiso   1.00
H80    H     0.88230   0.64812   0.15748   0.00000  Uiso   1.00
H81    H     0.13323   0.47311   0.88072   0.00000  Uiso   1.00
H82    H     0.09753   0.91059   0.08304   0.00000  Uiso   1.00
H83    H     0.77357   0.61832   0.30613   0.00000  Uiso   1.00
O84    O     0.22205   0.39509   0.96623   0.00000  Uiso   1.00
O85    O     0.17522   0.96904   0.23167   0.00000  Uiso   1.00
O86    O     0.75018   0.58558   0.52437   0.00000  Uiso   1.00
N87    N     0.19801   0.45890   0.12628   0.00000  Uiso   1.00
N88    N     0.16465   0.86791   0.31542   0.00000  Uiso   1.00
N89    N     0.86177   0.59468   0.52401   0.00000  Uiso   1.00
N90    N     0.14667   0.47768   0.96400   0.00000  Uiso   1.00
N91    N     0.11331   0.88669   0.15314   0.00000  Uiso   1.00
N92    N     0.81043   0.61346   0.36173   0.00000  Uiso   1.00
C93    C     0.57932   0.86119   0.66382   0.00000  Uiso   1.00
C94    C     0.59948   0.90619   0.76132   0.00000  Uiso   1.00
C95    C     0.64503   0.95448   0.75291   0.00000  Uiso   1.00
C96    C     0.65665   0.99040   0.85194   0.00000  Uiso   1.00
C97    C     0.69296   0.06207   0.98758   0.00000  Uiso   1.00
C98    C     0.59029   0.79347   0.70920   0.00000  Uiso   1.00
C99    C     0.62812   0.74698   0.65696   0.00000  Uiso   1.00
C100   C     0.63199   0.68800   0.71212   0.00000  Uiso   1.00
C101   C     0.65401   0.58465   0.76680   0.00000  Uiso   1.00
C102   C     0.50682   0.86878   0.65172   0.00000  Uiso   1.00
C103   C     0.47446   0.88560   0.55114   0.00000  Uiso   1.00
C104   C     0.40805   0.89001   0.55789   0.00000  Uiso   1.00
C105   C     0.30046   0.90360   0.52333   0.00000  Uiso   1.00
C106   C     0.51895   0.83910   0.85466   0.00000  Uiso   1.00
C107   C     0.56669   0.89419   0.86498   0.00000  Uiso   1.00
C108   C     0.57824   0.93004   0.96405   0.00000  Uiso   1.00
C109   C     0.62380   0.97838   0.95579   0.00000  Uiso   1.00
C110   C     0.55750   0.78147   0.81286   0.00000  Uiso   1.00
C111   C     0.56132   0.72254   0.86810   0.00000  Uiso   1.00
C112   C     0.59914   0.67598   0.81596   0.00000  Uiso   1.00
C113   C     0.47403   0.85678   0.75538   0.00000  Uiso   1.00
C114   C     0.40766   0.86116   0.76229   0.00000  Uiso   1.00
C115   C     0.37520   0.87799   0.66174   0.00000  Uiso   1.00
H116   H     0.60485   0.87053   0.58312   0.00000  Uiso   1.00
H117   H     0.67040   0.96375   0.67268   0.00000  Uiso   1.00
H118   H     0.65348   0.75628   0.57674   0.00000  Uiso   1.00
H119   H     0.49985   0.89488   0.47094   0.00000  Uiso   1.00
H120   H     0.72863   0.06179   0.81769   0.00000  Uiso   1.00
H121   H     0.69294   0.62432   0.61538   0.00000  Uiso   1.00
H122   H     0.36897   0.91659   0.39228   0.00000  Uiso   1.00
H123   H     0.49342   0.82976   0.93537   0.00000  Uiso   1.00
H124   H     0.55285   0.92075   0.04426   0.00000  Uiso   1.00
H125   H     0.53594   0.71327   0.94831   0.00000  Uiso   1.00
H126   H     0.38230   0.85188   0.84252   0.00000  Uiso   1.00
H127   H     0.63323   0.02689   0.11928   0.00000  Uiso   1.00
H128   H     0.59753   0.58941   0.91696   0.00000  Uiso   1.00
H129   H     0.27357   0.88168   0.69387   0.00000  Uiso   1.00
O130   O     0.72205   0.10491   0.03377   0.00000  Uiso   1.00
O131   O     0.67522   0.53096   0.76833   0.00000  Uiso   1.00
O132   O     0.25018   0.91442   0.47563   0.00000  Uiso   1.00
N133   N     0.69801   0.04110   0.87372   0.00000  Uiso   1.00
N134   N     0.66465   0.63209   0.68458   0.00000  Uiso   1.00
N135   N     0.36177   0.90532   0.47599   0.00000  Uiso   1.00
N136   N     0.64667   0.02232   0.03600   0.00000  Uiso   1.00
N137   N     0.61331   0.61331   0.84686   0.00000  Uiso   1.00
N138   N     0.31043   0.88654   0.63827   0.00000  Uiso   1.00
C139   C     0.92068   0.13881   0.16382   0.00000  Uiso   1.00
C140   C     0.90052   0.09381   0.26132   0.00000  Uiso   1.00
C141   C     0.85497   0.04552   0.25291   0.00000  Uiso   1.00
C142   C     0.84335   0.00960   0.35194   0.00000  Uiso   1.00
C143   C     0.80704   0.93793   0.48758   0.00000  Uiso   1.00
C144   C     0.90971   0.20653   0.20920   0.00000  Uiso   1.00
C145   C     0.87188   0.25302   0.15696   0.00000  Uiso   1.00
C146   C     0.86801   0.31200   0.21212   0.00000  Uiso   1.00
C147   C     0.84599   0.41535   0.26680   0.00000  Uiso   1.00
C148   C     0.99318   0.13122   0.15172   0.00000  Uiso   1.00
C149   C     0.02554   0.11440   0.05114   0.00000  Uiso   1.00
C150   C     0.09195   0.10999   0.05789   0.00000  Uiso   1.00
C151   C     0.19954   0.09640   0.02333   0.00000  Uiso   1.00
C152   C     0.98105   0.16090   0.35466   0.00000  Uiso   1.00
C153   C     0.93331   0.10581   0.36498   0.00000  Uiso   1.00
C154   C     0.92176   0.06996   0.46405   0.00000  Uiso   1.00
C155   C     0.87620   0.02162   0.45579   0.00000  Uiso   1.00
C156   C     0.94250   0.21853   0.31286   0.00000  Uiso   1.00
C157   C     0.93868   0.27746   0.36810   0.00000  Uiso   1.00
C158   C     0.90086   0.32402   0.31596   0.00000  Uiso   1.00
C159   C     0.02597   0.14322   0.25538   0.00000  Uiso   1.00
C160   C     0.09234   0.13884   0.26229   0.00000  Uiso   1.00
C161   C     0.12480   0.12201   0.16174   0.00000  Uiso   1.00
H162   H     0.89515   0.12947   0.08312   0.00000  Uiso   1.00
H163   H     0.82960   0.03625   0.17268   0.00000  Uiso   1.00
H164   H     0.84652   0.24372   0.07674   0.00000  Uiso   1.00
H165   H     0.00015   0.10512   0.97094   0.00000  Uiso   1.00
H166   H     0.77137   0.93821   0.31769   0.00000  Uiso   1.00
H167   H     0.80706   0.37568   0.11538   0.00000  Uiso   1.00
H168   H     0.13103   0.08341   0.89228   0.00000  Uiso   1.00
H169   H     0.00658   0.17024   0.43537   0.00000  Uiso   1.00
H170   H     0.94715   0.07925   0.54426   0.00000  Uiso   1.00
H171   H     0.96406   0.28673   0.44831   0.00000  Uiso   1.00
H172   H     0.11770   0.14812   0.34252   0.00000  Uiso   1.00
H173   H     0.86677   0.97311   0.61928   0.00000  Uiso   1.00
H174   H     0.90247   0.41059   0.41696   0.00000  Uiso   1.00
H175   H     0.22643   0.11832   0.19387   0.00000  Uiso   1.00
O176   O     0.77795   0.89509   0.53377   0.00000  Uiso   1.00
O177   O     0.82478   0.46904   0.26833   0.00000  Uiso   1.00
O178   O     0.24982   0.08558   0.97563   0.00000  Uiso   1.00
N179   N     0.80199   0.95890   0.37372   0.00000  Uiso   1.00
N180   N     0.83535   0.36791   0.18458   0.00000  Uiso   1.00
N181   N     0.13823   0.09468   0.97599   0.00000  Uiso   1.00
N182   N     0.85333   0.97768   0.53600   0.00000  Uiso   1.00
N183   N     0.88669   0.38669   0.34686   0.00000  Uiso   1.00
N184   N     0.18957   0.11346   0.13827   0.00000  Uiso   1.00
C185   C     0.57932   0.63881   0.16382   0.00000  Uiso   1.00
C186   C     0.59948   0.59381   0.26132   0.00000  Uiso   1.00
C187   C     0.64503   0.54552   0.25291   0.00000  Uiso   1.00
C188   C     0.65665   0.50960   0.35194   0.00000  Uiso   1.00
C189   C     0.69296   0.43793   0.48758   0.00000  Uiso   1.00
C190   C     0.59029   0.70653   0.20920   0.00000  Uiso   1.00
C191   C     0.62812   0.75302   0.15696   0.00000  Uiso   1.00
C192   C     0.63199   0.81200   0.21212   0.00000  Uiso   1.00
C193   C     0.65401   0.91535   0.26680   0.00000  Uiso   1.00
C194   C     0.50682   0.63122   0.15172   0.00000  Uiso   1.00
C195   C     0.47446   0.61440   0.05114   0.00000  Uiso   1.00
C196   C     0.40805   0.60999   0.05789   0.00000  Uiso   1.00
C197   C     0.30046   0.59640   0.02333   0.00000  Uiso   1.00
C198   C     0.51895   0.66090   0.35466   0.00000  Uiso   1.00
C199   C     0.56669   0.60581   0.36498   0.00000  Uiso   1.00
C200   C     0.57824   0.56996   0.46405   0.00000  Uiso   1.00
C201   C     0.62380   0.52162   0.45579   0.00000  Uiso   1.00
C202   C     0.55750   0.71853   0.31286   0.00000  Uiso   1.00
C203   C     0.56132   0.77746   0.36810   0.00000  Uiso   1.00
C204   C     0.59914   0.82402   0.31596   0.00000  Uiso   1.00
C205   C     0.47403   0.64322   0.25538   0.00000  Uiso   1.00
C206   C     0.40766   0.63884   0.26229   0.00000  Uiso   1.00
C207   C     0.37520   0.62201   0.16174   0.00000  Uiso   1.00
H208   H     0.60485   0.62947   0.08312   0.00000  Uiso   1.00
H209   H     0.67040   0.53625   0.17268   0.00000  Uiso   1.00
H210   H     0.65348   0.74372   0.07674   0.00000  Uiso   1.00
H211   H     0.49985   0.60512   0.97094   0.00000  Uiso   1.00
H212   H     0.72863   0.43821   0.31769   0.00000  Uiso   1.00
H213   H     0.69294   0.87568   0.11538   0.00000  Uiso   1.00
H214   H     0.36897   0.58341   0.89228   0.00000  Uiso   1.00
H215   H     0.49342   0.67024   0.43537   0.00000  Uiso   1.00
H216   H     0.55285   0.57925   0.54426   0.00000  Uiso   1.00
H217   H     0.53594   0.78673   0.44831   0.00000  Uiso   1.00
H218   H     0.38230   0.64812   0.34252   0.00000  Uiso   1.00
H219   H     0.63323   0.47311   0.61928   0.00000  Uiso   1.00
H220   H     0.59753   0.91059   0.41696   0.00000  Uiso   1.00
H221   H     0.27357   0.61832   0.19387   0.00000  Uiso   1.00
O222   O     0.72205   0.39509   0.53377   0.00000  Uiso   1.00
O223   O     0.67522   0.96904   0.26833   0.00000  Uiso   1.00
O224   O     0.25018   0.58558   0.97563   0.00000  Uiso   1.00
N225   N     0.69801   0.45890   0.37372   0.00000  Uiso   1.00
N226   N     0.66465   0.86791   0.18458   0.00000  Uiso   1.00
N227   N     0.36177   0.59468   0.97599   0.00000  Uiso   1.00
N228   N     0.64667   0.47768   0.53600   0.00000  Uiso   1.00
N229   N     0.61331   0.88669   0.34686   0.00000  Uiso   1.00
N230   N     0.31043   0.61346   0.13827   0.00000  Uiso   1.00
C231   C     0.92068   0.36119   0.66382   0.00000  Uiso   1.00
C232   C     0.90052   0.40619   0.76132   0.00000  Uiso   1.00
C233   C     0.85497   0.45448   0.75291   0.00000  Uiso   1.00
C234   C     0.84335   0.49040   0.85194   0.00000  Uiso   1.00
C235   C     0.80704   0.56207   0.98758   0.00000  Uiso   1.00
C236   C     0.90971   0.29347   0.70920   0.00000  Uiso   1.00
C237   C     0.87188   0.24698   0.65696   0.00000  Uiso   1.00
C238   C     0.86801   0.18800   0.71212   0.00000  Uiso   1.00
C239   C     0.84599   0.08465   0.76680   0.00000  Uiso   1.00
C240   C     0.99318   0.36878   0.65172   0.00000  Uiso   1.00
C241   C     0.02554   0.38560   0.55114   0.00000  Uiso   1.00
C242   C     0.09195   0.39001   0.55789   0.00000  Uiso   1.00
C243   C     0.19954   0.40360   0.52333   0.00000  Uiso   1.00
C244   C     0.98105   0.33910   0.85466   0.00000  Uiso   1.00
C245   C     0.93331   0.39419   0.86498   0.00000  Uiso   1.00
C246   C     0.92176   0.43004   0.96405   0.00000  Uiso   1.00
C247   C     0.87620   0.47838   0.95579   0.00000  Uiso   1.00
C248   C     0.94250   0.28147   0.81286   0.00000  Uiso   1.00
C249   C     0.93868   0.22254   0.86810   0.00000  Uiso   1.00
C250   C     0.90086   0.17598   0.81596   0.00000  Uiso   1.00
C251   C     0.02597   0.35678   0.75538   0.00000  Uiso   1.00
C252   C     0.09234   0.36116   0.76229   0.00000  Uiso   1.00
C253   C     0.12480   0.37799   0.66174   0.00000  Uiso   1.00
H254   H     0.89515   0.37053   0.58312   0.00000  Uiso   1.00
H255   H     0.82960   0.46375   0.67268   0.00000  Uiso   1.00
H256   H     0.84652   0.25628   0.57674   0.00000  Uiso   1.00
H257   H     0.00015   0.39488   0.47094   0.00000  Uiso   1.00
H258   H     0.77137   0.56179   0.81769   0.00000  Uiso   1.00
H259   H     0.80706   0.12432   0.61538   0.00000  Uiso   1.00
H260   H     0.13103   0.41659   0.39228   0.00000  Uiso   1.00
H261   H     0.00658   0.32976   0.93537   0.00000  Uiso   1.00
H262   H     0.94715   0.42075   0.04426   0.00000  Uiso   1.00
H263   H     0.96406   0.21327   0.94831   0.00000  Uiso   1.00
H264   H     0.11770   0.35188   0.84252   0.00000  Uiso   1.00
H265   H     0.86677   0.52689   0.11928   0.00000  Uiso   1.00
H266   H     0.90247   0.08941   0.91696   0.00000  Uiso   1.00
H267   H     0.22643   0.38168   0.69387   0.00000  Uiso   1.00
O268   O     0.77795   0.60491   0.03377   0.00000  Uiso   1.00
O269   O     0.82478   0.03096   0.76833   0.00000  Uiso   1.00
O270   O     0.24982   0.41442   0.47563   0.00000  Uiso   1.00
N271   N     0.80199   0.54110   0.87372   0.00000  Uiso   1.00
N272   N     0.83535   0.13209   0.68458   0.00000  Uiso   1.00
N273   N     0.13823   0.40532   0.47599   0.00000  Uiso   1.00
N274   N     0.85333   0.52232   0.03600   0.00000  Uiso   1.00
N275   N     0.88669   0.11331   0.84686   0.00000  Uiso   1.00
N276   N     0.18957   0.38654   0.63827   0.00000  Uiso   1.00
C277   C     0.42068   0.13881   0.33618   0.00000  Uiso   1.00
C278   C     0.40052   0.09381   0.23868   0.00000  Uiso   1.00
C279   C     0.35497   0.04552   0.24709   0.00000  Uiso   1.00
C280   C     0.34335   0.00960   0.14806   0.00000  Uiso   1.00
C281   C     0.30704   0.93793   0.01242   0.00000  Uiso   1.00
C282   C     0.40971   0.20653   0.29080   0.00000  Uiso   1.00
C283   C     0.37188   0.25302   0.34304   0.00000  Uiso   1.00
C284   C     0.36801   0.31200   0.28788   0.00000  Uiso   1.00
C285   C     0.34599   0.41535   0.23320   0.00000  Uiso   1.00
C286   C     0.49318   0.13122   0.34828   0.00000  Uiso   1.00
C287   C     0.52554   0.11440   0.44886   0.00000  Uiso   1.00
C288   C     0.59195   0.10999   0.44211   0.00000  Uiso   1.00
C289   C     0.69954   0.09640   0.47667   0.00000  Uiso   1.00
C290   C     0.48105   0.16090   0.14534   0.00000  Uiso   1.00
C291   C     0.43331   0.10581   0.13502   0.00000  Uiso   1.00
C292   C     0.42176   0.06996   0.03595   0.00000  Uiso   1.00
C293   C     0.37620   0.02162   0.04421   0.00000  Uiso   1.00
C294   C     0.44250   0.21853   0.18714   0.00000  Uiso   1.00
C295   C     0.43868   0.27746   0.13190   0.00000  Uiso   1.00
C296   C     0.40086   0.32402   0.18404   0.00000  Uiso   1.00
C297   C     0.52597   0.14322   0.24462   0.00000  Uiso   1.00
C298   C     0.59234   0.13884   0.23771   0.00000  Uiso   1.00
C299   C     0.62480   0.12201   0.33826   0.00000  Uiso   1.00
H300   H     0.39515   0.12947   0.41688   0.00000  Uiso   1.00
H301   H     0.32960   0.03625   0.32732   0.00000  Uiso   1.00
H302   H     0.34652   0.24372   0.42326   0.00000  Uiso   1.00
H303   H     0.50015   0.10512   0.52906   0.00000  Uiso   1.00
H304   H     0.27137   0.93821   0.18231   0.00000  Uiso   1.00
H305   H     0.30706   0.37568   0.38462   0.00000  Uiso   1.00
H306   H     0.63103   0.08341   0.60772   0.00000  Uiso   1.00
H307   H     0.50658   0.17024   0.06463   0.00000  Uiso   1.00
H308   H     0.44715   0.07925   0.95574   0.00000  Uiso   1.00
H309   H     0.46406   0.28673   0.05169   0.00000  Uiso   1.00
H310   H     0.61770   0.14812   0.15748   0.00000  Uiso   1.00
H311   H     0.36677   0.97311   0.88072   0.00000  Uiso   1.00
H312   H     0.40247   0.41059   0.08304   0.00000  Uiso   1.00
H313   H     0.72643   0.11832   0.30613   0.00000  Uiso   1.00
O314   O     0.27795   0.89509   0.96623   0.00000  Uiso   1.00
O315   O     0.32478   0.46904   0.23167   0.00000  Uiso   1.00
O316   O     0.74982   0.08558   0.52437   0.00000  Uiso   1.00
N317   N     0.30199   0.95890   0.12628   0.00000  Uiso   1.00
N318   N     0.33535   0.36791   0.31542   0.00000  Uiso   1.00
N319   N     0.63823   0.09468   0.52401   0.00000  Uiso   1.00
N320   N     0.35333   0.97768   0.96400   0.00000  Uiso   1.00
N321   N     0.38669   0.38669   0.15314   0.00000  Uiso   1.00
N322   N     0.68957   0.11346   0.36173   0.00000  Uiso   1.00
C323   C     0.07932   0.86119   0.83618   0.00000  Uiso   1.00
C324   C     0.09948   0.90619   0.73868   0.00000  Uiso   1.00
C325   C     0.14503   0.95448   0.74709   0.00000  Uiso   1.00
C326   C     0.15665   0.99040   0.64806   0.00000  Uiso   1.00
C327   C     0.19296   0.06207   0.51242   0.00000  Uiso   1.00
C328   C     0.09029   0.79347   0.79080   0.00000  Uiso   1.00
C329   C     0.12812   0.74698   0.84304   0.00000  Uiso   1.00
C330   C     0.13199   0.68800   0.78788   0.00000  Uiso   1.00
C331   C     0.15401   0.58465   0.73320   0.00000  Uiso   1.00
C332   C     0.00682   0.86878   0.84828   0.00000  Uiso   1.00
C333   C     0.97446   0.88560   0.94886   0.00000  Uiso   1.00
C334   C     0.90805   0.89001   0.94211   0.00000  Uiso   1.00
C335   C     0.80046   0.90360   0.97667   0.00000  Uiso   1.00
C336   C     0.01895   0.83910   0.64534   0.00000  Uiso   1.00
C337   C     0.06669   0.89419   0.63502   0.00000  Uiso   1.00
C338   C     0.07824   0.93004   0.53595   0.00000  Uiso   1.00
C339   C     0.12380   0.97838   0.54421   0.00000  Uiso   1.00
C340   C     0.05750   0.78147   0.68714   0.00000  Uiso   1.00
C341   C     0.06132   0.72254   0.63190   0.00000  Uiso   1.00
C342   C     0.09914   0.67598   0.68404   0.00000  Uiso   1.00
C343   C     0.97403   0.85678   0.74462   0.00000  Uiso   1.00
C344   C     0.90766   0.86116   0.73771   0.00000  Uiso   1.00
C345   C     0.87520   0.87799   0.83826   0.00000  Uiso   1.00
H346   H     0.10485   0.87053   0.91688   0.00000  Uiso   1.00
H347   H     0.17040   0.96375   0.82732   0.00000  Uiso   1.00
H348   H     0.15348   0.75628   0.92326   0.00000  Uiso   1.00
H349   H     0.99985   0.89488   0.02906   0.00000  Uiso   1.00
H350   H     0.22863   0.06179   0.68231   0.00000  Uiso   1.00
H351   H     0.19294   0.62432   0.88462   0.00000  Uiso   1.00
H352   H     0.86897   0.91659   0.10772   0.00000  Uiso   1.00
H353   H     0.99342   0.82976   0.56463   0.00000  Uiso   1.00
H354   H     0.05285   0.92075   0.45574   0.00000  Uiso   1.00
H355   H     0.03594   0.71327   0.55169   0.00000  Uiso   1.00
H356   H     0.88230   0.85188   0.65748   0.00000  Uiso   1.00
H357   H     0.13323   0.02689   0.38072   0.00000  Uiso   1.00
H358   H     0.09753   0.58941   0.58304   0.00000  Uiso   1.00
H359   H     0.77357   0.88168   0.80613   0.00000  Uiso   1.00
O360   O     0.22205   0.10491   0.46623   0.00000  Uiso   1.00
O361   O     0.17522   0.53096   0.73167   0.00000  Uiso   1.00
O362   O     0.75018   0.91442   0.02437   0.00000  Uiso   1.00
N363   N     0.19801   0.04110   0.62628   0.00000  Uiso   1.00
N364   N     0.16465   0.63209   0.81542   0.00000  Uiso   1.00
N365   N     0.86177   0.90532   0.02401   0.00000  Uiso   1.00
N366   N     0.14667   0.02232   0.46400   0.00000  Uiso   1.00
N367   N     0.11331   0.61331   0.65314   0.00000  Uiso   1.00
N368   N     0.81043   0.88654   0.86173   0.00000  Uiso   1.00
