data_job_05316
_audit_creation_date              2018-12-19
_audit_creation_method            'Materials Studio'
_symmetry_space_group_name_H-M    'P1'
_symmetry_Int_Tables_number       1
_symmetry_cell_setting            triclinic
loop_
_symmetry_equiv_pos_as_xyz
  x,y,z
_cell_length_a                    19.7090
_cell_length_b                    10.1651
_cell_length_c                    29.6755
_cell_angle_alpha                 90.0000
_cell_angle_beta                  90.0000
_cell_angle_gamma                 90.0000
loop_
_atom_site_label
_atom_site_type_symbol
_atom_site_fract_x
_atom_site_fract_y
_atom_site_fract_z
_atom_site_U_iso_or_equiv
_atom_site_adp_type
_atom_site_occupancy
C1     C     0.40310   0.03646   0.89002   0.00000  Uiso   1.00
C2     C     0.44915   0.93153   0.86969   0.00000  Uiso   1.00
C3     C     0.44279   0.79678   0.87590   0.00000  Uiso   1.00
C4     C     0.49002   0.71717   0.85443   0.00000  Uiso   1.00
C5     C     0.55369   0.54613   0.82695   0.00000  Uiso   1.00
C6     C     0.44949   0.12895   0.91624   0.00000  Uiso   1.00
C7     C     0.44339   0.16020   0.96159   0.00000  Uiso   1.00
C8     C     0.49090   0.24679   0.97930   0.00000  Uiso   1.00
C9     C     0.55506   0.38232   0.02408   0.00000  Uiso   1.00
C10    C     0.37590   0.11622   0.85043   0.00000  Uiso   1.00
C11    C     0.30793   0.13679   0.84044   0.00000  Uiso   1.00
C12    C     0.29349   0.21269   0.80274   0.00000  Uiso   1.00
C13    C     0.24338   0.32846   0.74533   0.00000  Uiso   1.00
C14    C     0.49830   0.13470   0.84084   0.00000  Uiso   1.00
C15    C     0.50087   0.98489   0.84298   0.00000  Uiso   1.00
C16    C     0.54812   0.90547   0.82149   0.00000  Uiso   1.00
C17    C     0.54182   0.77062   0.82767   0.00000  Uiso   1.00
C18    C     0.50120   0.18231   0.88953   0.00000  Uiso   1.00
C19    C     0.54872   0.26888   0.90718   0.00000  Uiso   1.00
C20    C     0.54271   0.30024   0.95254   0.00000  Uiso   1.00
C21    C     0.42761   0.16958   0.82371   0.00000  Uiso   1.00
C22    C     0.41327   0.24547   0.78603   0.00000  Uiso   1.00
C23    C     0.34529   0.26615   0.77598   0.00000  Uiso   1.00
H24    H     0.36284   0.99493   0.91082   0.00000  Uiso   1.00
H25    H     0.40277   0.75553   0.89658   0.00000  Uiso   1.00
H26    H     0.40337   0.11890   0.98225   0.00000  Uiso   1.00
H27    H     0.26793   0.09549   0.86112   0.00000  Uiso   1.00
H28    H     0.46985   0.51365   0.86903   0.00000  Uiso   1.00
H29    H     0.47111   0.27986   0.04967   0.00000  Uiso   1.00
H30    H     0.18551   0.23051   0.79423   0.00000  Uiso   1.00
H31    H     0.53856   0.17624   0.82005   0.00000  Uiso   1.00
H32    H     0.58813   0.94679   0.80082   0.00000  Uiso   1.00
H33    H     0.58873   0.31016   0.88650   0.00000  Uiso   1.00
H34    H     0.45329   0.28675   0.76536   0.00000  Uiso   1.00
H35    H     0.62030   0.66888   0.79131   0.00000  Uiso   1.00
H36    H     0.62155   0.43510   0.97195   0.00000  Uiso   1.00
H37    H     0.33596   0.38574   0.71651   0.00000  Uiso   1.00
O38    O     0.57453   0.43705   0.81917   0.00000  Uiso   1.00
O39    O     0.57616   0.44232   0.05617   0.00000  Uiso   1.00
O40    O     0.20147   0.37755   0.72104   0.00000  Uiso   1.00
N41    N     0.49845   0.58167   0.85337   0.00000  Uiso   1.00
N42    N     0.49963   0.29802   0.02226   0.00000  Uiso   1.00
N43    N     0.23262   0.25190   0.78345   0.00000  Uiso   1.00
N44    N     0.57940   0.66520   0.81155   0.00000  Uiso   1.00
N45    N     0.58058   0.38155   0.98044   0.00000  Uiso   1.00
N46    N     0.31357   0.33543   0.74163   0.00000  Uiso   1.00
C47    C     0.09690   0.96354   0.89002   0.00000  Uiso   1.00
C48    C     0.05085   0.06847   0.86969   0.00000  Uiso   1.00
C49    C     0.05721   0.20322   0.87590   0.00000  Uiso   1.00
C50    C     0.00998   0.28283   0.85443   0.00000  Uiso   1.00
C51    C     0.94631   0.45387   0.82695   0.00000  Uiso   1.00
C52    C     0.05051   0.87105   0.91624   0.00000  Uiso   1.00
C53    C     0.05661   0.83980   0.96159   0.00000  Uiso   1.00
C54    C     0.00910   0.75321   0.97930   0.00000  Uiso   1.00
C55    C     0.94494   0.61768   0.02408   0.00000  Uiso   1.00
C56    C     0.12410   0.88378   0.85043   0.00000  Uiso   1.00
C57    C     0.19207   0.86321   0.84044   0.00000  Uiso   1.00
C58    C     0.20651   0.78731   0.80274   0.00000  Uiso   1.00
C59    C     0.25662   0.67154   0.74533   0.00000  Uiso   1.00
C60    C     0.00170   0.86530   0.84084   0.00000  Uiso   1.00
C61    C     0.99913   0.01511   0.84298   0.00000  Uiso   1.00
C62    C     0.95188   0.09453   0.82149   0.00000  Uiso   1.00
C63    C     0.95818   0.22938   0.82767   0.00000  Uiso   1.00
C64    C     0.99880   0.81769   0.88953   0.00000  Uiso   1.00
C65    C     0.95128   0.73112   0.90718   0.00000  Uiso   1.00
C66    C     0.95729   0.69976   0.95254   0.00000  Uiso   1.00
C67    C     0.07239   0.83042   0.82371   0.00000  Uiso   1.00
C68    C     0.08673   0.75453   0.78603   0.00000  Uiso   1.00
C69    C     0.15471   0.73385   0.77598   0.00000  Uiso   1.00
H70    H     0.13716   0.00507   0.91082   0.00000  Uiso   1.00
H71    H     0.09723   0.24447   0.89658   0.00000  Uiso   1.00
H72    H     0.09663   0.88110   0.98225   0.00000  Uiso   1.00
H73    H     0.23207   0.90451   0.86112   0.00000  Uiso   1.00
H74    H     0.03015   0.48635   0.86903   0.00000  Uiso   1.00
H75    H     0.02889   0.72014   0.04967   0.00000  Uiso   1.00
H76    H     0.31449   0.76949   0.79423   0.00000  Uiso   1.00
H77    H     0.96144   0.82376   0.82005   0.00000  Uiso   1.00
H78    H     0.91187   0.05321   0.80082   0.00000  Uiso   1.00
H79    H     0.91127   0.68984   0.88650   0.00000  Uiso   1.00
H80    H     0.04671   0.71325   0.76536   0.00000  Uiso   1.00
H81    H     0.87970   0.33112   0.79131   0.00000  Uiso   1.00
H82    H     0.87845   0.56490   0.97195   0.00000  Uiso   1.00
H83    H     0.16404   0.61426   0.71651   0.00000  Uiso   1.00
O84    O     0.92547   0.56295   0.81917   0.00000  Uiso   1.00
O85    O     0.92384   0.55768   0.05617   0.00000  Uiso   1.00
O86    O     0.29853   0.62245   0.72104   0.00000  Uiso   1.00
N87    N     0.00155   0.41833   0.85337   0.00000  Uiso   1.00
N88    N     0.00037   0.70198   0.02226   0.00000  Uiso   1.00
N89    N     0.26738   0.74810   0.78345   0.00000  Uiso   1.00
N90    N     0.92060   0.33480   0.81155   0.00000  Uiso   1.00
N91    N     0.91942   0.61845   0.98044   0.00000  Uiso   1.00
N92    N     0.18643   0.66457   0.74163   0.00000  Uiso   1.00
C93    C     0.59690   0.03646   0.60998   0.00000  Uiso   1.00
C94    C     0.55085   0.93153   0.63031   0.00000  Uiso   1.00
C95    C     0.55721   0.79678   0.62410   0.00000  Uiso   1.00
C96    C     0.50998   0.71717   0.64557   0.00000  Uiso   1.00
C97    C     0.44631   0.54613   0.67305   0.00000  Uiso   1.00
C98    C     0.55051   0.12895   0.58376   0.00000  Uiso   1.00
C99    C     0.55661   0.16020   0.53841   0.00000  Uiso   1.00
C100   C     0.50910   0.24679   0.52070   0.00000  Uiso   1.00
C101   C     0.44494   0.38232   0.47592   0.00000  Uiso   1.00
C102   C     0.62410   0.11622   0.64957   0.00000  Uiso   1.00
C103   C     0.69207   0.13679   0.65956   0.00000  Uiso   1.00
C104   C     0.70651   0.21269   0.69726   0.00000  Uiso   1.00
C105   C     0.75662   0.32846   0.75467   0.00000  Uiso   1.00
C106   C     0.50170   0.13470   0.65916   0.00000  Uiso   1.00
C107   C     0.49913   0.98489   0.65702   0.00000  Uiso   1.00
C108   C     0.45188   0.90547   0.67851   0.00000  Uiso   1.00
C109   C     0.45818   0.77062   0.67233   0.00000  Uiso   1.00
C110   C     0.49880   0.18231   0.61047   0.00000  Uiso   1.00
C111   C     0.45128   0.26888   0.59282   0.00000  Uiso   1.00
C112   C     0.45729   0.30024   0.54746   0.00000  Uiso   1.00
C113   C     0.57239   0.16958   0.67629   0.00000  Uiso   1.00
C114   C     0.58673   0.24547   0.71397   0.00000  Uiso   1.00
C115   C     0.65471   0.26615   0.72402   0.00000  Uiso   1.00
H116   H     0.63716   0.99493   0.58918   0.00000  Uiso   1.00
H117   H     0.59723   0.75553   0.60342   0.00000  Uiso   1.00
H118   H     0.59663   0.11890   0.51775   0.00000  Uiso   1.00
H119   H     0.73207   0.09549   0.63888   0.00000  Uiso   1.00
H120   H     0.53015   0.51365   0.63097   0.00000  Uiso   1.00
H121   H     0.52889   0.27986   0.45033   0.00000  Uiso   1.00
H122   H     0.81449   0.23051   0.70577   0.00000  Uiso   1.00
H123   H     0.46144   0.17624   0.67995   0.00000  Uiso   1.00
H124   H     0.41187   0.94679   0.69918   0.00000  Uiso   1.00
H125   H     0.41127   0.31016   0.61350   0.00000  Uiso   1.00
H126   H     0.54671   0.28675   0.73464   0.00000  Uiso   1.00
H127   H     0.37970   0.66888   0.70869   0.00000  Uiso   1.00
H128   H     0.37845   0.43510   0.52805   0.00000  Uiso   1.00
H129   H     0.66404   0.38574   0.78349   0.00000  Uiso   1.00
O130   O     0.42547   0.43705   0.68083   0.00000  Uiso   1.00
O131   O     0.42384   0.44232   0.44383   0.00000  Uiso   1.00
O132   O     0.79853   0.37755   0.77896   0.00000  Uiso   1.00
N133   N     0.50155   0.58167   0.64663   0.00000  Uiso   1.00
N134   N     0.50037   0.29802   0.47774   0.00000  Uiso   1.00
N135   N     0.76738   0.25190   0.71655   0.00000  Uiso   1.00
N136   N     0.42060   0.66520   0.68845   0.00000  Uiso   1.00
N137   N     0.41942   0.38155   0.51956   0.00000  Uiso   1.00
N138   N     0.68643   0.33543   0.75837   0.00000  Uiso   1.00
C139   C     0.90310   0.96354   0.60998   0.00000  Uiso   1.00
C140   C     0.94915   0.06847   0.63031   0.00000  Uiso   1.00
C141   C     0.94279   0.20322   0.62410   0.00000  Uiso   1.00
C142   C     0.99002   0.28283   0.64557   0.00000  Uiso   1.00
C143   C     0.05369   0.45387   0.67305   0.00000  Uiso   1.00
C144   C     0.94949   0.87105   0.58376   0.00000  Uiso   1.00
C145   C     0.94339   0.83980   0.53841   0.00000  Uiso   1.00
C146   C     0.99090   0.75321   0.52070   0.00000  Uiso   1.00
C147   C     0.05506   0.61768   0.47592   0.00000  Uiso   1.00
C148   C     0.87590   0.88378   0.64957   0.00000  Uiso   1.00
C149   C     0.80793   0.86321   0.65956   0.00000  Uiso   1.00
C150   C     0.79349   0.78731   0.69726   0.00000  Uiso   1.00
C151   C     0.74338   0.67154   0.75467   0.00000  Uiso   1.00
C152   C     0.99830   0.86530   0.65916   0.00000  Uiso   1.00
C153   C     0.00087   0.01511   0.65702   0.00000  Uiso   1.00
C154   C     0.04812   0.09453   0.67851   0.00000  Uiso   1.00
C155   C     0.04182   0.22938   0.67233   0.00000  Uiso   1.00
C156   C     0.00120   0.81769   0.61047   0.00000  Uiso   1.00
C157   C     0.04872   0.73112   0.59282   0.00000  Uiso   1.00
C158   C     0.04271   0.69976   0.54746   0.00000  Uiso   1.00
C159   C     0.92761   0.83042   0.67629   0.00000  Uiso   1.00
C160   C     0.91327   0.75453   0.71397   0.00000  Uiso   1.00
C161   C     0.84529   0.73385   0.72402   0.00000  Uiso   1.00
H162   H     0.86284   0.00507   0.58918   0.00000  Uiso   1.00
H163   H     0.90277   0.24447   0.60342   0.00000  Uiso   1.00
H164   H     0.90337   0.88110   0.51775   0.00000  Uiso   1.00
H165   H     0.76793   0.90451   0.63888   0.00000  Uiso   1.00
H166   H     0.96985   0.48635   0.63097   0.00000  Uiso   1.00
H167   H     0.97111   0.72014   0.45033   0.00000  Uiso   1.00
H168   H     0.68551   0.76949   0.70577   0.00000  Uiso   1.00
H169   H     0.03856   0.82376   0.67995   0.00000  Uiso   1.00
H170   H     0.08813   0.05321   0.69918   0.00000  Uiso   1.00
H171   H     0.08873   0.68984   0.61350   0.00000  Uiso   1.00
H172   H     0.95329   0.71325   0.73464   0.00000  Uiso   1.00
H173   H     0.12030   0.33112   0.70869   0.00000  Uiso   1.00
H174   H     0.12155   0.56490   0.52805   0.00000  Uiso   1.00
H175   H     0.83596   0.61426   0.78349   0.00000  Uiso   1.00
O176   O     0.07453   0.56295   0.68083   0.00000  Uiso   1.00
O177   O     0.07616   0.55768   0.44383   0.00000  Uiso   1.00
O178   O     0.70147   0.62245   0.77896   0.00000  Uiso   1.00
N179   N     0.99845   0.41833   0.64663   0.00000  Uiso   1.00
N180   N     0.99963   0.70198   0.47774   0.00000  Uiso   1.00
N181   N     0.73262   0.74810   0.71655   0.00000  Uiso   1.00
N182   N     0.07940   0.33480   0.68845   0.00000  Uiso   1.00
N183   N     0.08058   0.61845   0.51956   0.00000  Uiso   1.00
N184   N     0.81357   0.66457   0.75837   0.00000  Uiso   1.00
C185   C     0.59690   0.96354   0.10998   0.00000  Uiso   1.00
C186   C     0.55085   0.06847   0.13031   0.00000  Uiso   1.00
C187   C     0.55721   0.20322   0.12410   0.00000  Uiso   1.00
C188   C     0.50998   0.28283   0.14557   0.00000  Uiso   1.00
C189   C     0.44631   0.45387   0.17305   0.00000  Uiso   1.00
C190   C     0.55051   0.87105   0.08376   0.00000  Uiso   1.00
C191   C     0.55661   0.83980   0.03841   0.00000  Uiso   1.00
C192   C     0.50910   0.75321   0.02070   0.00000  Uiso   1.00
C193   C     0.44494   0.61768   0.97592   0.00000  Uiso   1.00
C194   C     0.62410   0.88378   0.14957   0.00000  Uiso   1.00
C195   C     0.69207   0.86321   0.15956   0.00000  Uiso   1.00
C196   C     0.70651   0.78731   0.19726   0.00000  Uiso   1.00
C197   C     0.75662   0.67154   0.25467   0.00000  Uiso   1.00
C198   C     0.50170   0.86530   0.15916   0.00000  Uiso   1.00
C199   C     0.49913   0.01511   0.15702   0.00000  Uiso   1.00
C200   C     0.45188   0.09453   0.17851   0.00000  Uiso   1.00
C201   C     0.45818   0.22938   0.17233   0.00000  Uiso   1.00
C202   C     0.49880   0.81769   0.11047   0.00000  Uiso   1.00
C203   C     0.45128   0.73112   0.09282   0.00000  Uiso   1.00
C204   C     0.45729   0.69976   0.04746   0.00000  Uiso   1.00
C205   C     0.57239   0.83042   0.17629   0.00000  Uiso   1.00
C206   C     0.58673   0.75453   0.21397   0.00000  Uiso   1.00
C207   C     0.65471   0.73385   0.22402   0.00000  Uiso   1.00
H208   H     0.63716   0.00507   0.08918   0.00000  Uiso   1.00
H209   H     0.59723   0.24447   0.10342   0.00000  Uiso   1.00
H210   H     0.59663   0.88110   0.01775   0.00000  Uiso   1.00
H211   H     0.73207   0.90451   0.13888   0.00000  Uiso   1.00
H212   H     0.53015   0.48635   0.13097   0.00000  Uiso   1.00
H213   H     0.52889   0.72014   0.95033   0.00000  Uiso   1.00
H214   H     0.81449   0.76949   0.20577   0.00000  Uiso   1.00
H215   H     0.46144   0.82376   0.17995   0.00000  Uiso   1.00
H216   H     0.41187   0.05321   0.19918   0.00000  Uiso   1.00
H217   H     0.41127   0.68984   0.11350   0.00000  Uiso   1.00
H218   H     0.54671   0.71325   0.23464   0.00000  Uiso   1.00
H219   H     0.37970   0.33112   0.20869   0.00000  Uiso   1.00
H220   H     0.37845   0.56490   0.02805   0.00000  Uiso   1.00
H221   H     0.66404   0.61426   0.28349   0.00000  Uiso   1.00
O222   O     0.42547   0.56295   0.18083   0.00000  Uiso   1.00
O223   O     0.42384   0.55768   0.94383   0.00000  Uiso   1.00
O224   O     0.79853   0.62245   0.27896   0.00000  Uiso   1.00
N225   N     0.50155   0.41833   0.14663   0.00000  Uiso   1.00
N226   N     0.50037   0.70198   0.97774   0.00000  Uiso   1.00
N227   N     0.76738   0.74810   0.21655   0.00000  Uiso   1.00
N228   N     0.42060   0.33480   0.18845   0.00000  Uiso   1.00
N229   N     0.41942   0.61845   0.01956   0.00000  Uiso   1.00
N230   N     0.68643   0.66457   0.25837   0.00000  Uiso   1.00
C231   C     0.90310   0.03646   0.10998   0.00000  Uiso   1.00
C232   C     0.94915   0.93153   0.13031   0.00000  Uiso   1.00
C233   C     0.94279   0.79678   0.12410   0.00000  Uiso   1.00
C234   C     0.99002   0.71717   0.14557   0.00000  Uiso   1.00
C235   C     0.05369   0.54613   0.17305   0.00000  Uiso   1.00
C236   C     0.94949   0.12895   0.08376   0.00000  Uiso   1.00
C237   C     0.94339   0.16020   0.03841   0.00000  Uiso   1.00
C238   C     0.99090   0.24679   0.02070   0.00000  Uiso   1.00
C239   C     0.05506   0.38232   0.97592   0.00000  Uiso   1.00
C240   C     0.87590   0.11622   0.14957   0.00000  Uiso   1.00
C241   C     0.80793   0.13679   0.15956   0.00000  Uiso   1.00
C242   C     0.79349   0.21269   0.19726   0.00000  Uiso   1.00
C243   C     0.74338   0.32846   0.25467   0.00000  Uiso   1.00
C244   C     0.99830   0.13470   0.15916   0.00000  Uiso   1.00
C245   C     0.00087   0.98489   0.15702   0.00000  Uiso   1.00
C246   C     0.04812   0.90547   0.17851   0.00000  Uiso   1.00
C247   C     0.04182   0.77062   0.17233   0.00000  Uiso   1.00
C248   C     0.00120   0.18231   0.11047   0.00000  Uiso   1.00
C249   C     0.04872   0.26888   0.09282   0.00000  Uiso   1.00
C250   C     0.04271   0.30024   0.04746   0.00000  Uiso   1.00
C251   C     0.92761   0.16958   0.17629   0.00000  Uiso   1.00
C252   C     0.91327   0.24547   0.21397   0.00000  Uiso   1.00
C253   C     0.84529   0.26615   0.22402   0.00000  Uiso   1.00
H254   H     0.86284   0.99493   0.08918   0.00000  Uiso   1.00
H255   H     0.90277   0.75553   0.10342   0.00000  Uiso   1.00
H256   H     0.90337   0.11890   0.01775   0.00000  Uiso   1.00
H257   H     0.76793   0.09549   0.13888   0.00000  Uiso   1.00
H258   H     0.96985   0.51365   0.13097   0.00000  Uiso   1.00
H259   H     0.97111   0.27986   0.95033   0.00000  Uiso   1.00
H260   H     0.68551   0.23051   0.20577   0.00000  Uiso   1.00
H261   H     0.03856   0.17624   0.17995   0.00000  Uiso   1.00
H262   H     0.08813   0.94679   0.19918   0.00000  Uiso   1.00
H263   H     0.08873   0.31016   0.11350   0.00000  Uiso   1.00
H264   H     0.95329   0.28675   0.23464   0.00000  Uiso   1.00
H265   H     0.12030   0.66888   0.20869   0.00000  Uiso   1.00
H266   H     0.12155   0.43510   0.02805   0.00000  Uiso   1.00
H267   H     0.83596   0.38574   0.28349   0.00000  Uiso   1.00
O268   O     0.07453   0.43705   0.18083   0.00000  Uiso   1.00
O269   O     0.07616   0.44232   0.94383   0.00000  Uiso   1.00
O270   O     0.70147   0.37755   0.27896   0.00000  Uiso   1.00
N271   N     0.99845   0.58167   0.14663   0.00000  Uiso   1.00
N272   N     0.99963   0.29802   0.97774   0.00000  Uiso   1.00
N273   N     0.73262   0.25190   0.21655   0.00000  Uiso   1.00
N274   N     0.07940   0.66520   0.18845   0.00000  Uiso   1.00
N275   N     0.08058   0.38155   0.01956   0.00000  Uiso   1.00
N276   N     0.81357   0.33543   0.25837   0.00000  Uiso   1.00
C277   C     0.40310   0.96354   0.39002   0.00000  Uiso   1.00
C278   C     0.44915   0.06847   0.36969   0.00000  Uiso   1.00
C279   C     0.44279   0.20322   0.37590   0.00000  Uiso   1.00
C280   C     0.49002   0.28283   0.35443   0.00000  Uiso   1.00
C281   C     0.55369   0.45387   0.32695   0.00000  Uiso   1.00
C282   C     0.44949   0.87105   0.41624   0.00000  Uiso   1.00
C283   C     0.44339   0.83980   0.46159   0.00000  Uiso   1.00
C284   C     0.49090   0.75321   0.47930   0.00000  Uiso   1.00
C285   C     0.55506   0.61768   0.52408   0.00000  Uiso   1.00
C286   C     0.37590   0.88378   0.35043   0.00000  Uiso   1.00
C287   C     0.30793   0.86321   0.34044   0.00000  Uiso   1.00
C288   C     0.29349   0.78731   0.30274   0.00000  Uiso   1.00
C289   C     0.24338   0.67154   0.24533   0.00000  Uiso   1.00
C290   C     0.49830   0.86530   0.34084   0.00000  Uiso   1.00
C291   C     0.50087   0.01511   0.34298   0.00000  Uiso   1.00
C292   C     0.54812   0.09453   0.32149   0.00000  Uiso   1.00
C293   C     0.54182   0.22938   0.32767   0.00000  Uiso   1.00
C294   C     0.50120   0.81769   0.38953   0.00000  Uiso   1.00
C295   C     0.54872   0.73112   0.40718   0.00000  Uiso   1.00
C296   C     0.54271   0.69976   0.45254   0.00000  Uiso   1.00
C297   C     0.42761   0.83042   0.32371   0.00000  Uiso   1.00
C298   C     0.41327   0.75453   0.28603   0.00000  Uiso   1.00
C299   C     0.34529   0.73385   0.27598   0.00000  Uiso   1.00
H300   H     0.36284   0.00507   0.41082   0.00000  Uiso   1.00
H301   H     0.40277   0.24447   0.39658   0.00000  Uiso   1.00
H302   H     0.40337   0.88110   0.48225   0.00000  Uiso   1.00
H303   H     0.26793   0.90451   0.36112   0.00000  Uiso   1.00
H304   H     0.46985   0.48635   0.36903   0.00000  Uiso   1.00
H305   H     0.47111   0.72014   0.54967   0.00000  Uiso   1.00
H306   H     0.18551   0.76949   0.29423   0.00000  Uiso   1.00
H307   H     0.53856   0.82376   0.32005   0.00000  Uiso   1.00
H308   H     0.58813   0.05321   0.30082   0.00000  Uiso   1.00
H309   H     0.58873   0.68984   0.38650   0.00000  Uiso   1.00
H310   H     0.45329   0.71325   0.26536   0.00000  Uiso   1.00
H311   H     0.62030   0.33112   0.29131   0.00000  Uiso   1.00
H312   H     0.62155   0.56490   0.47195   0.00000  Uiso   1.00
H313   H     0.33596   0.61426   0.21651   0.00000  Uiso   1.00
O314   O     0.57453   0.56295   0.31917   0.00000  Uiso   1.00
O315   O     0.57616   0.55768   0.55617   0.00000  Uiso   1.00
O316   O     0.20147   0.62245   0.22104   0.00000  Uiso   1.00
N317   N     0.49845   0.41833   0.35337   0.00000  Uiso   1.00
N318   N     0.49963   0.70198   0.52226   0.00000  Uiso   1.00
N319   N     0.23262   0.74810   0.28345   0.00000  Uiso   1.00
N320   N     0.57940   0.33480   0.31155   0.00000  Uiso   1.00
N321   N     0.58058   0.61845   0.48044   0.00000  Uiso   1.00
N322   N     0.31357   0.66457   0.24163   0.00000  Uiso   1.00
C323   C     0.09690   0.03646   0.39002   0.00000  Uiso   1.00
C324   C     0.05085   0.93153   0.36969   0.00000  Uiso   1.00
C325   C     0.05721   0.79678   0.37590   0.00000  Uiso   1.00
C326   C     0.00998   0.71717   0.35443   0.00000  Uiso   1.00
C327   C     0.94631   0.54613   0.32695   0.00000  Uiso   1.00
C328   C     0.05051   0.12895   0.41624   0.00000  Uiso   1.00
C329   C     0.05661   0.16020   0.46159   0.00000  Uiso   1.00
C330   C     0.00910   0.24679   0.47930   0.00000  Uiso   1.00
C331   C     0.94494   0.38232   0.52408   0.00000  Uiso   1.00
C332   C     0.12410   0.11622   0.35043   0.00000  Uiso   1.00
C333   C     0.19207   0.13679   0.34044   0.00000  Uiso   1.00
C334   C     0.20651   0.21269   0.30274   0.00000  Uiso   1.00
C335   C     0.25662   0.32846   0.24533   0.00000  Uiso   1.00
C336   C     0.00170   0.13470   0.34084   0.00000  Uiso   1.00
C337   C     0.99913   0.98489   0.34298   0.00000  Uiso   1.00
C338   C     0.95188   0.90547   0.32149   0.00000  Uiso   1.00
C339   C     0.95818   0.77062   0.32767   0.00000  Uiso   1.00
C340   C     0.99880   0.18231   0.38953   0.00000  Uiso   1.00
C341   C     0.95128   0.26888   0.40718   0.00000  Uiso   1.00
C342   C     0.95729   0.30024   0.45254   0.00000  Uiso   1.00
C343   C     0.07239   0.16958   0.32371   0.00000  Uiso   1.00
C344   C     0.08673   0.24547   0.28603   0.00000  Uiso   1.00
C345   C     0.15471   0.26615   0.27598   0.00000  Uiso   1.00
H346   H     0.13716   0.99493   0.41082   0.00000  Uiso   1.00
H347   H     0.09723   0.75553   0.39658   0.00000  Uiso   1.00
H348   H     0.09663   0.11890   0.48225   0.00000  Uiso   1.00
H349   H     0.23207   0.09549   0.36112   0.00000  Uiso   1.00
H350   H     0.03015   0.51365   0.36903   0.00000  Uiso   1.00
H351   H     0.02889   0.27986   0.54967   0.00000  Uiso   1.00
H352   H     0.31449   0.23051   0.29423   0.00000  Uiso   1.00
H353   H     0.96144   0.17624   0.32005   0.00000  Uiso   1.00
H354   H     0.91187   0.94679   0.30082   0.00000  Uiso   1.00
H355   H     0.91127   0.31016   0.38650   0.00000  Uiso   1.00
H356   H     0.04671   0.28675   0.26536   0.00000  Uiso   1.00
H357   H     0.87970   0.66888   0.29131   0.00000  Uiso   1.00
H358   H     0.87845   0.43510   0.47195   0.00000  Uiso   1.00
H359   H     0.16404   0.38574   0.21651   0.00000  Uiso   1.00
O360   O     0.92547   0.43705   0.31917   0.00000  Uiso   1.00
O361   O     0.92384   0.44232   0.55617   0.00000  Uiso   1.00
O362   O     0.29853   0.37755   0.22104   0.00000  Uiso   1.00
N363   N     0.00155   0.58167   0.35337   0.00000  Uiso   1.00
N364   N     0.00037   0.29802   0.52226   0.00000  Uiso   1.00
N365   N     0.26738   0.25190   0.28345   0.00000  Uiso   1.00
N366   N     0.92060   0.66520   0.31155   0.00000  Uiso   1.00
N367   N     0.91942   0.38155   0.48044   0.00000  Uiso   1.00
N368   N     0.18643   0.33543   0.24163   0.00000  Uiso   1.00
