data_job_00478
_audit_creation_date              2018-12-19
_audit_creation_method            'Materials Studio'
_symmetry_space_group_name_H-M    'P1'
_symmetry_Int_Tables_number       1
_symmetry_cell_setting            triclinic
loop_
_symmetry_equiv_pos_as_xyz
  x,y,z
_cell_length_a                    23.2713
_cell_length_b                    23.5251
_cell_length_c                    9.2559
_cell_angle_alpha                 90.0000
_cell_angle_beta                  90.0000
_cell_angle_gamma                 90.0000
loop_
_atom_site_label
_atom_site_type_symbol
_atom_site_fract_x
_atom_site_fract_y
_atom_site_fract_z
_atom_site_U_iso_or_equiv
_atom_site_adp_type
_atom_site_occupancy
C1     C     0.10015   0.57002   0.37377   0.00000  Uiso   1.00
C2     C     0.09646   0.56171   0.21064   0.00000  Uiso   1.00
C3     C     0.08329   0.51117   0.14073   0.00000  Uiso   1.00
C4     C     0.08209   0.51233   0.99079   0.00000  Uiso   1.00
C5     C     0.07464   0.49181   0.74922   0.00000  Uiso   1.00
C6     C     0.16012   0.59339   0.40347   0.00000  Uiso   1.00
C7     C     0.20046   0.56951   0.49570   0.00000  Uiso   1.00
C8     C     0.25284   0.59734   0.50809   0.00000  Uiso   1.00
C9     C     0.34420   0.62604   0.56597   0.00000  Uiso   1.00
C10    C     0.05845   0.61796   0.40991   0.00000  Uiso   1.00
C11    C     0.01332   0.61474   0.50760   0.00000  Uiso   1.00
C12    C     0.98011   0.66327   0.52544   0.00000  Uiso   1.00
C13    C     0.91362   0.73011   0.59332   0.00000  Uiso   1.00
C14    C     0.12143   0.66194   0.23180   0.00000  Uiso   1.00
C15    C     0.10802   0.61163   0.13353   0.00000  Uiso   1.00
C16    C     0.10683   0.61287   0.98366   0.00000  Uiso   1.00
C17    C     0.09366   0.56234   0.91354   0.00000  Uiso   1.00
C18    C     0.17168   0.64332   0.32636   0.00000  Uiso   1.00
C19    C     0.22401   0.67120   0.33862   0.00000  Uiso   1.00
C20    C     0.26442   0.64736   0.43084   0.00000  Uiso   1.00
C21    C     0.07001   0.66789   0.33280   0.00000  Uiso   1.00
C22    C     0.03686   0.71643   0.35051   0.00000  Uiso   1.00
C23    C     0.99169   0.71328   0.44819   0.00000  Uiso   1.00
H24    H     0.09115   0.53116   0.43381   0.00000  Uiso   1.00
H25    H     0.07436   0.47254   0.20045   0.00000  Uiso   1.00
H26    H     0.19151   0.53087   0.55537   0.00000  Uiso   1.00
H27    H     0.00439   0.57610   0.56725   0.00000  Uiso   1.00
H28    H     0.06085   0.42957   0.90771   0.00000  Uiso   1.00
H29    H     0.30786   0.55257   0.65612   0.00000  Uiso   1.00
H30    H     0.91330   0.64794   0.68118   0.00000  Uiso   1.00
H31    H     0.13043   0.70081   0.17177   0.00000  Uiso   1.00
H32    H     0.11578   0.65151   0.92401   0.00000  Uiso   1.00
H33    H     0.23293   0.70984   0.27894   0.00000  Uiso   1.00
H34    H     0.04582   0.75506   0.29082   0.00000  Uiso   1.00
H35    H     0.09448   0.57483   0.68335   0.00000  Uiso   1.00
H36    H     0.34149   0.69783   0.43176   0.00000  Uiso   1.00
H37    H     0.94692   0.79319   0.45682   0.00000  Uiso   1.00
O38    O     0.06734   0.46670   0.63728   0.00000  Uiso   1.00
O39    O     0.39140   0.62808   0.61918   0.00000  Uiso   1.00
O40    O     0.87375   0.75319   0.65205   0.00000  Uiso   1.00
N41    N     0.07076   0.47053   0.88891   0.00000  Uiso   1.00
N42    N     0.30171   0.58552   0.58861   0.00000  Uiso   1.00
N43    N     0.93283   0.67468   0.61207   0.00000  Uiso   1.00
N44    N     0.08886   0.54869   0.76818   0.00000  Uiso   1.00
N45    N     0.31980   0.66368   0.46788   0.00000  Uiso   1.00
N46    N     0.95092   0.75284   0.49134   0.00000  Uiso   1.00
C47    C     0.39985   0.42998   0.87377   0.00000  Uiso   1.00
C48    C     0.40354   0.43829   0.71064   0.00000  Uiso   1.00
C49    C     0.41671   0.48883   0.64073   0.00000  Uiso   1.00
C50    C     0.41791   0.48767   0.49079   0.00000  Uiso   1.00
C51    C     0.42536   0.50819   0.24922   0.00000  Uiso   1.00
C52    C     0.33988   0.40661   0.90347   0.00000  Uiso   1.00
C53    C     0.29954   0.43049   0.99570   0.00000  Uiso   1.00
C54    C     0.24716   0.40266   0.00809   0.00000  Uiso   1.00
C55    C     0.15580   0.37396   0.06597   0.00000  Uiso   1.00
C56    C     0.44155   0.38204   0.90991   0.00000  Uiso   1.00
C57    C     0.48668   0.38526   0.00760   0.00000  Uiso   1.00
C58    C     0.51989   0.33673   0.02544   0.00000  Uiso   1.00
C59    C     0.58638   0.26989   0.09332   0.00000  Uiso   1.00
C60    C     0.37857   0.33806   0.73180   0.00000  Uiso   1.00
C61    C     0.39198   0.38837   0.63353   0.00000  Uiso   1.00
C62    C     0.39317   0.38713   0.48366   0.00000  Uiso   1.00
C63    C     0.40634   0.43766   0.41354   0.00000  Uiso   1.00
C64    C     0.32832   0.35668   0.82636   0.00000  Uiso   1.00
C65    C     0.27599   0.32880   0.83862   0.00000  Uiso   1.00
C66    C     0.23558   0.35264   0.93084   0.00000  Uiso   1.00
C67    C     0.42999   0.33211   0.83280   0.00000  Uiso   1.00
C68    C     0.46314   0.28357   0.85051   0.00000  Uiso   1.00
C69    C     0.50831   0.28672   0.94819   0.00000  Uiso   1.00
H70    H     0.40885   0.46884   0.93381   0.00000  Uiso   1.00
H71    H     0.42564   0.52746   0.70045   0.00000  Uiso   1.00
H72    H     0.30849   0.46913   0.05537   0.00000  Uiso   1.00
H73    H     0.49561   0.42390   0.06725   0.00000  Uiso   1.00
H74    H     0.43915   0.57043   0.40771   0.00000  Uiso   1.00
H75    H     0.19214   0.44743   0.15612   0.00000  Uiso   1.00
H76    H     0.58670   0.35206   0.18118   0.00000  Uiso   1.00
H77    H     0.36957   0.29919   0.67177   0.00000  Uiso   1.00
H78    H     0.38422   0.34849   0.42401   0.00000  Uiso   1.00
H79    H     0.26707   0.29016   0.77894   0.00000  Uiso   1.00
H80    H     0.45418   0.24494   0.79082   0.00000  Uiso   1.00
H81    H     0.40552   0.42517   0.18335   0.00000  Uiso   1.00
H82    H     0.15851   0.30217   0.93176   0.00000  Uiso   1.00
H83    H     0.55308   0.20681   0.95682   0.00000  Uiso   1.00
O84    O     0.43266   0.53330   0.13728   0.00000  Uiso   1.00
O85    O     0.10860   0.37192   0.11918   0.00000  Uiso   1.00
O86    O     0.62625   0.24681   0.15205   0.00000  Uiso   1.00
N87    N     0.42924   0.52947   0.38891   0.00000  Uiso   1.00
N88    N     0.19829   0.41448   0.08861   0.00000  Uiso   1.00
N89    N     0.56717   0.32532   0.11207   0.00000  Uiso   1.00
N90    N     0.41114   0.45131   0.26818   0.00000  Uiso   1.00
N91    N     0.18020   0.33632   0.96788   0.00000  Uiso   1.00
N92    N     0.54908   0.24716   0.99134   0.00000  Uiso   1.00
C93    C     0.89985   0.07002   0.12623   0.00000  Uiso   1.00
C94    C     0.90354   0.06171   0.28936   0.00000  Uiso   1.00
C95    C     0.91671   0.01117   0.35927   0.00000  Uiso   1.00
C96    C     0.91791   0.01233   0.50921   0.00000  Uiso   1.00
C97    C     0.92536   0.99181   0.75078   0.00000  Uiso   1.00
C98    C     0.83988   0.09339   0.09653   0.00000  Uiso   1.00
C99    C     0.79954   0.06951   0.00430   0.00000  Uiso   1.00
C100   C     0.74716   0.09734   0.99191   0.00000  Uiso   1.00
C101   C     0.65580   0.12604   0.93403   0.00000  Uiso   1.00
C102   C     0.94155   0.11796   0.09009   0.00000  Uiso   1.00
C103   C     0.98668   0.11474   0.99240   0.00000  Uiso   1.00
C104   C     0.01989   0.16327   0.97456   0.00000  Uiso   1.00
C105   C     0.08638   0.23011   0.90668   0.00000  Uiso   1.00
C106   C     0.87857   0.16194   0.26820   0.00000  Uiso   1.00
C107   C     0.89198   0.11163   0.36647   0.00000  Uiso   1.00
C108   C     0.89317   0.11287   0.51634   0.00000  Uiso   1.00
C109   C     0.90634   0.06234   0.58646   0.00000  Uiso   1.00
C110   C     0.82832   0.14332   0.17364   0.00000  Uiso   1.00
C111   C     0.77599   0.17120   0.16138   0.00000  Uiso   1.00
C112   C     0.73558   0.14736   0.06916   0.00000  Uiso   1.00
C113   C     0.92999   0.16789   0.16720   0.00000  Uiso   1.00
C114   C     0.96314   0.21643   0.14949   0.00000  Uiso   1.00
C115   C     0.00831   0.21328   0.05181   0.00000  Uiso   1.00
H116   H     0.90885   0.03116   0.06619   0.00000  Uiso   1.00
H117   H     0.92564   0.97254   0.29955   0.00000  Uiso   1.00
H118   H     0.80849   0.03087   0.94463   0.00000  Uiso   1.00
H119   H     0.99561   0.07610   0.93275   0.00000  Uiso   1.00
H120   H     0.93915   0.92957   0.59229   0.00000  Uiso   1.00
H121   H     0.69214   0.05257   0.84388   0.00000  Uiso   1.00
H122   H     0.08670   0.14794   0.81882   0.00000  Uiso   1.00
H123   H     0.86957   0.20081   0.32823   0.00000  Uiso   1.00
H124   H     0.88422   0.15151   0.57599   0.00000  Uiso   1.00
H125   H     0.76707   0.20984   0.22106   0.00000  Uiso   1.00
H126   H     0.95418   0.25506   0.20918   0.00000  Uiso   1.00
H127   H     0.90552   0.07483   0.81665   0.00000  Uiso   1.00
H128   H     0.65851   0.19783   0.06824   0.00000  Uiso   1.00
H129   H     0.05308   0.29319   0.04318   0.00000  Uiso   1.00
O130   O     0.93266   0.96670   0.86272   0.00000  Uiso   1.00
O131   O     0.60860   0.12808   0.88082   0.00000  Uiso   1.00
O132   O     0.12625   0.25319   0.84795   0.00000  Uiso   1.00
N133   N     0.92924   0.97053   0.61109   0.00000  Uiso   1.00
N134   N     0.69829   0.08552   0.91139   0.00000  Uiso   1.00
N135   N     0.06717   0.17468   0.88793   0.00000  Uiso   1.00
N136   N     0.91114   0.04869   0.73182   0.00000  Uiso   1.00
N137   N     0.68020   0.16368   0.03212   0.00000  Uiso   1.00
N138   N     0.04908   0.25284   0.00866   0.00000  Uiso   1.00
C139   C     0.60015   0.92998   0.62623   0.00000  Uiso   1.00
C140   C     0.59646   0.93829   0.78936   0.00000  Uiso   1.00
C141   C     0.58329   0.98883   0.85927   0.00000  Uiso   1.00
C142   C     0.58209   0.98767   0.00921   0.00000  Uiso   1.00
C143   C     0.57464   0.00819   0.25078   0.00000  Uiso   1.00
C144   C     0.66012   0.90661   0.59653   0.00000  Uiso   1.00
C145   C     0.70046   0.93049   0.50430   0.00000  Uiso   1.00
C146   C     0.75284   0.90266   0.49191   0.00000  Uiso   1.00
C147   C     0.84420   0.87396   0.43403   0.00000  Uiso   1.00
C148   C     0.55845   0.88204   0.59009   0.00000  Uiso   1.00
C149   C     0.51332   0.88526   0.49240   0.00000  Uiso   1.00
C150   C     0.48011   0.83673   0.47456   0.00000  Uiso   1.00
C151   C     0.41362   0.76989   0.40668   0.00000  Uiso   1.00
C152   C     0.62143   0.83806   0.76820   0.00000  Uiso   1.00
C153   C     0.60802   0.88837   0.86647   0.00000  Uiso   1.00
C154   C     0.60683   0.88713   0.01634   0.00000  Uiso   1.00
C155   C     0.59366   0.93766   0.08646   0.00000  Uiso   1.00
C156   C     0.67168   0.85668   0.67364   0.00000  Uiso   1.00
C157   C     0.72401   0.82880   0.66138   0.00000  Uiso   1.00
C158   C     0.76442   0.85264   0.56916   0.00000  Uiso   1.00
C159   C     0.57001   0.83211   0.66720   0.00000  Uiso   1.00
C160   C     0.53686   0.78357   0.64949   0.00000  Uiso   1.00
C161   C     0.49169   0.78672   0.55181   0.00000  Uiso   1.00
H162   H     0.59115   0.96884   0.56619   0.00000  Uiso   1.00
H163   H     0.57436   0.02746   0.79955   0.00000  Uiso   1.00
H164   H     0.69151   0.96913   0.44463   0.00000  Uiso   1.00
H165   H     0.50439   0.92390   0.43275   0.00000  Uiso   1.00
H166   H     0.56085   0.07043   0.09229   0.00000  Uiso   1.00
H167   H     0.80786   0.94743   0.34388   0.00000  Uiso   1.00
H168   H     0.41330   0.85206   0.31882   0.00000  Uiso   1.00
H169   H     0.63043   0.79919   0.82823   0.00000  Uiso   1.00
H170   H     0.61578   0.84849   0.07599   0.00000  Uiso   1.00
H171   H     0.73293   0.79016   0.72106   0.00000  Uiso   1.00
H172   H     0.54582   0.74494   0.70918   0.00000  Uiso   1.00
H173   H     0.59448   0.92517   0.31665   0.00000  Uiso   1.00
H174   H     0.84149   0.80217   0.56824   0.00000  Uiso   1.00
H175   H     0.44692   0.70681   0.54318   0.00000  Uiso   1.00
O176   O     0.56734   0.03330   0.36272   0.00000  Uiso   1.00
O177   O     0.89140   0.87192   0.38082   0.00000  Uiso   1.00
O178   O     0.37375   0.74681   0.34795   0.00000  Uiso   1.00
N179   N     0.57076   0.02947   0.11109   0.00000  Uiso   1.00
N180   N     0.80171   0.91448   0.41139   0.00000  Uiso   1.00
N181   N     0.43283   0.82532   0.38793   0.00000  Uiso   1.00
N182   N     0.58886   0.95131   0.23182   0.00000  Uiso   1.00
N183   N     0.81980   0.83632   0.53212   0.00000  Uiso   1.00
N184   N     0.45092   0.74716   0.50866   0.00000  Uiso   1.00
C185   C     0.89985   0.42998   0.62623   0.00000  Uiso   1.00
C186   C     0.90354   0.43829   0.78936   0.00000  Uiso   1.00
C187   C     0.91671   0.48883   0.85927   0.00000  Uiso   1.00
C188   C     0.91791   0.48767   0.00921   0.00000  Uiso   1.00
C189   C     0.92536   0.50819   0.25078   0.00000  Uiso   1.00
C190   C     0.83988   0.40661   0.59653   0.00000  Uiso   1.00
C191   C     0.79954   0.43049   0.50430   0.00000  Uiso   1.00
C192   C     0.74716   0.40266   0.49191   0.00000  Uiso   1.00
C193   C     0.65580   0.37396   0.43403   0.00000  Uiso   1.00
C194   C     0.94155   0.38204   0.59009   0.00000  Uiso   1.00
C195   C     0.98668   0.38526   0.49240   0.00000  Uiso   1.00
C196   C     0.01989   0.33673   0.47456   0.00000  Uiso   1.00
C197   C     0.08638   0.26989   0.40668   0.00000  Uiso   1.00
C198   C     0.87857   0.33806   0.76820   0.00000  Uiso   1.00
C199   C     0.89198   0.38837   0.86647   0.00000  Uiso   1.00
C200   C     0.89317   0.38713   0.01634   0.00000  Uiso   1.00
C201   C     0.90634   0.43766   0.08646   0.00000  Uiso   1.00
C202   C     0.82832   0.35668   0.67364   0.00000  Uiso   1.00
C203   C     0.77599   0.32880   0.66138   0.00000  Uiso   1.00
C204   C     0.73558   0.35264   0.56916   0.00000  Uiso   1.00
C205   C     0.92999   0.33211   0.66720   0.00000  Uiso   1.00
C206   C     0.96314   0.28357   0.64949   0.00000  Uiso   1.00
C207   C     0.00831   0.28672   0.55181   0.00000  Uiso   1.00
H208   H     0.90885   0.46884   0.56619   0.00000  Uiso   1.00
H209   H     0.92564   0.52746   0.79955   0.00000  Uiso   1.00
H210   H     0.80849   0.46913   0.44463   0.00000  Uiso   1.00
H211   H     0.99561   0.42390   0.43275   0.00000  Uiso   1.00
H212   H     0.93915   0.57043   0.09229   0.00000  Uiso   1.00
H213   H     0.69214   0.44743   0.34388   0.00000  Uiso   1.00
H214   H     0.08670   0.35206   0.31882   0.00000  Uiso   1.00
H215   H     0.86957   0.29919   0.82823   0.00000  Uiso   1.00
H216   H     0.88422   0.34849   0.07599   0.00000  Uiso   1.00
H217   H     0.76707   0.29016   0.72106   0.00000  Uiso   1.00
H218   H     0.95418   0.24494   0.70918   0.00000  Uiso   1.00
H219   H     0.90552   0.42517   0.31665   0.00000  Uiso   1.00
H220   H     0.65851   0.30217   0.56824   0.00000  Uiso   1.00
H221   H     0.05308   0.20681   0.54318   0.00000  Uiso   1.00
O222   O     0.93266   0.53330   0.36272   0.00000  Uiso   1.00
O223   O     0.60860   0.37192   0.38082   0.00000  Uiso   1.00
O224   O     0.12625   0.24681   0.34795   0.00000  Uiso   1.00
N225   N     0.92924   0.52947   0.11109   0.00000  Uiso   1.00
N226   N     0.69829   0.41448   0.41139   0.00000  Uiso   1.00
N227   N     0.06717   0.32532   0.38793   0.00000  Uiso   1.00
N228   N     0.91114   0.45131   0.23182   0.00000  Uiso   1.00
N229   N     0.68020   0.33632   0.53212   0.00000  Uiso   1.00
N230   N     0.04908   0.24716   0.50866   0.00000  Uiso   1.00
C231   C     0.60015   0.57002   0.12623   0.00000  Uiso   1.00
C232   C     0.59646   0.56171   0.28936   0.00000  Uiso   1.00
C233   C     0.58329   0.51117   0.35927   0.00000  Uiso   1.00
C234   C     0.58209   0.51233   0.50921   0.00000  Uiso   1.00
C235   C     0.57464   0.49181   0.75078   0.00000  Uiso   1.00
C236   C     0.66012   0.59339   0.09653   0.00000  Uiso   1.00
C237   C     0.70046   0.56951   0.00430   0.00000  Uiso   1.00
C238   C     0.75284   0.59734   0.99191   0.00000  Uiso   1.00
C239   C     0.84420   0.62604   0.93403   0.00000  Uiso   1.00
C240   C     0.55845   0.61796   0.09009   0.00000  Uiso   1.00
C241   C     0.51332   0.61474   0.99240   0.00000  Uiso   1.00
C242   C     0.48011   0.66327   0.97456   0.00000  Uiso   1.00
C243   C     0.41362   0.73011   0.90668   0.00000  Uiso   1.00
C244   C     0.62143   0.66194   0.26820   0.00000  Uiso   1.00
C245   C     0.60802   0.61163   0.36647   0.00000  Uiso   1.00
C246   C     0.60683   0.61287   0.51634   0.00000  Uiso   1.00
C247   C     0.59366   0.56234   0.58646   0.00000  Uiso   1.00
C248   C     0.67168   0.64332   0.17364   0.00000  Uiso   1.00
C249   C     0.72401   0.67120   0.16138   0.00000  Uiso   1.00
C250   C     0.76442   0.64736   0.06916   0.00000  Uiso   1.00
C251   C     0.57001   0.66789   0.16720   0.00000  Uiso   1.00
C252   C     0.53686   0.71643   0.14949   0.00000  Uiso   1.00
C253   C     0.49169   0.71328   0.05181   0.00000  Uiso   1.00
H254   H     0.59115   0.53116   0.06619   0.00000  Uiso   1.00
H255   H     0.57436   0.47254   0.29955   0.00000  Uiso   1.00
H256   H     0.69151   0.53087   0.94463   0.00000  Uiso   1.00
H257   H     0.50439   0.57610   0.93275   0.00000  Uiso   1.00
H258   H     0.56085   0.42957   0.59229   0.00000  Uiso   1.00
H259   H     0.80786   0.55257   0.84388   0.00000  Uiso   1.00
H260   H     0.41330   0.64794   0.81882   0.00000  Uiso   1.00
H261   H     0.63043   0.70081   0.32823   0.00000  Uiso   1.00
H262   H     0.61578   0.65151   0.57599   0.00000  Uiso   1.00
H263   H     0.73293   0.70984   0.22106   0.00000  Uiso   1.00
H264   H     0.54582   0.75506   0.20918   0.00000  Uiso   1.00
H265   H     0.59448   0.57483   0.81665   0.00000  Uiso   1.00
H266   H     0.84149   0.69783   0.06824   0.00000  Uiso   1.00
H267   H     0.44692   0.79319   0.04318   0.00000  Uiso   1.00
O268   O     0.56734   0.46670   0.86272   0.00000  Uiso   1.00
O269   O     0.89140   0.62808   0.88082   0.00000  Uiso   1.00
O270   O     0.37375   0.75319   0.84795   0.00000  Uiso   1.00
N271   N     0.57076   0.47053   0.61109   0.00000  Uiso   1.00
N272   N     0.80171   0.58552   0.91139   0.00000  Uiso   1.00
N273   N     0.43283   0.67468   0.88793   0.00000  Uiso   1.00
N274   N     0.58886   0.54869   0.73182   0.00000  Uiso   1.00
N275   N     0.81980   0.66368   0.03212   0.00000  Uiso   1.00
N276   N     0.45092   0.75284   0.00866   0.00000  Uiso   1.00
C277   C     0.10015   0.92998   0.87377   0.00000  Uiso   1.00
C278   C     0.09646   0.93829   0.71064   0.00000  Uiso   1.00
C279   C     0.08329   0.98883   0.64073   0.00000  Uiso   1.00
C280   C     0.08209   0.98767   0.49079   0.00000  Uiso   1.00
C281   C     0.07464   0.00819   0.24922   0.00000  Uiso   1.00
C282   C     0.16012   0.90661   0.90347   0.00000  Uiso   1.00
C283   C     0.20046   0.93049   0.99570   0.00000  Uiso   1.00
C284   C     0.25284   0.90266   0.00809   0.00000  Uiso   1.00
C285   C     0.34420   0.87396   0.06597   0.00000  Uiso   1.00
C286   C     0.05845   0.88204   0.90991   0.00000  Uiso   1.00
C287   C     0.01332   0.88526   0.00760   0.00000  Uiso   1.00
C288   C     0.98011   0.83673   0.02544   0.00000  Uiso   1.00
C289   C     0.91362   0.76989   0.09332   0.00000  Uiso   1.00
C290   C     0.12143   0.83806   0.73180   0.00000  Uiso   1.00
C291   C     0.10802   0.88837   0.63353   0.00000  Uiso   1.00
C292   C     0.10683   0.88713   0.48366   0.00000  Uiso   1.00
C293   C     0.09366   0.93766   0.41354   0.00000  Uiso   1.00
C294   C     0.17168   0.85668   0.82636   0.00000  Uiso   1.00
C295   C     0.22401   0.82880   0.83862   0.00000  Uiso   1.00
C296   C     0.26442   0.85264   0.93084   0.00000  Uiso   1.00
C297   C     0.07001   0.83211   0.83280   0.00000  Uiso   1.00
C298   C     0.03686   0.78357   0.85051   0.00000  Uiso   1.00
C299   C     0.99169   0.78672   0.94819   0.00000  Uiso   1.00
H300   H     0.09115   0.96884   0.93381   0.00000  Uiso   1.00
H301   H     0.07436   0.02746   0.70045   0.00000  Uiso   1.00
H302   H     0.19151   0.96913   0.05537   0.00000  Uiso   1.00
H303   H     0.00439   0.92390   0.06725   0.00000  Uiso   1.00
H304   H     0.06085   0.07043   0.40771   0.00000  Uiso   1.00
H305   H     0.30786   0.94743   0.15612   0.00000  Uiso   1.00
H306   H     0.91330   0.85206   0.18118   0.00000  Uiso   1.00
H307   H     0.13043   0.79919   0.67177   0.00000  Uiso   1.00
H308   H     0.11578   0.84849   0.42401   0.00000  Uiso   1.00
H309   H     0.23293   0.79016   0.77894   0.00000  Uiso   1.00
H310   H     0.04582   0.74494   0.79082   0.00000  Uiso   1.00
H311   H     0.09448   0.92517   0.18335   0.00000  Uiso   1.00
H312   H     0.34149   0.80217   0.93176   0.00000  Uiso   1.00
H313   H     0.94692   0.70681   0.95682   0.00000  Uiso   1.00
O314   O     0.06734   0.03330   0.13728   0.00000  Uiso   1.00
O315   O     0.39140   0.87192   0.11918   0.00000  Uiso   1.00
O316   O     0.87375   0.74681   0.15205   0.00000  Uiso   1.00
N317   N     0.07076   0.02947   0.38891   0.00000  Uiso   1.00
N318   N     0.30171   0.91448   0.08861   0.00000  Uiso   1.00
N319   N     0.93283   0.82532   0.11207   0.00000  Uiso   1.00
N320   N     0.08886   0.95131   0.26818   0.00000  Uiso   1.00
N321   N     0.31980   0.83632   0.96788   0.00000  Uiso   1.00
N322   N     0.95092   0.74716   0.99134   0.00000  Uiso   1.00
C323   C     0.39985   0.07002   0.37377   0.00000  Uiso   1.00
C324   C     0.40354   0.06171   0.21064   0.00000  Uiso   1.00
C325   C     0.41671   0.01117   0.14073   0.00000  Uiso   1.00
C326   C     0.41791   0.01233   0.99079   0.00000  Uiso   1.00
C327   C     0.42536   0.99181   0.74922   0.00000  Uiso   1.00
C328   C     0.33988   0.09339   0.40347   0.00000  Uiso   1.00
C329   C     0.29954   0.06951   0.49570   0.00000  Uiso   1.00
C330   C     0.24716   0.09734   0.50809   0.00000  Uiso   1.00
C331   C     0.15580   0.12604   0.56597   0.00000  Uiso   1.00
C332   C     0.44155   0.11796   0.40991   0.00000  Uiso   1.00
C333   C     0.48668   0.11474   0.50760   0.00000  Uiso   1.00
C334   C     0.51989   0.16327   0.52544   0.00000  Uiso   1.00
C335   C     0.58638   0.23011   0.59332   0.00000  Uiso   1.00
C336   C     0.37857   0.16194   0.23180   0.00000  Uiso   1.00
C337   C     0.39198   0.11163   0.13353   0.00000  Uiso   1.00
C338   C     0.39317   0.11287   0.98366   0.00000  Uiso   1.00
C339   C     0.40634   0.06234   0.91354   0.00000  Uiso   1.00
C340   C     0.32832   0.14332   0.32636   0.00000  Uiso   1.00
C341   C     0.27599   0.17120   0.33862   0.00000  Uiso   1.00
C342   C     0.23558   0.14736   0.43084   0.00000  Uiso   1.00
C343   C     0.42999   0.16789   0.33280   0.00000  Uiso   1.00
C344   C     0.46314   0.21643   0.35051   0.00000  Uiso   1.00
C345   C     0.50831   0.21328   0.44819   0.00000  Uiso   1.00
H346   H     0.40885   0.03116   0.43381   0.00000  Uiso   1.00
H347   H     0.42564   0.97254   0.20045   0.00000  Uiso   1.00
H348   H     0.30849   0.03087   0.55537   0.00000  Uiso   1.00
H349   H     0.49561   0.07610   0.56725   0.00000  Uiso   1.00
H350   H     0.43915   0.92957   0.90771   0.00000  Uiso   1.00
H351   H     0.19214   0.05257   0.65612   0.00000  Uiso   1.00
H352   H     0.58670   0.14794   0.68118   0.00000  Uiso   1.00
H353   H     0.36957   0.20081   0.17177   0.00000  Uiso   1.00
H354   H     0.38422   0.15151   0.92401   0.00000  Uiso   1.00
H355   H     0.26707   0.20984   0.27894   0.00000  Uiso   1.00
H356   H     0.45418   0.25506   0.29082   0.00000  Uiso   1.00
H357   H     0.40552   0.07483   0.68335   0.00000  Uiso   1.00
H358   H     0.15851   0.19783   0.43176   0.00000  Uiso   1.00
H359   H     0.55308   0.29319   0.45682   0.00000  Uiso   1.00
O360   O     0.43266   0.96670   0.63728   0.00000  Uiso   1.00
O361   O     0.10860   0.12808   0.61918   0.00000  Uiso   1.00
O362   O     0.62625   0.25319   0.65205   0.00000  Uiso   1.00
N363   N     0.42924   0.97053   0.88891   0.00000  Uiso   1.00
N364   N     0.19829   0.08552   0.58861   0.00000  Uiso   1.00
N365   N     0.56717   0.17468   0.61207   0.00000  Uiso   1.00
N366   N     0.41114   0.04869   0.76818   0.00000  Uiso   1.00
N367   N     0.18020   0.16368   0.46788   0.00000  Uiso   1.00
N368   N     0.54908   0.25284   0.49134   0.00000  Uiso   1.00
