data_job_01792
_audit_creation_date              2018-12-19
_audit_creation_method            'Materials Studio'
_symmetry_space_group_name_H-M    'P1'
_symmetry_Int_Tables_number       1
_symmetry_cell_setting            triclinic
loop_
_symmetry_equiv_pos_as_xyz
  x,y,z
_cell_length_a                    11.7044
_cell_length_b                    30.8476
_cell_length_c                    9.1659
_cell_angle_alpha                 90.0000
_cell_angle_beta                  71.4326
_cell_angle_gamma                 90.0000
loop_
_atom_site_label
_atom_site_type_symbol
_atom_site_fract_x
_atom_site_fract_y
_atom_site_fract_z
_atom_site_U_iso_or_equiv
_atom_site_adp_type
_atom_site_occupancy
C1     C     0.63674   0.13046   0.87151   0.00000  Uiso   1.00
C2     C     0.68020   0.08563   0.90026   0.00000  Uiso   1.00
C3     C     0.64234   0.04651   0.85661   0.00000  Uiso   1.00
C4     C     0.69285   0.00904   0.89355   0.00000  Uiso   1.00
C5     C     0.74731   0.93919   0.92642   0.00000  Uiso   1.00
C6     C     0.58817   0.15201   0.02896   0.00000  Uiso   1.00
C7     C     0.47294   0.16871   0.09350   0.00000  Uiso   1.00
C8     C     0.44599   0.18712   0.23877   0.00000  Uiso   1.00
C9     C     0.35760   0.22035   0.47140   0.00000  Uiso   1.00
C10    C     0.74947   0.15580   0.78348   0.00000  Uiso   1.00
C11    C     0.76985   0.17570   0.64165   0.00000  Uiso   1.00
C12    C     0.87870   0.19731   0.58026   0.00000  Uiso   1.00
C13    C     0.04075   0.23643   0.43175   0.00000  Uiso   1.00
C14    C     0.79379   0.13349   0.01473   0.00000  Uiso   1.00
C15    C     0.76550   0.08728   0.97805   0.00000  Uiso   1.00
C16    C     0.81610   0.04986   0.01506   0.00000  Uiso   1.00
C17    C     0.77832   0.01069   0.97148   0.00000  Uiso   1.00
C18    C     0.67347   0.15366   0.10675   0.00000  Uiso   1.00
C19    C     0.64670   0.17206   0.25196   0.00000  Uiso   1.00
C20    C     0.53145   0.18877   0.31671   0.00000  Uiso   1.00
C21    C     0.83478   0.15745   0.86127   0.00000  Uiso   1.00
C22    C     0.94361   0.17905   0.80010   0.00000  Uiso   1.00
C23    C     0.96415   0.19896   0.65820   0.00000  Uiso   1.00
H24    H     0.57033   0.12918   0.81096   0.00000  Uiso   1.00
H25    H     0.57631   0.04525   0.79642   0.00000  Uiso   1.00
H26    H     0.40695   0.16743   0.03327   0.00000  Uiso   1.00
H27    H     0.70382   0.17442   0.58149   0.00000  Uiso   1.00
H28    H     0.62053   0.95292   0.81467   0.00000  Uiso   1.00
H29    H     0.26343   0.21056   0.31404   0.00000  Uiso   1.00
H30    H     0.88943   0.22529   0.36137   0.00000  Uiso   1.00
H31    H     0.86021   0.13477   0.07530   0.00000  Uiso   1.00
H32    H     0.88211   0.05115   0.07527   0.00000  Uiso   1.00
H33    H     0.71273   0.17333   0.31212   0.00000  Uiso   1.00
H34    H     0.00960   0.18031   0.86033   0.00000  Uiso   1.00
H35    H     0.86872   0.95771   0.04099   0.00000  Uiso   1.00
H36    H     0.51162   0.21535   0.54037   0.00000  Uiso   1.00
H37    H     0.13762   0.23008   0.58769   0.00000  Uiso   1.00
O38    O     0.75377   0.90021   0.92308   0.00000  Uiso   1.00
O39    O     0.28527   0.23822   0.57823   0.00000  Uiso   1.00
O40    O     0.10658   0.25755   0.32834   0.00000  Uiso   1.00
N41    N     0.67596   0.96553   0.86791   0.00000  Uiso   1.00
N42    N     0.34208   0.20640   0.33481   0.00000  Uiso   1.00
N43    N     0.92733   0.22018   0.44415   0.00000  Uiso   1.00
N44    N     0.80951   0.96810   0.98969   0.00000  Uiso   1.00
N45    N     0.47563   0.20897   0.45659   0.00000  Uiso   1.00
N46    N     0.06088   0.22276   0.56594   0.00000  Uiso   1.00
C47    C     0.17369   0.63350   0.01153   0.00000  Uiso   1.00
C48    C     0.20192   0.58729   0.04821   0.00000  Uiso   1.00
C49    C     0.15127   0.54988   0.01122   0.00000  Uiso   1.00
C50    C     0.18896   0.51070   0.05484   0.00000  Uiso   1.00
C51    C     0.21978   0.43920   0.10002   0.00000  Uiso   1.00
C52    C     0.13272   0.65746   0.16501   0.00000  Uiso   1.00
C53    C     0.02389   0.67906   0.22621   0.00000  Uiso   1.00
C54    C     0.00334   0.69895   0.36815   0.00000  Uiso   1.00
C55    C     0.92676   0.73641   0.59462   0.00000  Uiso   1.00
C56    C     0.29403   0.65366   0.91955   0.00000  Uiso   1.00
C57    C     0.32083   0.67208   0.77438   0.00000  Uiso   1.00
C58    C     0.43609   0.68879   0.70967   0.00000  Uiso   1.00
C59    C     0.60996   0.72036   0.55502   0.00000  Uiso   1.00
C60    C     0.33072   0.63044   0.15477   0.00000  Uiso   1.00
C61    C     0.28721   0.58562   0.12602   0.00000  Uiso   1.00
C62    C     0.32500   0.54649   0.16970   0.00000  Uiso   1.00
C63    C     0.27441   0.50903   0.13278   0.00000  Uiso   1.00
C64    C     0.21801   0.65579   0.24282   0.00000  Uiso   1.00
C65    C     0.19762   0.67566   0.38469   0.00000  Uiso   1.00
C66    C     0.08879   0.69728   0.44610   0.00000  Uiso   1.00
C67    C     0.37933   0.65200   0.99735   0.00000  Uiso   1.00
C68    C     0.49456   0.66869   0.93286   0.00000  Uiso   1.00
C69    C     0.52153   0.68713   0.78761   0.00000  Uiso   1.00
H70    H     0.10729   0.63480   0.95096   0.00000  Uiso   1.00
H71    H     0.08525   0.55119   0.95102   0.00000  Uiso   1.00
H72    H     0.95791   0.68034   0.16597   0.00000  Uiso   1.00
H73    H     0.25480   0.67337   0.71420   0.00000  Uiso   1.00
H74    H     0.09841   0.45775   0.98544   0.00000  Uiso   1.00
H75    H     0.82991   0.73009   0.43865   0.00000  Uiso   1.00
H76    H     0.45596   0.71539   0.48601   0.00000  Uiso   1.00
H77    H     0.39713   0.62914   0.21535   0.00000  Uiso   1.00
H78    H     0.39101   0.54521   0.22991   0.00000  Uiso   1.00
H79    H     0.26365   0.67437   0.44486   0.00000  Uiso   1.00
H80    H     0.56055   0.66739   0.99310   0.00000  Uiso   1.00
H81    H     0.34657   0.45290   0.21180   0.00000  Uiso   1.00
H82    H     0.07806   0.72525   0.66501   0.00000  Uiso   1.00
H83    H     0.70412   0.71054   0.71238   0.00000  Uiso   1.00
O84    O     0.21320   0.40021   0.10347   0.00000  Uiso   1.00
O85    O     0.86094   0.75753   0.69805   0.00000  Uiso   1.00
O86    O     0.68231   0.73823   0.44822   0.00000  Uiso   1.00
N87    N     0.15767   0.46812   0.03669   0.00000  Uiso   1.00
N88    N     0.90663   0.72275   0.46042   0.00000  Uiso   1.00
N89    N     0.49193   0.70901   0.56981   0.00000  Uiso   1.00
N90    N     0.29120   0.46551   0.15849   0.00000  Uiso   1.00
N91    N     0.04016   0.72014   0.58223   0.00000  Uiso   1.00
N92    N     0.62546   0.70640   0.69161   0.00000  Uiso   1.00
C93    C     0.63674   0.86954   0.37151   0.00000  Uiso   1.00
C94    C     0.68020   0.91437   0.40026   0.00000  Uiso   1.00
C95    C     0.64234   0.95349   0.35661   0.00000  Uiso   1.00
C96    C     0.69285   0.99096   0.39355   0.00000  Uiso   1.00
C97    C     0.74731   0.06081   0.42642   0.00000  Uiso   1.00
C98    C     0.58817   0.84799   0.52896   0.00000  Uiso   1.00
C99    C     0.47294   0.83129   0.59350   0.00000  Uiso   1.00
C100   C     0.44599   0.81288   0.73877   0.00000  Uiso   1.00
C101   C     0.35760   0.77965   0.97140   0.00000  Uiso   1.00
C102   C     0.74947   0.84420   0.28348   0.00000  Uiso   1.00
C103   C     0.76985   0.82430   0.14165   0.00000  Uiso   1.00
C104   C     0.87870   0.80269   0.08026   0.00000  Uiso   1.00
C105   C     0.04075   0.76357   0.93175   0.00000  Uiso   1.00
C106   C     0.79379   0.86651   0.51473   0.00000  Uiso   1.00
C107   C     0.76550   0.91272   0.47805   0.00000  Uiso   1.00
C108   C     0.81610   0.95014   0.51506   0.00000  Uiso   1.00
C109   C     0.77832   0.98931   0.47148   0.00000  Uiso   1.00
C110   C     0.67347   0.84634   0.60675   0.00000  Uiso   1.00
C111   C     0.64670   0.82794   0.75196   0.00000  Uiso   1.00
C112   C     0.53145   0.81123   0.81671   0.00000  Uiso   1.00
C113   C     0.83478   0.84255   0.36127   0.00000  Uiso   1.00
C114   C     0.94361   0.82095   0.30010   0.00000  Uiso   1.00
C115   C     0.96415   0.80104   0.15820   0.00000  Uiso   1.00
H116   H     0.57033   0.87082   0.31096   0.00000  Uiso   1.00
H117   H     0.57631   0.95475   0.29642   0.00000  Uiso   1.00
H118   H     0.40695   0.83257   0.53327   0.00000  Uiso   1.00
H119   H     0.70382   0.82558   0.08149   0.00000  Uiso   1.00
H120   H     0.62053   0.04708   0.31467   0.00000  Uiso   1.00
H121   H     0.26343   0.78944   0.81404   0.00000  Uiso   1.00
H122   H     0.88943   0.77471   0.86137   0.00000  Uiso   1.00
H123   H     0.86021   0.86523   0.57530   0.00000  Uiso   1.00
H124   H     0.88211   0.94885   0.57527   0.00000  Uiso   1.00
H125   H     0.71273   0.82667   0.81212   0.00000  Uiso   1.00
H126   H     0.00960   0.81969   0.36033   0.00000  Uiso   1.00
H127   H     0.86872   0.04229   0.54099   0.00000  Uiso   1.00
H128   H     0.51162   0.78465   0.04037   0.00000  Uiso   1.00
H129   H     0.13762   0.76992   0.08769   0.00000  Uiso   1.00
O130   O     0.75377   0.09979   0.42308   0.00000  Uiso   1.00
O131   O     0.28527   0.76178   0.07823   0.00000  Uiso   1.00
O132   O     0.10658   0.74245   0.82834   0.00000  Uiso   1.00
N133   N     0.67596   0.03447   0.36791   0.00000  Uiso   1.00
N134   N     0.34208   0.79360   0.83481   0.00000  Uiso   1.00
N135   N     0.92733   0.77982   0.94415   0.00000  Uiso   1.00
N136   N     0.80951   0.03190   0.48969   0.00000  Uiso   1.00
N137   N     0.47563   0.79103   0.95659   0.00000  Uiso   1.00
N138   N     0.06088   0.77724   0.06594   0.00000  Uiso   1.00
C139   C     0.17369   0.36650   0.51153   0.00000  Uiso   1.00
C140   C     0.20192   0.41271   0.54821   0.00000  Uiso   1.00
C141   C     0.15127   0.45012   0.51122   0.00000  Uiso   1.00
C142   C     0.18896   0.48930   0.55484   0.00000  Uiso   1.00
C143   C     0.21978   0.56080   0.60002   0.00000  Uiso   1.00
C144   C     0.13272   0.34254   0.66501   0.00000  Uiso   1.00
C145   C     0.02389   0.32094   0.72621   0.00000  Uiso   1.00
C146   C     0.00334   0.30105   0.86815   0.00000  Uiso   1.00
C147   C     0.92676   0.26359   0.09462   0.00000  Uiso   1.00
C148   C     0.29403   0.34634   0.41955   0.00000  Uiso   1.00
C149   C     0.32083   0.32792   0.27438   0.00000  Uiso   1.00
C150   C     0.43609   0.31121   0.20967   0.00000  Uiso   1.00
C151   C     0.60996   0.27964   0.05502   0.00000  Uiso   1.00
C152   C     0.33072   0.36956   0.65477   0.00000  Uiso   1.00
C153   C     0.28721   0.41438   0.62602   0.00000  Uiso   1.00
C154   C     0.32500   0.45351   0.66970   0.00000  Uiso   1.00
C155   C     0.27441   0.49097   0.63278   0.00000  Uiso   1.00
C156   C     0.21801   0.34421   0.74282   0.00000  Uiso   1.00
C157   C     0.19762   0.32434   0.88469   0.00000  Uiso   1.00
C158   C     0.08879   0.30272   0.94610   0.00000  Uiso   1.00
C159   C     0.37933   0.34800   0.49735   0.00000  Uiso   1.00
C160   C     0.49456   0.33131   0.43286   0.00000  Uiso   1.00
C161   C     0.52153   0.31287   0.28761   0.00000  Uiso   1.00
H162   H     0.10729   0.36520   0.45096   0.00000  Uiso   1.00
H163   H     0.08525   0.44881   0.45102   0.00000  Uiso   1.00
H164   H     0.95791   0.31966   0.66597   0.00000  Uiso   1.00
H165   H     0.25480   0.32663   0.21420   0.00000  Uiso   1.00
H166   H     0.09841   0.54225   0.48544   0.00000  Uiso   1.00
H167   H     0.82991   0.26991   0.93865   0.00000  Uiso   1.00
H168   H     0.45596   0.28461   0.98601   0.00000  Uiso   1.00
H169   H     0.39713   0.37086   0.71535   0.00000  Uiso   1.00
H170   H     0.39101   0.45479   0.72991   0.00000  Uiso   1.00
H171   H     0.26365   0.32563   0.94486   0.00000  Uiso   1.00
H172   H     0.56055   0.33261   0.49310   0.00000  Uiso   1.00
H173   H     0.34657   0.54710   0.71180   0.00000  Uiso   1.00
H174   H     0.07806   0.27475   0.16501   0.00000  Uiso   1.00
H175   H     0.70412   0.28946   0.21238   0.00000  Uiso   1.00
O176   O     0.21320   0.59979   0.60347   0.00000  Uiso   1.00
O177   O     0.86094   0.24247   0.19805   0.00000  Uiso   1.00
O178   O     0.68231   0.26177   0.94822   0.00000  Uiso   1.00
N179   N     0.15767   0.53188   0.53669   0.00000  Uiso   1.00
N180   N     0.90663   0.27725   0.96042   0.00000  Uiso   1.00
N181   N     0.49193   0.29099   0.06981   0.00000  Uiso   1.00
N182   N     0.29120   0.53449   0.65849   0.00000  Uiso   1.00
N183   N     0.04016   0.27986   0.08223   0.00000  Uiso   1.00
N184   N     0.62546   0.29360   0.19161   0.00000  Uiso   1.00
