data_job_04502
_audit_creation_date              2018-12-19
_audit_creation_method            'Materials Studio'
_symmetry_space_group_name_H-M    'P1'
_symmetry_Int_Tables_number       1
_symmetry_cell_setting            triclinic
loop_
_symmetry_equiv_pos_as_xyz
  x,y,z
_cell_length_a                    18.0292
_cell_length_b                    15.2369
_cell_length_c                    9.4200
_cell_angle_alpha                 90.0000
_cell_angle_beta                  113.5630
_cell_angle_gamma                 90.0000
loop_
_atom_site_label
_atom_site_type_symbol
_atom_site_fract_x
_atom_site_fract_y
_atom_site_fract_z
_atom_site_U_iso_or_equiv
_atom_site_adp_type
_atom_site_occupancy
C1     C     0.99160   0.77451   0.33601   0.00000  Uiso   1.00
C2     C     0.91104   0.82066   0.24877   0.00000  Uiso   1.00
C3     C     0.88680   0.85947   0.10391   0.00000  Uiso   1.00
C4     C     0.81081   0.89831   0.04386   0.00000  Uiso   1.00
C5     C     0.69328   0.96993   0.89589   0.00000  Uiso   1.00
C6     C     0.97062   0.68219   0.37048   0.00000  Uiso   1.00
C7     C     0.99650   0.60457   0.32796   0.00000  Uiso   1.00
C8     C     0.97067   0.52684   0.37039   0.00000  Uiso   1.00
C9     C     0.94570   0.38349   0.41147   0.00000  Uiso   1.00
C10    C     0.03020   0.82065   0.49222   0.00000  Uiso   1.00
C11    C     0.10618   0.85943   0.55210   0.00000  Uiso   1.00
C12    C     0.13053   0.89826   0.69705   0.00000  Uiso   1.00
C13    C     0.19806   0.96989   0.92716   0.00000  Uiso   1.00
C14    C     0.89975   0.77449   0.48697   0.00000  Uiso   1.00
C15    C     0.86114   0.82065   0.33077   0.00000  Uiso   1.00
C16    C     0.78517   0.85944   0.27093   0.00000  Uiso   1.00
C17    C     0.76083   0.89830   0.12600   0.00000  Uiso   1.00
C18    C     0.92073   0.68217   0.45247   0.00000  Uiso   1.00
C19    C     0.89487   0.60455   0.49498   0.00000  Uiso   1.00
C20    C     0.92069   0.52683   0.45253   0.00000  Uiso   1.00
C21    C     0.98031   0.82064   0.57422   0.00000  Uiso   1.00
C22    C     0.00455   0.85941   0.71911   0.00000  Uiso   1.00
C23    C     0.08055   0.89825   0.77919   0.00000  Uiso   1.00
H24    H     0.03045   0.77451   0.27218   0.00000  Uiso   1.00
H25    H     0.92543   0.85945   0.04049   0.00000  Uiso   1.00
H26    H     0.03511   0.60460   0.26452   0.00000  Uiso   1.00
H27    H     0.14477   0.85943   0.48862   0.00000  Uiso   1.00
H28    H     0.78698   0.95359   0.81975   0.00000  Uiso   1.00
H29    H     0.01828   0.41622   0.29219   0.00000  Uiso   1.00
H30    H     0.24952   0.95357   0.76474   0.00000  Uiso   1.00
H31    H     0.86090   0.77448   0.55081   0.00000  Uiso   1.00
H32    H     0.74657   0.85942   0.33440   0.00000  Uiso   1.00
H33    H     0.85626   0.60456   0.55843   0.00000  Uiso   1.00
H34    H     0.96592   0.85939   0.78253   0.00000  Uiso   1.00
H35    H     0.64181   0.95357   0.05830   0.00000  Uiso   1.00
H36    H     0.87312   0.41619   0.53074   0.00000  Uiso   1.00
H37    H     0.10436   0.95354   0.00328   0.00000  Uiso   1.00
O38    O     0.64224   0.00943   0.79162   0.00000  Uiso   1.00
O39    O     0.94570   0.30442   0.41146   0.00000  Uiso   1.00
O40    O     0.24909   0.00942   0.03142   0.00000  Uiso   1.00
N41    N     0.76851   0.94195   0.90561   0.00000  Uiso   1.00
N42    N     0.98475   0.43953   0.34728   0.00000  Uiso   1.00
N43    N     0.20096   0.94189   0.78909   0.00000  Uiso   1.00
N44    N     0.69040   0.94193   0.03397   0.00000  Uiso   1.00
N45    N     0.90664   0.43952   0.47564   0.00000  Uiso   1.00
N46    N     0.12284   0.94188   0.91745   0.00000  Uiso   1.00
C47    C     0.49160   0.27451   0.33601   0.00000  Uiso   1.00
C48    C     0.41104   0.32066   0.24877   0.00000  Uiso   1.00
C49    C     0.38680   0.35947   0.10391   0.00000  Uiso   1.00
C50    C     0.31081   0.39831   0.04386   0.00000  Uiso   1.00
C51    C     0.19328   0.46993   0.89589   0.00000  Uiso   1.00
C52    C     0.47062   0.18219   0.37048   0.00000  Uiso   1.00
C53    C     0.49650   0.10457   0.32796   0.00000  Uiso   1.00
C54    C     0.47067   0.02684   0.37039   0.00000  Uiso   1.00
C55    C     0.44570   0.88349   0.41147   0.00000  Uiso   1.00
C56    C     0.53020   0.32065   0.49222   0.00000  Uiso   1.00
C57    C     0.60618   0.35943   0.55210   0.00000  Uiso   1.00
C58    C     0.63053   0.39826   0.69705   0.00000  Uiso   1.00
C59    C     0.69806   0.46989   0.92716   0.00000  Uiso   1.00
C60    C     0.39975   0.27449   0.48697   0.00000  Uiso   1.00
C61    C     0.36114   0.32065   0.33077   0.00000  Uiso   1.00
C62    C     0.28517   0.35944   0.27093   0.00000  Uiso   1.00
C63    C     0.26083   0.39830   0.12600   0.00000  Uiso   1.00
C64    C     0.42073   0.18217   0.45247   0.00000  Uiso   1.00
C65    C     0.39487   0.10455   0.49498   0.00000  Uiso   1.00
C66    C     0.42069   0.02683   0.45253   0.00000  Uiso   1.00
C67    C     0.48031   0.32064   0.57422   0.00000  Uiso   1.00
C68    C     0.50455   0.35941   0.71911   0.00000  Uiso   1.00
C69    C     0.58055   0.39825   0.77919   0.00000  Uiso   1.00
H70    H     0.53045   0.27451   0.27218   0.00000  Uiso   1.00
H71    H     0.42543   0.35945   0.04049   0.00000  Uiso   1.00
H72    H     0.53511   0.10460   0.26452   0.00000  Uiso   1.00
H73    H     0.64477   0.35943   0.48862   0.00000  Uiso   1.00
H74    H     0.28698   0.45359   0.81975   0.00000  Uiso   1.00
H75    H     0.51828   0.91622   0.29219   0.00000  Uiso   1.00
H76    H     0.74952   0.45357   0.76474   0.00000  Uiso   1.00
H77    H     0.36090   0.27448   0.55081   0.00000  Uiso   1.00
H78    H     0.24657   0.35942   0.33440   0.00000  Uiso   1.00
H79    H     0.35626   0.10456   0.55843   0.00000  Uiso   1.00
H80    H     0.46592   0.35939   0.78253   0.00000  Uiso   1.00
H81    H     0.14181   0.45357   0.05830   0.00000  Uiso   1.00
H82    H     0.37312   0.91619   0.53074   0.00000  Uiso   1.00
H83    H     0.60436   0.45354   0.00328   0.00000  Uiso   1.00
O84    O     0.14224   0.50943   0.79162   0.00000  Uiso   1.00
O85    O     0.44570   0.80442   0.41146   0.00000  Uiso   1.00
O86    O     0.74909   0.50942   0.03142   0.00000  Uiso   1.00
N87    N     0.26851   0.44195   0.90561   0.00000  Uiso   1.00
N88    N     0.48475   0.93953   0.34728   0.00000  Uiso   1.00
N89    N     0.70096   0.44189   0.78909   0.00000  Uiso   1.00
N90    N     0.19040   0.44193   0.03397   0.00000  Uiso   1.00
N91    N     0.40664   0.93952   0.47564   0.00000  Uiso   1.00
N92    N     0.62284   0.44188   0.91745   0.00000  Uiso   1.00
C93    C     0.99160   0.22549   0.83601   0.00000  Uiso   1.00
C94    C     0.91104   0.17934   0.74877   0.00000  Uiso   1.00
C95    C     0.88680   0.14053   0.60391   0.00000  Uiso   1.00
C96    C     0.81081   0.10169   0.54386   0.00000  Uiso   1.00
C97    C     0.69328   0.03007   0.39589   0.00000  Uiso   1.00
C98    C     0.97062   0.31781   0.87048   0.00000  Uiso   1.00
C99    C     0.99650   0.39543   0.82796   0.00000  Uiso   1.00
C100   C     0.97067   0.47316   0.87039   0.00000  Uiso   1.00
C101   C     0.94570   0.61651   0.91147   0.00000  Uiso   1.00
C102   C     0.03020   0.17935   0.99222   0.00000  Uiso   1.00
C103   C     0.10618   0.14057   0.05210   0.00000  Uiso   1.00
C104   C     0.13053   0.10174   0.19705   0.00000  Uiso   1.00
C105   C     0.19806   0.03011   0.42716   0.00000  Uiso   1.00
C106   C     0.89975   0.22551   0.98697   0.00000  Uiso   1.00
C107   C     0.86114   0.17935   0.83077   0.00000  Uiso   1.00
C108   C     0.78517   0.14056   0.77093   0.00000  Uiso   1.00
C109   C     0.76083   0.10170   0.62600   0.00000  Uiso   1.00
C110   C     0.92073   0.31783   0.95247   0.00000  Uiso   1.00
C111   C     0.89487   0.39545   0.99498   0.00000  Uiso   1.00
C112   C     0.92069   0.47317   0.95253   0.00000  Uiso   1.00
C113   C     0.98031   0.17936   0.07422   0.00000  Uiso   1.00
C114   C     0.00455   0.14059   0.21911   0.00000  Uiso   1.00
C115   C     0.08055   0.10175   0.27919   0.00000  Uiso   1.00
H116   H     0.03045   0.22549   0.77218   0.00000  Uiso   1.00
H117   H     0.92543   0.14055   0.54049   0.00000  Uiso   1.00
H118   H     0.03511   0.39540   0.76452   0.00000  Uiso   1.00
H119   H     0.14477   0.14057   0.98862   0.00000  Uiso   1.00
H120   H     0.78698   0.04641   0.31975   0.00000  Uiso   1.00
H121   H     0.01828   0.58378   0.79219   0.00000  Uiso   1.00
H122   H     0.24952   0.04643   0.26474   0.00000  Uiso   1.00
H123   H     0.86090   0.22552   0.05081   0.00000  Uiso   1.00
H124   H     0.74657   0.14058   0.83440   0.00000  Uiso   1.00
H125   H     0.85626   0.39544   0.05843   0.00000  Uiso   1.00
H126   H     0.96592   0.14061   0.28253   0.00000  Uiso   1.00
H127   H     0.64181   0.04643   0.55830   0.00000  Uiso   1.00
H128   H     0.87312   0.58381   0.03074   0.00000  Uiso   1.00
H129   H     0.10436   0.04646   0.50328   0.00000  Uiso   1.00
O130   O     0.64224   0.99057   0.29162   0.00000  Uiso   1.00
O131   O     0.94570   0.69558   0.91146   0.00000  Uiso   1.00
O132   O     0.24909   0.99058   0.53142   0.00000  Uiso   1.00
N133   N     0.76851   0.05805   0.40561   0.00000  Uiso   1.00
N134   N     0.98475   0.56047   0.84728   0.00000  Uiso   1.00
N135   N     0.20096   0.05811   0.28909   0.00000  Uiso   1.00
N136   N     0.69040   0.05807   0.53397   0.00000  Uiso   1.00
N137   N     0.90664   0.56048   0.97564   0.00000  Uiso   1.00
N138   N     0.12284   0.05812   0.41745   0.00000  Uiso   1.00
C139   C     0.49160   0.72549   0.83601   0.00000  Uiso   1.00
C140   C     0.41104   0.67934   0.74877   0.00000  Uiso   1.00
C141   C     0.38680   0.64053   0.60391   0.00000  Uiso   1.00
C142   C     0.31081   0.60169   0.54386   0.00000  Uiso   1.00
C143   C     0.19328   0.53007   0.39589   0.00000  Uiso   1.00
C144   C     0.47062   0.81781   0.87048   0.00000  Uiso   1.00
C145   C     0.49650   0.89543   0.82796   0.00000  Uiso   1.00
C146   C     0.47067   0.97316   0.87039   0.00000  Uiso   1.00
C147   C     0.44570   0.11651   0.91147   0.00000  Uiso   1.00
C148   C     0.53020   0.67935   0.99222   0.00000  Uiso   1.00
C149   C     0.60618   0.64057   0.05210   0.00000  Uiso   1.00
C150   C     0.63053   0.60174   0.19705   0.00000  Uiso   1.00
C151   C     0.69806   0.53011   0.42716   0.00000  Uiso   1.00
C152   C     0.39975   0.72551   0.98697   0.00000  Uiso   1.00
C153   C     0.36114   0.67935   0.83077   0.00000  Uiso   1.00
C154   C     0.28517   0.64056   0.77093   0.00000  Uiso   1.00
C155   C     0.26083   0.60170   0.62600   0.00000  Uiso   1.00
C156   C     0.42073   0.81783   0.95247   0.00000  Uiso   1.00
C157   C     0.39487   0.89545   0.99498   0.00000  Uiso   1.00
C158   C     0.42069   0.97317   0.95253   0.00000  Uiso   1.00
C159   C     0.48031   0.67936   0.07422   0.00000  Uiso   1.00
C160   C     0.50455   0.64059   0.21911   0.00000  Uiso   1.00
C161   C     0.58055   0.60175   0.27919   0.00000  Uiso   1.00
H162   H     0.53045   0.72549   0.77218   0.00000  Uiso   1.00
H163   H     0.42543   0.64055   0.54049   0.00000  Uiso   1.00
H164   H     0.53511   0.89540   0.76452   0.00000  Uiso   1.00
H165   H     0.64477   0.64057   0.98862   0.00000  Uiso   1.00
H166   H     0.28698   0.54641   0.31975   0.00000  Uiso   1.00
H167   H     0.51828   0.08378   0.79219   0.00000  Uiso   1.00
H168   H     0.74952   0.54643   0.26474   0.00000  Uiso   1.00
H169   H     0.36090   0.72552   0.05081   0.00000  Uiso   1.00
H170   H     0.24657   0.64058   0.83440   0.00000  Uiso   1.00
H171   H     0.35626   0.89544   0.05843   0.00000  Uiso   1.00
H172   H     0.46592   0.64061   0.28253   0.00000  Uiso   1.00
H173   H     0.14181   0.54643   0.55830   0.00000  Uiso   1.00
H174   H     0.37312   0.08381   0.03074   0.00000  Uiso   1.00
H175   H     0.60436   0.54646   0.50328   0.00000  Uiso   1.00
O176   O     0.14224   0.49057   0.29162   0.00000  Uiso   1.00
O177   O     0.44570   0.19558   0.91146   0.00000  Uiso   1.00
O178   O     0.74909   0.49058   0.53142   0.00000  Uiso   1.00
N179   N     0.26851   0.55805   0.40561   0.00000  Uiso   1.00
N180   N     0.48475   0.06047   0.84728   0.00000  Uiso   1.00
N181   N     0.70096   0.55811   0.28909   0.00000  Uiso   1.00
N182   N     0.19040   0.55807   0.53397   0.00000  Uiso   1.00
N183   N     0.40664   0.06048   0.97564   0.00000  Uiso   1.00
N184   N     0.62284   0.55812   0.41745   0.00000  Uiso   1.00
