data_job_00903
_audit_creation_date              2018-12-19
_audit_creation_method            'Materials Studio'
_symmetry_space_group_name_H-M    'P1'
_symmetry_Int_Tables_number       1
_symmetry_cell_setting            triclinic
loop_
_symmetry_equiv_pos_as_xyz
  x,y,z
_cell_length_a                    16.4567
_cell_length_b                    21.6386
_cell_length_c                    12.7947
_cell_angle_alpha                 90.0000
_cell_angle_beta                  109.9390
_cell_angle_gamma                 90.0000
loop_
_atom_site_label
_atom_site_type_symbol
_atom_site_fract_x
_atom_site_fract_y
_atom_site_fract_z
_atom_site_U_iso_or_equiv
_atom_site_adp_type
_atom_site_occupancy
C1     C     0.01832   0.19796   0.75484   0.00000  Uiso   1.00
C2     C     0.09952   0.23600   0.81113   0.00000  Uiso   1.00
C3     C     0.10610   0.29977   0.80575   0.00000  Uiso   1.00
C4     C     0.18603   0.32584   0.86300   0.00000  Uiso   1.00
C5     C     0.30135   0.39045   0.94117   0.00000  Uiso   1.00
C6     C     0.04307   0.15071   0.68248   0.00000  Uiso   1.00
C7     C     0.00219   0.14277   0.56893   0.00000  Uiso   1.00
C8     C     0.03459   0.09704   0.51789   0.00000  Uiso   1.00
C9     C     0.06224   0.02921   0.39634   0.00000  Uiso   1.00
C10    C     0.00162   0.16117   0.84714   0.00000  Uiso   1.00
C11    C     0.92588   0.16201   0.87203   0.00000  Uiso   1.00
C12    C     0.92338   0.12506   0.95961   0.00000  Uiso   1.00
C13    C     0.88668   0.07347   0.09372   0.00000  Uiso   1.00
C14    C     0.14855   0.13085   0.86609   0.00000  Uiso   1.00
C15    C     0.17025   0.19955   0.87156   0.00000  Uiso   1.00
C16    C     0.25019   0.22552   0.92884   0.00000  Uiso   1.00
C17    C     0.25689   0.28932   0.92354   0.00000  Uiso   1.00
C18    C     0.11380   0.11426   0.74290   0.00000  Uiso   1.00
C19    C     0.14627   0.06852   0.69202   0.00000  Uiso   1.00
C20    C     0.10545   0.06052   0.57843   0.00000  Uiso   1.00
C21    C     0.07236   0.12472   0.90757   0.00000  Uiso   1.00
C22    C     0.06997   0.08776   0.99512   0.00000  Uiso   1.00
C23    C     0.99424   0.08854   0.02014   0.00000  Uiso   1.00
H24    H     0.96325   0.22634   0.70779   0.00000  Uiso   1.00
H25    H     0.05135   0.32797   0.75896   0.00000  Uiso   1.00
H26    H     0.94744   0.17099   0.52219   0.00000  Uiso   1.00
H27    H     0.87116   0.19022   0.82525   0.00000  Uiso   1.00
H28    H     0.18022   0.42457   0.84232   0.00000  Uiso   1.00
H29    H     0.96112   0.09355   0.34308   0.00000  Uiso   1.00
H30    H     0.80025   0.13411   0.98212   0.00000  Uiso   1.00
H31    H     0.20362   0.10246   0.91314   0.00000  Uiso   1.00
H32    H     0.30491   0.19730   0.97559   0.00000  Uiso   1.00
H33    H     0.20101   0.04032   0.73881   0.00000  Uiso   1.00
H34    H     0.12472   0.05956   0.04187   0.00000  Uiso   1.00
H35    H     0.38603   0.31851   0.01814   0.00000  Uiso   1.00
H36    H     0.16692   0.98749   0.51889   0.00000  Uiso   1.00
H37    H     0.00605   0.02806   0.15794   0.00000  Uiso   1.00
O38    O     0.34543   0.43616   0.96758   0.00000  Uiso   1.00
O39    O     0.05796   0.00187   0.31259   0.00000  Uiso   1.00
O40    O     0.84690   0.05509   0.15101   0.00000  Uiso   1.00
N41    N     0.21475   0.38660   0.87515   0.00000  Uiso   1.00
N42    N     0.00991   0.07712   0.40838   0.00000  Uiso   1.00
N43    N     0.85950   0.11503   0.00581   0.00000  Uiso   1.00
N44    N     0.32550   0.32953   0.96976   0.00000  Uiso   1.00
N45    N     0.12065   0.02005   0.50299   0.00000  Uiso   1.00
N46    N     0.97024   0.05796   0.10042   0.00000  Uiso   1.00
C47    C     0.40798   0.71647   0.61846   0.00000  Uiso   1.00
C48    C     0.49023   0.75369   0.67331   0.00000  Uiso   1.00
C49    C     0.49802   0.81737   0.66793   0.00000  Uiso   1.00
C50    C     0.57877   0.84263   0.72375   0.00000  Uiso   1.00
C51    C     0.69579   0.90607   0.79989   0.00000  Uiso   1.00
C52    C     0.43058   0.66881   0.54495   0.00000  Uiso   1.00
C53    C     0.38820   0.66111   0.43164   0.00000  Uiso   1.00
C54    C     0.41873   0.61491   0.37941   0.00000  Uiso   1.00
C55    C     0.44310   0.54653   0.25628   0.00000  Uiso   1.00
C56    C     0.39193   0.68006   0.71159   0.00000  Uiso   1.00
C57    C     0.31705   0.68182   0.73840   0.00000  Uiso   1.00
C58    C     0.31503   0.64508   0.82645   0.00000  Uiso   1.00
C59    C     0.27939   0.59418   0.96207   0.00000  Uiso   1.00
C60    C     0.53756   0.64810   0.72715   0.00000  Uiso   1.00
C61    C     0.56061   0.71655   0.73235   0.00000  Uiso   1.00
C62    C     0.64138   0.74172   0.78819   0.00000  Uiso   1.00
C63    C     0.64928   0.80543   0.78290   0.00000  Uiso   1.00
C64    C     0.50096   0.63167   0.60398   0.00000  Uiso   1.00
C65    C     0.53156   0.58546   0.55190   0.00000  Uiso   1.00
C66    C     0.48924   0.57770   0.43855   0.00000  Uiso   1.00
C67    C     0.46231   0.64292   0.77064   0.00000  Uiso   1.00
C68    C     0.46041   0.60617   0.85866   0.00000  Uiso   1.00
C69    C     0.38554   0.60787   0.88559   0.00000  Uiso   1.00
H70    H     0.35319   0.74539   0.57249   0.00000  Uiso   1.00
H71    H     0.44354   0.84610   0.62222   0.00000  Uiso   1.00
H72    H     0.33373   0.68986   0.38598   0.00000  Uiso   1.00
H73    H     0.26260   0.71057   0.69269   0.00000  Uiso   1.00
H74    H     0.57475   0.94137   0.70337   0.00000  Uiso   1.00
H75    H     0.34320   0.61192   0.20524   0.00000  Uiso   1.00
H76    H     0.19319   0.65558   0.85199   0.00000  Uiso   1.00
H77    H     0.59235   0.61918   0.77312   0.00000  Uiso   1.00
H78    H     0.69583   0.71297   0.83387   0.00000  Uiso   1.00
H79    H     0.58602   0.55673   0.59762   0.00000  Uiso   1.00
H80    H     0.51488   0.57744   0.90433   0.00000  Uiso   1.00
H81    H     0.77952   0.83332   0.87515   0.00000  Uiso   1.00
H82    H     0.54796   0.50386   0.37701   0.00000  Uiso   1.00
H83    H     0.39796   0.54753   0.02377   0.00000  Uiso   1.00
O84    O     0.74090   0.95132   0.82557   0.00000  Uiso   1.00
O85    O     0.43710   0.51908   0.17205   0.00000  Uiso   1.00
O86    O     0.24029   0.57637   0.02058   0.00000  Uiso   1.00
N87    N     0.60874   0.90307   0.73548   0.00000  Uiso   1.00
N88    N     0.39226   0.59506   0.26975   0.00000  Uiso   1.00
N89    N     0.25201   0.63587   0.87439   0.00000  Uiso   1.00
N90    N     0.71893   0.84493   0.82791   0.00000  Uiso   1.00
N91    N     0.50244   0.53692   0.36218   0.00000  Uiso   1.00
N92    N     0.36219   0.57773   0.96683   0.00000  Uiso   1.00
C93    C     0.98168   0.69796   0.74516   0.00000  Uiso   1.00
C94    C     0.90048   0.73600   0.68887   0.00000  Uiso   1.00
C95    C     0.89390   0.79977   0.69425   0.00000  Uiso   1.00
C96    C     0.81397   0.82584   0.63700   0.00000  Uiso   1.00
C97    C     0.69865   0.89045   0.55883   0.00000  Uiso   1.00
C98    C     0.95693   0.65071   0.81752   0.00000  Uiso   1.00
C99    C     0.99781   0.64277   0.93107   0.00000  Uiso   1.00
C100   C     0.96541   0.59704   0.98211   0.00000  Uiso   1.00
C101   C     0.93776   0.52921   0.10366   0.00000  Uiso   1.00
C102   C     0.99838   0.66117   0.65286   0.00000  Uiso   1.00
C103   C     0.07412   0.66201   0.62797   0.00000  Uiso   1.00
C104   C     0.07662   0.62506   0.54039   0.00000  Uiso   1.00
C105   C     0.11332   0.57347   0.40628   0.00000  Uiso   1.00
C106   C     0.85145   0.63085   0.63391   0.00000  Uiso   1.00
C107   C     0.82975   0.69955   0.62844   0.00000  Uiso   1.00
C108   C     0.74981   0.72552   0.57116   0.00000  Uiso   1.00
C109   C     0.74311   0.78932   0.57646   0.00000  Uiso   1.00
C110   C     0.88620   0.61426   0.75710   0.00000  Uiso   1.00
C111   C     0.85373   0.56852   0.80798   0.00000  Uiso   1.00
C112   C     0.89455   0.56052   0.92157   0.00000  Uiso   1.00
C113   C     0.92764   0.62472   0.59243   0.00000  Uiso   1.00
C114   C     0.93003   0.58776   0.50488   0.00000  Uiso   1.00
C115   C     0.00576   0.58854   0.47986   0.00000  Uiso   1.00
H116   H     0.03675   0.72634   0.79221   0.00000  Uiso   1.00
H117   H     0.94865   0.82797   0.74104   0.00000  Uiso   1.00
H118   H     0.05256   0.67099   0.97781   0.00000  Uiso   1.00
H119   H     0.12884   0.69022   0.67475   0.00000  Uiso   1.00
H120   H     0.81978   0.92457   0.65768   0.00000  Uiso   1.00
H121   H     0.03888   0.59355   0.15692   0.00000  Uiso   1.00
H122   H     0.19975   0.63411   0.51788   0.00000  Uiso   1.00
H123   H     0.79638   0.60246   0.58686   0.00000  Uiso   1.00
H124   H     0.69509   0.69730   0.52441   0.00000  Uiso   1.00
H125   H     0.79899   0.54032   0.76119   0.00000  Uiso   1.00
H126   H     0.87528   0.55956   0.45813   0.00000  Uiso   1.00
H127   H     0.61397   0.81851   0.48186   0.00000  Uiso   1.00
H128   H     0.83308   0.48749   0.98111   0.00000  Uiso   1.00
H129   H     0.99395   0.52806   0.34206   0.00000  Uiso   1.00
O130   O     0.65457   0.93616   0.53242   0.00000  Uiso   1.00
O131   O     0.94204   0.50187   0.18741   0.00000  Uiso   1.00
O132   O     0.15310   0.55509   0.34899   0.00000  Uiso   1.00
N133   N     0.78525   0.88660   0.62485   0.00000  Uiso   1.00
N134   N     0.99009   0.57712   0.09162   0.00000  Uiso   1.00
N135   N     0.14050   0.61503   0.49419   0.00000  Uiso   1.00
N136   N     0.67450   0.82953   0.53024   0.00000  Uiso   1.00
N137   N     0.87935   0.52005   0.99701   0.00000  Uiso   1.00
N138   N     0.02976   0.55796   0.39958   0.00000  Uiso   1.00
C139   C     0.59202   0.21647   0.88154   0.00000  Uiso   1.00
C140   C     0.50977   0.25369   0.82669   0.00000  Uiso   1.00
C141   C     0.50198   0.31737   0.83207   0.00000  Uiso   1.00
C142   C     0.42123   0.34263   0.77625   0.00000  Uiso   1.00
C143   C     0.30421   0.40607   0.70011   0.00000  Uiso   1.00
C144   C     0.56942   0.16881   0.95505   0.00000  Uiso   1.00
C145   C     0.61180   0.16111   0.06836   0.00000  Uiso   1.00
C146   C     0.58127   0.11491   0.12059   0.00000  Uiso   1.00
C147   C     0.55690   0.04653   0.24372   0.00000  Uiso   1.00
C148   C     0.60807   0.18006   0.78841   0.00000  Uiso   1.00
C149   C     0.68295   0.18182   0.76160   0.00000  Uiso   1.00
C150   C     0.68497   0.14508   0.67355   0.00000  Uiso   1.00
C151   C     0.72061   0.09418   0.53793   0.00000  Uiso   1.00
C152   C     0.46244   0.14810   0.77285   0.00000  Uiso   1.00
C153   C     0.43939   0.21655   0.76765   0.00000  Uiso   1.00
C154   C     0.35862   0.24172   0.71181   0.00000  Uiso   1.00
C155   C     0.35072   0.30543   0.71710   0.00000  Uiso   1.00
C156   C     0.49904   0.13167   0.89602   0.00000  Uiso   1.00
C157   C     0.46844   0.08546   0.94810   0.00000  Uiso   1.00
C158   C     0.51076   0.07770   0.06145   0.00000  Uiso   1.00
C159   C     0.53769   0.14292   0.72936   0.00000  Uiso   1.00
C160   C     0.53959   0.10617   0.64134   0.00000  Uiso   1.00
C161   C     0.61446   0.10787   0.61441   0.00000  Uiso   1.00
H162   H     0.64681   0.24539   0.92751   0.00000  Uiso   1.00
H163   H     0.55646   0.34610   0.87778   0.00000  Uiso   1.00
H164   H     0.66627   0.18986   0.11402   0.00000  Uiso   1.00
H165   H     0.73740   0.21057   0.80731   0.00000  Uiso   1.00
H166   H     0.42525   0.44137   0.79663   0.00000  Uiso   1.00
H167   H     0.65680   0.11192   0.29476   0.00000  Uiso   1.00
H168   H     0.80681   0.15558   0.64801   0.00000  Uiso   1.00
H169   H     0.40765   0.11918   0.72688   0.00000  Uiso   1.00
H170   H     0.30417   0.21297   0.66613   0.00000  Uiso   1.00
H171   H     0.41398   0.05673   0.90238   0.00000  Uiso   1.00
H172   H     0.48512   0.07744   0.59567   0.00000  Uiso   1.00
H173   H     0.22048   0.33332   0.62485   0.00000  Uiso   1.00
H174   H     0.45204   0.00386   0.12299   0.00000  Uiso   1.00
H175   H     0.60204   0.04753   0.47623   0.00000  Uiso   1.00
O176   O     0.25910   0.45132   0.67443   0.00000  Uiso   1.00
O177   O     0.56290   0.01908   0.32795   0.00000  Uiso   1.00
O178   O     0.75971   0.07637   0.47942   0.00000  Uiso   1.00
N179   N     0.39126   0.40307   0.76452   0.00000  Uiso   1.00
N180   N     0.60774   0.09506   0.23025   0.00000  Uiso   1.00
N181   N     0.74799   0.13587   0.62561   0.00000  Uiso   1.00
N182   N     0.28107   0.34493   0.67209   0.00000  Uiso   1.00
N183   N     0.49756   0.03692   0.13782   0.00000  Uiso   1.00
N184   N     0.63781   0.07773   0.53317   0.00000  Uiso   1.00
C185   C     0.98168   0.80204   0.24516   0.00000  Uiso   1.00
C186   C     0.90048   0.76400   0.18887   0.00000  Uiso   1.00
C187   C     0.89390   0.70023   0.19425   0.00000  Uiso   1.00
C188   C     0.81397   0.67416   0.13700   0.00000  Uiso   1.00
C189   C     0.69865   0.60955   0.05883   0.00000  Uiso   1.00
C190   C     0.95693   0.84929   0.31752   0.00000  Uiso   1.00
C191   C     0.99781   0.85723   0.43107   0.00000  Uiso   1.00
C192   C     0.96541   0.90296   0.48211   0.00000  Uiso   1.00
C193   C     0.93776   0.97079   0.60366   0.00000  Uiso   1.00
C194   C     0.99838   0.83883   0.15286   0.00000  Uiso   1.00
C195   C     0.07412   0.83799   0.12797   0.00000  Uiso   1.00
C196   C     0.07662   0.87494   0.04039   0.00000  Uiso   1.00
C197   C     0.11332   0.92653   0.90628   0.00000  Uiso   1.00
C198   C     0.85145   0.86915   0.13391   0.00000  Uiso   1.00
C199   C     0.82975   0.80045   0.12844   0.00000  Uiso   1.00
C200   C     0.74981   0.77448   0.07116   0.00000  Uiso   1.00
C201   C     0.74311   0.71068   0.07646   0.00000  Uiso   1.00
C202   C     0.88620   0.88574   0.25710   0.00000  Uiso   1.00
C203   C     0.85373   0.93148   0.30798   0.00000  Uiso   1.00
C204   C     0.89455   0.93948   0.42157   0.00000  Uiso   1.00
C205   C     0.92764   0.87528   0.09243   0.00000  Uiso   1.00
C206   C     0.93003   0.91224   0.00488   0.00000  Uiso   1.00
C207   C     0.00576   0.91146   0.97986   0.00000  Uiso   1.00
H208   H     0.03675   0.77366   0.29221   0.00000  Uiso   1.00
H209   H     0.94865   0.67203   0.24104   0.00000  Uiso   1.00
H210   H     0.05256   0.82901   0.47781   0.00000  Uiso   1.00
H211   H     0.12884   0.80978   0.17475   0.00000  Uiso   1.00
H212   H     0.81978   0.57543   0.15768   0.00000  Uiso   1.00
H213   H     0.03888   0.90645   0.65692   0.00000  Uiso   1.00
H214   H     0.19975   0.86589   0.01788   0.00000  Uiso   1.00
H215   H     0.79638   0.89754   0.08686   0.00000  Uiso   1.00
H216   H     0.69509   0.80270   0.02441   0.00000  Uiso   1.00
H217   H     0.79899   0.95968   0.26119   0.00000  Uiso   1.00
H218   H     0.87528   0.94044   0.95813   0.00000  Uiso   1.00
H219   H     0.61397   0.68149   0.98186   0.00000  Uiso   1.00
H220   H     0.83308   0.01251   0.48111   0.00000  Uiso   1.00
H221   H     0.99395   0.97194   0.84206   0.00000  Uiso   1.00
O222   O     0.65457   0.56384   0.03242   0.00000  Uiso   1.00
O223   O     0.94204   0.99813   0.68741   0.00000  Uiso   1.00
O224   O     0.15310   0.94491   0.84899   0.00000  Uiso   1.00
N225   N     0.78525   0.61340   0.12485   0.00000  Uiso   1.00
N226   N     0.99009   0.92288   0.59162   0.00000  Uiso   1.00
N227   N     0.14050   0.88497   0.99419   0.00000  Uiso   1.00
N228   N     0.67450   0.67047   0.03024   0.00000  Uiso   1.00
N229   N     0.87935   0.97995   0.49701   0.00000  Uiso   1.00
N230   N     0.02976   0.94204   0.89958   0.00000  Uiso   1.00
C231   C     0.59202   0.28353   0.38154   0.00000  Uiso   1.00
C232   C     0.50977   0.24631   0.32669   0.00000  Uiso   1.00
C233   C     0.50198   0.18263   0.33207   0.00000  Uiso   1.00
C234   C     0.42123   0.15737   0.27625   0.00000  Uiso   1.00
C235   C     0.30421   0.09393   0.20011   0.00000  Uiso   1.00
C236   C     0.56942   0.33119   0.45505   0.00000  Uiso   1.00
C237   C     0.61180   0.33889   0.56836   0.00000  Uiso   1.00
C238   C     0.58127   0.38509   0.62059   0.00000  Uiso   1.00
C239   C     0.55690   0.45347   0.74372   0.00000  Uiso   1.00
C240   C     0.60807   0.31994   0.28841   0.00000  Uiso   1.00
C241   C     0.68295   0.31818   0.26160   0.00000  Uiso   1.00
C242   C     0.68497   0.35492   0.17355   0.00000  Uiso   1.00
C243   C     0.72061   0.40582   0.03793   0.00000  Uiso   1.00
C244   C     0.46244   0.35190   0.27285   0.00000  Uiso   1.00
C245   C     0.43939   0.28345   0.26765   0.00000  Uiso   1.00
C246   C     0.35862   0.25828   0.21181   0.00000  Uiso   1.00
C247   C     0.35072   0.19457   0.21710   0.00000  Uiso   1.00
C248   C     0.49904   0.36833   0.39602   0.00000  Uiso   1.00
C249   C     0.46844   0.41454   0.44810   0.00000  Uiso   1.00
C250   C     0.51076   0.42230   0.56145   0.00000  Uiso   1.00
C251   C     0.53769   0.35708   0.22936   0.00000  Uiso   1.00
C252   C     0.53959   0.39383   0.14134   0.00000  Uiso   1.00
C253   C     0.61446   0.39213   0.11441   0.00000  Uiso   1.00
H254   H     0.64681   0.25461   0.42751   0.00000  Uiso   1.00
H255   H     0.55646   0.15390   0.37778   0.00000  Uiso   1.00
H256   H     0.66627   0.31014   0.61402   0.00000  Uiso   1.00
H257   H     0.73740   0.28943   0.30731   0.00000  Uiso   1.00
H258   H     0.42525   0.05863   0.29663   0.00000  Uiso   1.00
H259   H     0.65680   0.38808   0.79476   0.00000  Uiso   1.00
H260   H     0.80681   0.34442   0.14801   0.00000  Uiso   1.00
H261   H     0.40765   0.38082   0.22688   0.00000  Uiso   1.00
H262   H     0.30417   0.28703   0.16613   0.00000  Uiso   1.00
H263   H     0.41398   0.44327   0.40238   0.00000  Uiso   1.00
H264   H     0.48512   0.42256   0.09567   0.00000  Uiso   1.00
H265   H     0.22048   0.16668   0.12485   0.00000  Uiso   1.00
H266   H     0.45204   0.49614   0.62299   0.00000  Uiso   1.00
H267   H     0.60204   0.45247   0.97623   0.00000  Uiso   1.00
O268   O     0.25910   0.04868   0.17443   0.00000  Uiso   1.00
O269   O     0.56290   0.48092   0.82795   0.00000  Uiso   1.00
O270   O     0.75971   0.42363   0.97942   0.00000  Uiso   1.00
N271   N     0.39126   0.09693   0.26452   0.00000  Uiso   1.00
N272   N     0.60774   0.40494   0.73025   0.00000  Uiso   1.00
N273   N     0.74799   0.36413   0.12561   0.00000  Uiso   1.00
N274   N     0.28107   0.15507   0.17209   0.00000  Uiso   1.00
N275   N     0.49756   0.46308   0.63782   0.00000  Uiso   1.00
N276   N     0.63781   0.42227   0.03317   0.00000  Uiso   1.00
C277   C     0.01832   0.30204   0.25484   0.00000  Uiso   1.00
C278   C     0.09952   0.26400   0.31113   0.00000  Uiso   1.00
C279   C     0.10610   0.20023   0.30575   0.00000  Uiso   1.00
C280   C     0.18603   0.17416   0.36300   0.00000  Uiso   1.00
C281   C     0.30135   0.10955   0.44117   0.00000  Uiso   1.00
C282   C     0.04307   0.34929   0.18248   0.00000  Uiso   1.00
C283   C     0.00219   0.35723   0.06893   0.00000  Uiso   1.00
C284   C     0.03459   0.40296   0.01789   0.00000  Uiso   1.00
C285   C     0.06224   0.47079   0.89634   0.00000  Uiso   1.00
C286   C     0.00162   0.33883   0.34714   0.00000  Uiso   1.00
C287   C     0.92588   0.33799   0.37203   0.00000  Uiso   1.00
C288   C     0.92338   0.37494   0.45961   0.00000  Uiso   1.00
C289   C     0.88668   0.42653   0.59372   0.00000  Uiso   1.00
C290   C     0.14855   0.36915   0.36609   0.00000  Uiso   1.00
C291   C     0.17025   0.30045   0.37156   0.00000  Uiso   1.00
C292   C     0.25019   0.27448   0.42884   0.00000  Uiso   1.00
C293   C     0.25689   0.21068   0.42354   0.00000  Uiso   1.00
C294   C     0.11380   0.38574   0.24290   0.00000  Uiso   1.00
C295   C     0.14627   0.43148   0.19202   0.00000  Uiso   1.00
C296   C     0.10545   0.43948   0.07843   0.00000  Uiso   1.00
C297   C     0.07236   0.37528   0.40757   0.00000  Uiso   1.00
C298   C     0.06997   0.41224   0.49512   0.00000  Uiso   1.00
C299   C     0.99424   0.41146   0.52014   0.00000  Uiso   1.00
H300   H     0.96325   0.27366   0.20779   0.00000  Uiso   1.00
H301   H     0.05135   0.17203   0.25896   0.00000  Uiso   1.00
H302   H     0.94744   0.32901   0.02219   0.00000  Uiso   1.00
H303   H     0.87116   0.30978   0.32525   0.00000  Uiso   1.00
H304   H     0.18022   0.07543   0.34232   0.00000  Uiso   1.00
H305   H     0.96112   0.40645   0.84308   0.00000  Uiso   1.00
H306   H     0.80025   0.36589   0.48212   0.00000  Uiso   1.00
H307   H     0.20362   0.39754   0.41314   0.00000  Uiso   1.00
H308   H     0.30491   0.30270   0.47559   0.00000  Uiso   1.00
H309   H     0.20101   0.45968   0.23881   0.00000  Uiso   1.00
H310   H     0.12472   0.44044   0.54187   0.00000  Uiso   1.00
H311   H     0.38603   0.18149   0.51814   0.00000  Uiso   1.00
H312   H     0.16692   0.51251   0.01889   0.00000  Uiso   1.00
H313   H     0.00605   0.47194   0.65794   0.00000  Uiso   1.00
O314   O     0.34543   0.06384   0.46758   0.00000  Uiso   1.00
O315   O     0.05796   0.49813   0.81259   0.00000  Uiso   1.00
O316   O     0.84690   0.44491   0.65101   0.00000  Uiso   1.00
N317   N     0.21475   0.11340   0.37515   0.00000  Uiso   1.00
N318   N     0.00991   0.42288   0.90838   0.00000  Uiso   1.00
N319   N     0.85950   0.38497   0.50581   0.00000  Uiso   1.00
N320   N     0.32550   0.17047   0.46976   0.00000  Uiso   1.00
N321   N     0.12065   0.47995   0.00299   0.00000  Uiso   1.00
N322   N     0.97024   0.44204   0.60042   0.00000  Uiso   1.00
C323   C     0.40798   0.78353   0.11846   0.00000  Uiso   1.00
C324   C     0.49023   0.74631   0.17331   0.00000  Uiso   1.00
C325   C     0.49802   0.68263   0.16793   0.00000  Uiso   1.00
C326   C     0.57877   0.65737   0.22375   0.00000  Uiso   1.00
C327   C     0.69579   0.59393   0.29989   0.00000  Uiso   1.00
C328   C     0.43058   0.83119   0.04495   0.00000  Uiso   1.00
C329   C     0.38820   0.83889   0.93164   0.00000  Uiso   1.00
C330   C     0.41873   0.88509   0.87941   0.00000  Uiso   1.00
C331   C     0.44310   0.95347   0.75628   0.00000  Uiso   1.00
C332   C     0.39193   0.81994   0.21159   0.00000  Uiso   1.00
C333   C     0.31705   0.81818   0.23840   0.00000  Uiso   1.00
C334   C     0.31503   0.85492   0.32645   0.00000  Uiso   1.00
C335   C     0.27939   0.90582   0.46207   0.00000  Uiso   1.00
C336   C     0.53756   0.85190   0.22715   0.00000  Uiso   1.00
C337   C     0.56061   0.78345   0.23235   0.00000  Uiso   1.00
C338   C     0.64138   0.75828   0.28819   0.00000  Uiso   1.00
C339   C     0.64928   0.69457   0.28290   0.00000  Uiso   1.00
C340   C     0.50096   0.86833   0.10398   0.00000  Uiso   1.00
C341   C     0.53156   0.91454   0.05190   0.00000  Uiso   1.00
C342   C     0.48924   0.92230   0.93855   0.00000  Uiso   1.00
C343   C     0.46231   0.85708   0.27064   0.00000  Uiso   1.00
C344   C     0.46041   0.89383   0.35866   0.00000  Uiso   1.00
C345   C     0.38554   0.89213   0.38559   0.00000  Uiso   1.00
H346   H     0.35319   0.75461   0.07249   0.00000  Uiso   1.00
H347   H     0.44354   0.65390   0.12222   0.00000  Uiso   1.00
H348   H     0.33373   0.81014   0.88598   0.00000  Uiso   1.00
H349   H     0.26260   0.78943   0.19269   0.00000  Uiso   1.00
H350   H     0.57475   0.55863   0.20337   0.00000  Uiso   1.00
H351   H     0.34320   0.88808   0.70524   0.00000  Uiso   1.00
H352   H     0.19319   0.84442   0.35199   0.00000  Uiso   1.00
H353   H     0.59235   0.88082   0.27312   0.00000  Uiso   1.00
H354   H     0.69583   0.78703   0.33387   0.00000  Uiso   1.00
H355   H     0.58602   0.94327   0.09762   0.00000  Uiso   1.00
H356   H     0.51488   0.92256   0.40433   0.00000  Uiso   1.00
H357   H     0.77952   0.66668   0.37515   0.00000  Uiso   1.00
H358   H     0.54796   0.99614   0.87701   0.00000  Uiso   1.00
H359   H     0.39796   0.95247   0.52377   0.00000  Uiso   1.00
O360   O     0.74090   0.54868   0.32557   0.00000  Uiso   1.00
O361   O     0.43710   0.98092   0.67205   0.00000  Uiso   1.00
O362   O     0.24029   0.92363   0.52058   0.00000  Uiso   1.00
N363   N     0.60874   0.59693   0.23548   0.00000  Uiso   1.00
N364   N     0.39226   0.90494   0.76975   0.00000  Uiso   1.00
N365   N     0.25201   0.86413   0.37439   0.00000  Uiso   1.00
N366   N     0.71893   0.65507   0.32791   0.00000  Uiso   1.00
N367   N     0.50244   0.96308   0.86218   0.00000  Uiso   1.00
N368   N     0.36219   0.92227   0.46683   0.00000  Uiso   1.00
