data_job_01482
_audit_creation_date              2018-12-19
_audit_creation_method            'Materials Studio'
_symmetry_space_group_name_H-M    'P1'
_symmetry_Int_Tables_number       1
_symmetry_cell_setting            triclinic
loop_
_symmetry_equiv_pos_as_xyz
  x,y,z
_cell_length_a                    20.7227
_cell_length_b                    20.7227
_cell_length_c                    10.2141
_cell_angle_alpha                 90.0000
_cell_angle_beta                  90.0000
_cell_angle_gamma                 120.0000
loop_
_atom_site_label
_atom_site_type_symbol
_atom_site_fract_x
_atom_site_fract_y
_atom_site_fract_z
_atom_site_U_iso_or_equiv
_atom_site_adp_type
_atom_site_occupancy
C1     C     0.92212   0.29971   0.96440   0.00000  Uiso   1.00
C2     C     0.85033   0.23162   0.91846   0.00000  Uiso   1.00
C3     C     0.82263   0.21867   0.79162   0.00000  Uiso   1.00
C4     C     0.75605   0.15305   0.76949   0.00000  Uiso   1.00
C5     C     0.65025   0.05507   0.68279   0.00000  Uiso   1.00
C6     C     0.89989   0.33361   0.07584   0.00000  Uiso   1.00
C7     C     0.91388   0.40642   0.08133   0.00000  Uiso   1.00
C8     C     0.88904   0.42666   0.19170   0.00000  Uiso   1.00
C9     C     0.86023   0.48704   0.34937   0.00000  Uiso   1.00
C10    C     0.96888   0.26981   0.02653   0.00000  Uiso   1.00
C11    C     0.04088   0.28899   0.99059   0.00000  Uiso   1.00
C12    C     0.07412   0.25553   0.05946   0.00000  Uiso   1.00
C13    C     0.15242   0.21686   0.14058   0.00000  Uiso   1.00
C14    C     0.85314   0.20620   0.15066   0.00000  Uiso   1.00
C15    C     0.81285   0.18083   0.01963   0.00000  Uiso   1.00
C16    C     0.74630   0.11521   0.99769   0.00000  Uiso   1.00
C17    C     0.71851   0.10216   0.87084   0.00000  Uiso   1.00
C18    C     0.86242   0.28283   0.17701   0.00000  Uiso   1.00
C19    C     0.83755   0.30297   0.28740   0.00000  Uiso   1.00
C20    C     0.85150   0.37578   0.29305   0.00000  Uiso   1.00
C21    C     0.93140   0.21902   0.12770   0.00000  Uiso   1.00
C22    C     0.96454   0.18553   0.19665   0.00000  Uiso   1.00
C23    C     0.03658   0.20465   0.16081   0.00000  Uiso   1.00
H24    H     0.95130   0.33925   0.88564   0.00000  Uiso   1.00
H25    H     0.85164   0.25799   0.71336   0.00000  Uiso   1.00
H26    H     0.94289   0.44571   0.00303   0.00000  Uiso   1.00
H27    H     0.06986   0.32830   0.91230   0.00000  Uiso   1.00
H28    H     0.72462   0.14551   0.56697   0.00000  Uiso   1.00
H29    H     0.91703   0.54134   0.17778   0.00000  Uiso   1.00
H30    H     0.18478   0.29375   0.98645   0.00000  Uiso   1.00
H31    H     0.82396   0.16666   0.22943   0.00000  Uiso   1.00
H32    H     0.71731   0.07592   0.07600   0.00000  Uiso   1.00
H33    H     0.80856   0.26365   0.36567   0.00000  Uiso   1.00
H34    H     0.93553   0.14623   0.27494   0.00000  Uiso   1.00
H35    H     0.61559   0.99774   0.86131   0.00000  Uiso   1.00
H36    H     0.80801   0.39358   0.47212   0.00000  Uiso   1.00
H37    H     0.07575   0.14598   0.28079   0.00000  Uiso   1.00
O38    O     0.60223   0.01506   0.60702   0.00000  Uiso   1.00
O39    O     0.85469   0.53438   0.40839   0.00000  Uiso   1.00
O40    O     0.20596   0.20955   0.15736   0.00000  Uiso   1.00
N41    N     0.71360   0.12318   0.65729   0.00000  Uiso   1.00
N42    N     0.89349   0.49325   0.22836   0.00000  Uiso   1.00
N43    N     0.14382   0.26179   0.04950   0.00000  Uiso   1.00
N44    N     0.65493   0.04366   0.81567   0.00000  Uiso   1.00
N45    N     0.83482   0.41374   0.38673   0.00000  Uiso   1.00
N46    N     0.08515   0.18228   0.20788   0.00000  Uiso   1.00
C47    C     0.70029   0.62242   0.96440   0.00000  Uiso   1.00
C48    C     0.76838   0.61871   0.91846   0.00000  Uiso   1.00
C49    C     0.78133   0.60396   0.79162   0.00000  Uiso   1.00
C50    C     0.84695   0.60300   0.76949   0.00000  Uiso   1.00
C51    C     0.94493   0.59518   0.68279   0.00000  Uiso   1.00
C52    C     0.66639   0.56628   0.07584   0.00000  Uiso   1.00
C53    C     0.59358   0.50746   0.08133   0.00000  Uiso   1.00
C54    C     0.57334   0.46238   0.19170   0.00000  Uiso   1.00
C55    C     0.51296   0.37319   0.34937   0.00000  Uiso   1.00
C56    C     0.73019   0.69906   0.02653   0.00000  Uiso   1.00
C57    C     0.71101   0.75189   0.99059   0.00000  Uiso   1.00
C58    C     0.74447   0.81859   0.05946   0.00000  Uiso   1.00
C59    C     0.78314   0.93557   0.14058   0.00000  Uiso   1.00
C60    C     0.79380   0.64694   0.15066   0.00000  Uiso   1.00
C61    C     0.81917   0.63202   0.01963   0.00000  Uiso   1.00
C62    C     0.88479   0.63109   0.99769   0.00000  Uiso   1.00
C63    C     0.89784   0.61635   0.87084   0.00000  Uiso   1.00
C64    C     0.71717   0.57959   0.17701   0.00000  Uiso   1.00
C65    C     0.69703   0.53459   0.28740   0.00000  Uiso   1.00
C66    C     0.62422   0.47571   0.29305   0.00000  Uiso   1.00
C67    C     0.78098   0.71238   0.12770   0.00000  Uiso   1.00
C68    C     0.81447   0.77901   0.19665   0.00000  Uiso   1.00
C69    C     0.79535   0.83193   0.16081   0.00000  Uiso   1.00
H70    H     0.66075   0.61205   0.88564   0.00000  Uiso   1.00
H71    H     0.74201   0.59365   0.71336   0.00000  Uiso   1.00
H72    H     0.55429   0.49718   0.00303   0.00000  Uiso   1.00
H73    H     0.67170   0.74156   0.91230   0.00000  Uiso   1.00
H74    H     0.85449   0.57911   0.56697   0.00000  Uiso   1.00
H75    H     0.45866   0.37569   0.17778   0.00000  Uiso   1.00
H76    H     0.70625   0.89103   0.98645   0.00000  Uiso   1.00
H77    H     0.83334   0.65730   0.22943   0.00000  Uiso   1.00
H78    H     0.92408   0.64139   0.07600   0.00000  Uiso   1.00
H79    H     0.73635   0.54491   0.36567   0.00000  Uiso   1.00
H80    H     0.85377   0.78930   0.27494   0.00000  Uiso   1.00
H81    H     0.00226   0.61785   0.86131   0.00000  Uiso   1.00
H82    H     0.60642   0.41443   0.47212   0.00000  Uiso   1.00
H83    H     0.85402   0.92977   0.28079   0.00000  Uiso   1.00
O84    O     0.98494   0.58717   0.60702   0.00000  Uiso   1.00
O85    O     0.46562   0.32031   0.40839   0.00000  Uiso   1.00
O86    O     0.79045   0.99641   0.15736   0.00000  Uiso   1.00
N87    N     0.87682   0.59042   0.65729   0.00000  Uiso   1.00
N88    N     0.50675   0.40023   0.22836   0.00000  Uiso   1.00
N89    N     0.73821   0.88202   0.04950   0.00000  Uiso   1.00
N90    N     0.95634   0.61127   0.81567   0.00000  Uiso   1.00
N91    N     0.58626   0.42108   0.38673   0.00000  Uiso   1.00
N92    N     0.81772   0.90287   0.20788   0.00000  Uiso   1.00
C93    C     0.37758   0.07788   0.96440   0.00000  Uiso   1.00
C94    C     0.38129   0.14967   0.91846   0.00000  Uiso   1.00
C95    C     0.39604   0.17737   0.79162   0.00000  Uiso   1.00
C96    C     0.39700   0.24395   0.76949   0.00000  Uiso   1.00
C97    C     0.40482   0.34975   0.68279   0.00000  Uiso   1.00
C98    C     0.43372   0.10011   0.07584   0.00000  Uiso   1.00
C99    C     0.49254   0.08612   0.08133   0.00000  Uiso   1.00
C100   C     0.53762   0.11096   0.19170   0.00000  Uiso   1.00
C101   C     0.62681   0.13977   0.34937   0.00000  Uiso   1.00
C102   C     0.30094   0.03112   0.02653   0.00000  Uiso   1.00
C103   C     0.24811   0.95912   0.99059   0.00000  Uiso   1.00
C104   C     0.18141   0.92588   0.05946   0.00000  Uiso   1.00
C105   C     0.06443   0.84758   0.14058   0.00000  Uiso   1.00
C106   C     0.35306   0.14686   0.15066   0.00000  Uiso   1.00
C107   C     0.36798   0.18715   0.01963   0.00000  Uiso   1.00
C108   C     0.36891   0.25370   0.99769   0.00000  Uiso   1.00
C109   C     0.38365   0.28149   0.87084   0.00000  Uiso   1.00
C110   C     0.42041   0.13758   0.17701   0.00000  Uiso   1.00
C111   C     0.46541   0.16245   0.28740   0.00000  Uiso   1.00
C112   C     0.52429   0.14850   0.29305   0.00000  Uiso   1.00
C113   C     0.28762   0.06860   0.12770   0.00000  Uiso   1.00
C114   C     0.22099   0.03546   0.19665   0.00000  Uiso   1.00
C115   C     0.16807   0.96342   0.16081   0.00000  Uiso   1.00
H116   H     0.38795   0.04870   0.88564   0.00000  Uiso   1.00
H117   H     0.40635   0.14836   0.71336   0.00000  Uiso   1.00
H118   H     0.50282   0.05711   0.00303   0.00000  Uiso   1.00
H119   H     0.25844   0.93014   0.91230   0.00000  Uiso   1.00
H120   H     0.42089   0.27538   0.56697   0.00000  Uiso   1.00
H121   H     0.62431   0.08297   0.17778   0.00000  Uiso   1.00
H122   H     0.10897   0.81522   0.98645   0.00000  Uiso   1.00
H123   H     0.34270   0.17604   0.22943   0.00000  Uiso   1.00
H124   H     0.35861   0.28269   0.07600   0.00000  Uiso   1.00
H125   H     0.45509   0.19144   0.36567   0.00000  Uiso   1.00
H126   H     0.21070   0.06447   0.27494   0.00000  Uiso   1.00
H127   H     0.38215   0.38441   0.86131   0.00000  Uiso   1.00
H128   H     0.58557   0.19199   0.47212   0.00000  Uiso   1.00
H129   H     0.07023   0.92425   0.28079   0.00000  Uiso   1.00
O130   O     0.41283   0.39777   0.60702   0.00000  Uiso   1.00
O131   O     0.67969   0.14531   0.40839   0.00000  Uiso   1.00
O132   O     0.00359   0.79404   0.15736   0.00000  Uiso   1.00
N133   N     0.40958   0.28640   0.65729   0.00000  Uiso   1.00
N134   N     0.59977   0.10651   0.22836   0.00000  Uiso   1.00
N135   N     0.11798   0.85618   0.04950   0.00000  Uiso   1.00
N136   N     0.38873   0.34507   0.81567   0.00000  Uiso   1.00
N137   N     0.57892   0.16518   0.38673   0.00000  Uiso   1.00
N138   N     0.09713   0.91485   0.20788   0.00000  Uiso   1.00
C139   C     0.29971   0.92212   0.46440   0.00000  Uiso   1.00
C140   C     0.23162   0.85033   0.41846   0.00000  Uiso   1.00
C141   C     0.21867   0.82263   0.29162   0.00000  Uiso   1.00
C142   C     0.15305   0.75605   0.26949   0.00000  Uiso   1.00
C143   C     0.05507   0.65025   0.18279   0.00000  Uiso   1.00
C144   C     0.33361   0.89989   0.57584   0.00000  Uiso   1.00
C145   C     0.40642   0.91388   0.58133   0.00000  Uiso   1.00
C146   C     0.42666   0.88904   0.69170   0.00000  Uiso   1.00
C147   C     0.48704   0.86023   0.84937   0.00000  Uiso   1.00
C148   C     0.26981   0.96888   0.52653   0.00000  Uiso   1.00
C149   C     0.28899   0.04088   0.49059   0.00000  Uiso   1.00
C150   C     0.25553   0.07412   0.55946   0.00000  Uiso   1.00
C151   C     0.21686   0.15242   0.64058   0.00000  Uiso   1.00
C152   C     0.20620   0.85314   0.65066   0.00000  Uiso   1.00
C153   C     0.18083   0.81285   0.51963   0.00000  Uiso   1.00
C154   C     0.11521   0.74630   0.49769   0.00000  Uiso   1.00
C155   C     0.10216   0.71851   0.37084   0.00000  Uiso   1.00
C156   C     0.28283   0.86242   0.67701   0.00000  Uiso   1.00
C157   C     0.30297   0.83755   0.78740   0.00000  Uiso   1.00
C158   C     0.37578   0.85150   0.79305   0.00000  Uiso   1.00
C159   C     0.21902   0.93140   0.62770   0.00000  Uiso   1.00
C160   C     0.18553   0.96454   0.69665   0.00000  Uiso   1.00
C161   C     0.20465   0.03658   0.66081   0.00000  Uiso   1.00
H162   H     0.33925   0.95130   0.38564   0.00000  Uiso   1.00
H163   H     0.25799   0.85164   0.21336   0.00000  Uiso   1.00
H164   H     0.44571   0.94289   0.50303   0.00000  Uiso   1.00
H165   H     0.32830   0.06986   0.41230   0.00000  Uiso   1.00
H166   H     0.14551   0.72462   0.06697   0.00000  Uiso   1.00
H167   H     0.54134   0.91703   0.67778   0.00000  Uiso   1.00
H168   H     0.29375   0.18478   0.48645   0.00000  Uiso   1.00
H169   H     0.16666   0.82396   0.72943   0.00000  Uiso   1.00
H170   H     0.07592   0.71731   0.57600   0.00000  Uiso   1.00
H171   H     0.26365   0.80856   0.86567   0.00000  Uiso   1.00
H172   H     0.14623   0.93553   0.77494   0.00000  Uiso   1.00
H173   H     0.99774   0.61559   0.36131   0.00000  Uiso   1.00
H174   H     0.39358   0.80801   0.97212   0.00000  Uiso   1.00
H175   H     0.14598   0.07575   0.78079   0.00000  Uiso   1.00
O176   O     0.01506   0.60223   0.10702   0.00000  Uiso   1.00
O177   O     0.53438   0.85469   0.90839   0.00000  Uiso   1.00
O178   O     0.20955   0.20596   0.65736   0.00000  Uiso   1.00
N179   N     0.12318   0.71360   0.15729   0.00000  Uiso   1.00
N180   N     0.49325   0.89349   0.72836   0.00000  Uiso   1.00
N181   N     0.26179   0.14382   0.54950   0.00000  Uiso   1.00
N182   N     0.04366   0.65493   0.31567   0.00000  Uiso   1.00
N183   N     0.41374   0.83482   0.88673   0.00000  Uiso   1.00
N184   N     0.18228   0.08515   0.70788   0.00000  Uiso   1.00
C185   C     0.62242   0.70029   0.46440   0.00000  Uiso   1.00
C186   C     0.61871   0.76838   0.41846   0.00000  Uiso   1.00
C187   C     0.60396   0.78133   0.29162   0.00000  Uiso   1.00
C188   C     0.60300   0.84695   0.26949   0.00000  Uiso   1.00
C189   C     0.59518   0.94493   0.18279   0.00000  Uiso   1.00
C190   C     0.56628   0.66639   0.57584   0.00000  Uiso   1.00
C191   C     0.50746   0.59358   0.58133   0.00000  Uiso   1.00
C192   C     0.46238   0.57334   0.69170   0.00000  Uiso   1.00
C193   C     0.37319   0.51296   0.84937   0.00000  Uiso   1.00
C194   C     0.69906   0.73019   0.52653   0.00000  Uiso   1.00
C195   C     0.75189   0.71101   0.49059   0.00000  Uiso   1.00
C196   C     0.81859   0.74447   0.55946   0.00000  Uiso   1.00
C197   C     0.93557   0.78314   0.64058   0.00000  Uiso   1.00
C198   C     0.64694   0.79380   0.65066   0.00000  Uiso   1.00
C199   C     0.63202   0.81917   0.51963   0.00000  Uiso   1.00
C200   C     0.63109   0.88479   0.49769   0.00000  Uiso   1.00
C201   C     0.61635   0.89784   0.37084   0.00000  Uiso   1.00
C202   C     0.57959   0.71717   0.67701   0.00000  Uiso   1.00
C203   C     0.53459   0.69703   0.78740   0.00000  Uiso   1.00
C204   C     0.47571   0.62422   0.79305   0.00000  Uiso   1.00
C205   C     0.71238   0.78098   0.62770   0.00000  Uiso   1.00
C206   C     0.77901   0.81447   0.69665   0.00000  Uiso   1.00
C207   C     0.83193   0.79535   0.66081   0.00000  Uiso   1.00
H208   H     0.61205   0.66075   0.38564   0.00000  Uiso   1.00
H209   H     0.59365   0.74201   0.21336   0.00000  Uiso   1.00
H210   H     0.49718   0.55429   0.50303   0.00000  Uiso   1.00
H211   H     0.74156   0.67170   0.41230   0.00000  Uiso   1.00
H212   H     0.57911   0.85449   0.06697   0.00000  Uiso   1.00
H213   H     0.37569   0.45866   0.67778   0.00000  Uiso   1.00
H214   H     0.89103   0.70625   0.48645   0.00000  Uiso   1.00
H215   H     0.65730   0.83334   0.72943   0.00000  Uiso   1.00
H216   H     0.64139   0.92408   0.57600   0.00000  Uiso   1.00
H217   H     0.54491   0.73635   0.86567   0.00000  Uiso   1.00
H218   H     0.78930   0.85377   0.77494   0.00000  Uiso   1.00
H219   H     0.61785   0.00226   0.36131   0.00000  Uiso   1.00
H220   H     0.41443   0.60642   0.97212   0.00000  Uiso   1.00
H221   H     0.92977   0.85402   0.78079   0.00000  Uiso   1.00
O222   O     0.58717   0.98494   0.10702   0.00000  Uiso   1.00
O223   O     0.32031   0.46562   0.90839   0.00000  Uiso   1.00
O224   O     0.99641   0.79045   0.65736   0.00000  Uiso   1.00
N225   N     0.59042   0.87682   0.15729   0.00000  Uiso   1.00
N226   N     0.40023   0.50675   0.72836   0.00000  Uiso   1.00
N227   N     0.88202   0.73821   0.54950   0.00000  Uiso   1.00
N228   N     0.61127   0.95634   0.31567   0.00000  Uiso   1.00
N229   N     0.42108   0.58626   0.88673   0.00000  Uiso   1.00
N230   N     0.90287   0.81772   0.70788   0.00000  Uiso   1.00
C231   C     0.07788   0.37758   0.46440   0.00000  Uiso   1.00
C232   C     0.14967   0.38129   0.41846   0.00000  Uiso   1.00
C233   C     0.17737   0.39604   0.29162   0.00000  Uiso   1.00
C234   C     0.24395   0.39700   0.26949   0.00000  Uiso   1.00
C235   C     0.34975   0.40482   0.18279   0.00000  Uiso   1.00
C236   C     0.10011   0.43372   0.57584   0.00000  Uiso   1.00
C237   C     0.08612   0.49254   0.58133   0.00000  Uiso   1.00
C238   C     0.11096   0.53762   0.69170   0.00000  Uiso   1.00
C239   C     0.13977   0.62681   0.84937   0.00000  Uiso   1.00
C240   C     0.03112   0.30094   0.52653   0.00000  Uiso   1.00
C241   C     0.95912   0.24811   0.49059   0.00000  Uiso   1.00
C242   C     0.92588   0.18141   0.55946   0.00000  Uiso   1.00
C243   C     0.84758   0.06443   0.64058   0.00000  Uiso   1.00
C244   C     0.14686   0.35306   0.65066   0.00000  Uiso   1.00
C245   C     0.18715   0.36798   0.51963   0.00000  Uiso   1.00
C246   C     0.25370   0.36891   0.49769   0.00000  Uiso   1.00
C247   C     0.28149   0.38365   0.37084   0.00000  Uiso   1.00
C248   C     0.13758   0.42041   0.67701   0.00000  Uiso   1.00
C249   C     0.16245   0.46541   0.78740   0.00000  Uiso   1.00
C250   C     0.14850   0.52429   0.79305   0.00000  Uiso   1.00
C251   C     0.06860   0.28762   0.62770   0.00000  Uiso   1.00
C252   C     0.03546   0.22099   0.69665   0.00000  Uiso   1.00
C253   C     0.96342   0.16807   0.66081   0.00000  Uiso   1.00
H254   H     0.04870   0.38795   0.38564   0.00000  Uiso   1.00
H255   H     0.14836   0.40635   0.21336   0.00000  Uiso   1.00
H256   H     0.05711   0.50282   0.50303   0.00000  Uiso   1.00
H257   H     0.93014   0.25844   0.41230   0.00000  Uiso   1.00
H258   H     0.27538   0.42089   0.06697   0.00000  Uiso   1.00
H259   H     0.08297   0.62431   0.67778   0.00000  Uiso   1.00
H260   H     0.81522   0.10897   0.48645   0.00000  Uiso   1.00
H261   H     0.17604   0.34270   0.72943   0.00000  Uiso   1.00
H262   H     0.28269   0.35861   0.57600   0.00000  Uiso   1.00
H263   H     0.19144   0.45509   0.86567   0.00000  Uiso   1.00
H264   H     0.06447   0.21070   0.77494   0.00000  Uiso   1.00
H265   H     0.38441   0.38215   0.36131   0.00000  Uiso   1.00
H266   H     0.19199   0.58557   0.97212   0.00000  Uiso   1.00
H267   H     0.92425   0.07023   0.78079   0.00000  Uiso   1.00
O268   O     0.39777   0.41283   0.10702   0.00000  Uiso   1.00
O269   O     0.14531   0.67969   0.90839   0.00000  Uiso   1.00
O270   O     0.79404   0.00359   0.65736   0.00000  Uiso   1.00
N271   N     0.28640   0.40958   0.15729   0.00000  Uiso   1.00
N272   N     0.10651   0.59977   0.72836   0.00000  Uiso   1.00
N273   N     0.85618   0.11798   0.54950   0.00000  Uiso   1.00
N274   N     0.34507   0.38873   0.31567   0.00000  Uiso   1.00
N275   N     0.16518   0.57892   0.88673   0.00000  Uiso   1.00
N276   N     0.91485   0.09713   0.70788   0.00000  Uiso   1.00
