data_job_03261
_audit_creation_date              2018-12-19
_audit_creation_method            'Materials Studio'
_symmetry_space_group_name_H-M    'P1'
_symmetry_Int_Tables_number       1
_symmetry_cell_setting            triclinic
loop_
_symmetry_equiv_pos_as_xyz
  x,y,z
_cell_length_a                    15.8864
_cell_length_b                    37.5694
_cell_length_c                    10.0717
_cell_angle_alpha                 90.0000
_cell_angle_beta                  143.9716
_cell_angle_gamma                 90.0000
loop_
_atom_site_label
_atom_site_type_symbol
_atom_site_fract_x
_atom_site_fract_y
_atom_site_fract_z
_atom_site_U_iso_or_equiv
_atom_site_adp_type
_atom_site_occupancy
C1     C     0.70945   0.81856   0.47390   0.00000  Uiso   1.00
C2     C     0.71256   0.81958   0.62919   0.00000  Uiso   1.00
C3     C     0.63778   0.79696   0.61778   0.00000  Uiso   1.00
C4     C     0.65489   0.80223   0.77511   0.00000  Uiso   1.00
C5     C     0.64616   0.79974   0.99141   0.00000  Uiso   1.00
C6     C     0.66305   0.85560   0.37020   0.00000  Uiso   1.00
C7     C     0.54667   0.86325   0.14103   0.00000  Uiso   1.00
C8     C     0.52212   0.89884   0.08035   0.00000  Uiso   1.00
C9     C     0.43660   0.95226   0.89456   0.00000  Uiso   1.00
C10    C     0.86466   0.81448   0.62767   0.00000  Uiso   1.00
C11    C     0.91778   0.78757   0.61494   0.00000  Uiso   1.00
C12    C     0.06297   0.78854   0.77101   0.00000  Uiso   1.00
C13    C     0.29047   0.77812   0.98497   0.00000  Uiso   1.00
C14    C     0.87279   0.86815   0.77361   0.00000  Uiso   1.00
C15    C     0.80128   0.84652   0.79198   0.00000  Uiso   1.00
C16    C     0.81850   0.85183   0.94938   0.00000  Uiso   1.00
C17    C     0.74377   0.82921   0.93821   0.00000  Uiso   1.00
C18    C     0.75177   0.88253   0.53298   0.00000  Uiso   1.00
C19    C     0.72739   0.91812   0.47263   0.00000  Uiso   1.00
C20    C     0.61100   0.92583   0.24343   0.00000  Uiso   1.00
C21    C     0.95338   0.84142   0.79047   0.00000  Uiso   1.00
C22    C     0.09851   0.84244   0.94656   0.00000  Uiso   1.00
C23    C     0.15185   0.81553   0.93409   0.00000  Uiso   1.00
H24    H     0.64037   0.79759   0.34714   0.00000  Uiso   1.00
H25    H     0.56912   0.77612   0.49175   0.00000  Uiso   1.00
H26    H     0.47804   0.84240   0.01509   0.00000  Uiso   1.00
H27    H     0.84909   0.76673   0.48894   0.00000  Uiso   1.00
H28    H     0.52922   0.76420   0.72382   0.00000  Uiso   1.00
H29    H     0.33719   0.90396   0.71874   0.00000  Uiso   1.00
H30    H     0.11963   0.74439   0.71795   0.00000  Uiso   1.00
H31    H     0.94187   0.88912   0.90036   0.00000  Uiso   1.00
H32    H     0.88717   0.87268   0.07534   0.00000  Uiso   1.00
H33    H     0.79608   0.93896   0.59866   0.00000  Uiso   1.00
H34    H     0.16713   0.86329   0.07252   0.00000  Uiso   1.00
H35    H     0.78735   0.84257   0.19748   0.00000  Uiso   1.00
H36    H     0.59532   0.98233   0.19239   0.00000  Uiso   1.00
H37    H     0.37776   0.82276   0.19160   0.00000  Uiso   1.00
O38    O     0.61682   0.79092   0.06573   0.00000  Uiso   1.00
O39    O     0.36491   0.97428   0.74710   0.00000  Uiso   1.00
O40    O     0.39145   0.76492   0.05804   0.00000  Uiso   1.00
N41    N     0.59750   0.78490   0.81132   0.00000  Uiso   1.00
N42    N     0.41795   0.91557   0.87162   0.00000  Uiso   1.00
N43    N     0.14946   0.76638   0.80576   0.00000  Uiso   1.00
N44    N     0.73640   0.82707   0.06619   0.00000  Uiso   1.00
N45    N     0.55685   0.95774   0.12649   0.00000  Uiso   1.00
N46    N     0.28836   0.80856   0.06063   0.00000  Uiso   1.00
C47    C     0.29055   0.31856   0.02610   0.00000  Uiso   1.00
C48    C     0.28744   0.31958   0.87081   0.00000  Uiso   1.00
C49    C     0.36222   0.29696   0.88222   0.00000  Uiso   1.00
C50    C     0.34511   0.30223   0.72489   0.00000  Uiso   1.00
C51    C     0.35384   0.29974   0.50859   0.00000  Uiso   1.00
C52    C     0.33695   0.35560   0.12980   0.00000  Uiso   1.00
C53    C     0.45333   0.36325   0.35897   0.00000  Uiso   1.00
C54    C     0.47788   0.39884   0.41965   0.00000  Uiso   1.00
C55    C     0.56340   0.45226   0.60544   0.00000  Uiso   1.00
C56    C     0.13534   0.31448   0.87233   0.00000  Uiso   1.00
C57    C     0.08222   0.28757   0.88506   0.00000  Uiso   1.00
C58    C     0.93703   0.28854   0.72899   0.00000  Uiso   1.00
C59    C     0.70953   0.27812   0.51503   0.00000  Uiso   1.00
C60    C     0.12721   0.36815   0.72639   0.00000  Uiso   1.00
C61    C     0.19872   0.34652   0.70802   0.00000  Uiso   1.00
C62    C     0.18150   0.35183   0.55062   0.00000  Uiso   1.00
C63    C     0.25623   0.32921   0.56179   0.00000  Uiso   1.00
C64    C     0.24823   0.38253   0.96702   0.00000  Uiso   1.00
C65    C     0.27261   0.41812   0.02737   0.00000  Uiso   1.00
C66    C     0.38900   0.42583   0.25657   0.00000  Uiso   1.00
C67    C     0.04662   0.34142   0.70953   0.00000  Uiso   1.00
C68    C     0.90149   0.34244   0.55344   0.00000  Uiso   1.00
C69    C     0.84815   0.31553   0.56591   0.00000  Uiso   1.00
H70    H     0.35963   0.29759   0.15286   0.00000  Uiso   1.00
H71    H     0.43088   0.27612   0.00825   0.00000  Uiso   1.00
H72    H     0.52196   0.34240   0.48491   0.00000  Uiso   1.00
H73    H     0.15091   0.26673   0.01106   0.00000  Uiso   1.00
H74    H     0.47078   0.26420   0.77618   0.00000  Uiso   1.00
H75    H     0.66281   0.40396   0.78126   0.00000  Uiso   1.00
H76    H     0.88037   0.24439   0.78205   0.00000  Uiso   1.00
H77    H     0.05813   0.38912   0.59964   0.00000  Uiso   1.00
H78    H     0.11283   0.37268   0.42466   0.00000  Uiso   1.00
H79    H     0.20392   0.43896   0.90134   0.00000  Uiso   1.00
H80    H     0.83287   0.36329   0.42748   0.00000  Uiso   1.00
H81    H     0.21265   0.34257   0.30252   0.00000  Uiso   1.00
H82    H     0.40468   0.48233   0.30761   0.00000  Uiso   1.00
H83    H     0.62224   0.32276   0.30840   0.00000  Uiso   1.00
O84    O     0.38318   0.29092   0.43427   0.00000  Uiso   1.00
O85    O     0.63509   0.47428   0.75290   0.00000  Uiso   1.00
O86    O     0.60855   0.26492   0.44196   0.00000  Uiso   1.00
N87    N     0.40250   0.28490   0.68868   0.00000  Uiso   1.00
N88    N     0.58205   0.41557   0.62838   0.00000  Uiso   1.00
N89    N     0.85054   0.26638   0.69424   0.00000  Uiso   1.00
N90    N     0.26360   0.32707   0.43381   0.00000  Uiso   1.00
N91    N     0.44315   0.45774   0.37351   0.00000  Uiso   1.00
N92    N     0.71164   0.30856   0.43937   0.00000  Uiso   1.00
C93    C     0.29055   0.18144   0.52610   0.00000  Uiso   1.00
C94    C     0.28744   0.18042   0.37081   0.00000  Uiso   1.00
C95    C     0.36222   0.20304   0.38222   0.00000  Uiso   1.00
C96    C     0.34511   0.19777   0.22489   0.00000  Uiso   1.00
C97    C     0.35384   0.20026   0.00859   0.00000  Uiso   1.00
C98    C     0.33695   0.14440   0.62980   0.00000  Uiso   1.00
C99    C     0.45333   0.13675   0.85897   0.00000  Uiso   1.00
C100   C     0.47788   0.10116   0.91965   0.00000  Uiso   1.00
C101   C     0.56340   0.04774   0.10544   0.00000  Uiso   1.00
C102   C     0.13534   0.18552   0.37233   0.00000  Uiso   1.00
C103   C     0.08222   0.21243   0.38506   0.00000  Uiso   1.00
C104   C     0.93703   0.21146   0.22899   0.00000  Uiso   1.00
C105   C     0.70953   0.22188   0.01503   0.00000  Uiso   1.00
C106   C     0.12721   0.13185   0.22639   0.00000  Uiso   1.00
C107   C     0.19872   0.15348   0.20802   0.00000  Uiso   1.00
C108   C     0.18150   0.14817   0.05062   0.00000  Uiso   1.00
C109   C     0.25623   0.17079   0.06179   0.00000  Uiso   1.00
C110   C     0.24823   0.11747   0.46702   0.00000  Uiso   1.00
C111   C     0.27261   0.08188   0.52737   0.00000  Uiso   1.00
C112   C     0.38900   0.07417   0.75657   0.00000  Uiso   1.00
C113   C     0.04662   0.15858   0.20953   0.00000  Uiso   1.00
C114   C     0.90149   0.15756   0.05344   0.00000  Uiso   1.00
C115   C     0.84815   0.18447   0.06591   0.00000  Uiso   1.00
H116   H     0.35963   0.20241   0.65286   0.00000  Uiso   1.00
H117   H     0.43088   0.22388   0.50825   0.00000  Uiso   1.00
H118   H     0.52196   0.15760   0.98491   0.00000  Uiso   1.00
H119   H     0.15091   0.23327   0.51106   0.00000  Uiso   1.00
H120   H     0.47078   0.23580   0.27618   0.00000  Uiso   1.00
H121   H     0.66281   0.09604   0.28126   0.00000  Uiso   1.00
H122   H     0.88037   0.25561   0.28205   0.00000  Uiso   1.00
H123   H     0.05813   0.11088   0.09964   0.00000  Uiso   1.00
H124   H     0.11283   0.12732   0.92466   0.00000  Uiso   1.00
H125   H     0.20392   0.06104   0.40134   0.00000  Uiso   1.00
H126   H     0.83287   0.13671   0.92748   0.00000  Uiso   1.00
H127   H     0.21265   0.15743   0.80252   0.00000  Uiso   1.00
H128   H     0.40468   0.01767   0.80761   0.00000  Uiso   1.00
H129   H     0.62224   0.17724   0.80840   0.00000  Uiso   1.00
O130   O     0.38318   0.20908   0.93427   0.00000  Uiso   1.00
O131   O     0.63509   0.02572   0.25290   0.00000  Uiso   1.00
O132   O     0.60855   0.23508   0.94196   0.00000  Uiso   1.00
N133   N     0.40250   0.21510   0.18868   0.00000  Uiso   1.00
N134   N     0.58205   0.08443   0.12838   0.00000  Uiso   1.00
N135   N     0.85054   0.23362   0.19424   0.00000  Uiso   1.00
N136   N     0.26360   0.17293   0.93381   0.00000  Uiso   1.00
N137   N     0.44315   0.04226   0.87351   0.00000  Uiso   1.00
N138   N     0.71164   0.19144   0.93937   0.00000  Uiso   1.00
C139   C     0.70945   0.68144   0.97390   0.00000  Uiso   1.00
C140   C     0.71256   0.68042   0.12919   0.00000  Uiso   1.00
C141   C     0.63778   0.70304   0.11778   0.00000  Uiso   1.00
C142   C     0.65489   0.69777   0.27511   0.00000  Uiso   1.00
C143   C     0.64616   0.70026   0.49141   0.00000  Uiso   1.00
C144   C     0.66305   0.64440   0.87020   0.00000  Uiso   1.00
C145   C     0.54667   0.63675   0.64103   0.00000  Uiso   1.00
C146   C     0.52212   0.60116   0.58035   0.00000  Uiso   1.00
C147   C     0.43660   0.54774   0.39456   0.00000  Uiso   1.00
C148   C     0.86466   0.68552   0.12767   0.00000  Uiso   1.00
C149   C     0.91778   0.71243   0.11494   0.00000  Uiso   1.00
C150   C     0.06297   0.71146   0.27101   0.00000  Uiso   1.00
C151   C     0.29047   0.72188   0.48497   0.00000  Uiso   1.00
C152   C     0.87279   0.63185   0.27361   0.00000  Uiso   1.00
C153   C     0.80128   0.65348   0.29198   0.00000  Uiso   1.00
C154   C     0.81850   0.64817   0.44938   0.00000  Uiso   1.00
C155   C     0.74377   0.67079   0.43821   0.00000  Uiso   1.00
C156   C     0.75177   0.61747   0.03298   0.00000  Uiso   1.00
C157   C     0.72739   0.58188   0.97263   0.00000  Uiso   1.00
C158   C     0.61100   0.57417   0.74343   0.00000  Uiso   1.00
C159   C     0.95338   0.65858   0.29047   0.00000  Uiso   1.00
C160   C     0.09851   0.65756   0.44656   0.00000  Uiso   1.00
C161   C     0.15185   0.68447   0.43409   0.00000  Uiso   1.00
H162   H     0.64037   0.70241   0.84714   0.00000  Uiso   1.00
H163   H     0.56912   0.72388   0.99175   0.00000  Uiso   1.00
H164   H     0.47804   0.65760   0.51509   0.00000  Uiso   1.00
H165   H     0.84909   0.73327   0.98894   0.00000  Uiso   1.00
H166   H     0.52922   0.73580   0.22382   0.00000  Uiso   1.00
H167   H     0.33719   0.59604   0.21874   0.00000  Uiso   1.00
H168   H     0.11963   0.75561   0.21795   0.00000  Uiso   1.00
H169   H     0.94187   0.61088   0.40036   0.00000  Uiso   1.00
H170   H     0.88717   0.62732   0.57534   0.00000  Uiso   1.00
H171   H     0.79608   0.56104   0.09866   0.00000  Uiso   1.00
H172   H     0.16713   0.63671   0.57252   0.00000  Uiso   1.00
H173   H     0.78735   0.65743   0.69748   0.00000  Uiso   1.00
H174   H     0.59532   0.51767   0.69239   0.00000  Uiso   1.00
H175   H     0.37776   0.67724   0.69160   0.00000  Uiso   1.00
O176   O     0.61682   0.70908   0.56573   0.00000  Uiso   1.00
O177   O     0.36491   0.52572   0.24710   0.00000  Uiso   1.00
O178   O     0.39145   0.73508   0.55804   0.00000  Uiso   1.00
N179   N     0.59750   0.71510   0.31132   0.00000  Uiso   1.00
N180   N     0.41795   0.58443   0.37162   0.00000  Uiso   1.00
N181   N     0.14946   0.73362   0.30576   0.00000  Uiso   1.00
N182   N     0.73640   0.67293   0.56619   0.00000  Uiso   1.00
N183   N     0.55685   0.54226   0.62649   0.00000  Uiso   1.00
N184   N     0.28836   0.69144   0.56063   0.00000  Uiso   1.00
