data_job_02215
_audit_creation_date              2018-12-19
_audit_creation_method            'Materials Studio'
_symmetry_space_group_name_H-M    'P1'
_symmetry_Int_Tables_number       1
_symmetry_cell_setting            triclinic
loop_
_symmetry_equiv_pos_as_xyz
  x,y,z
_cell_length_a                    32.1229
_cell_length_b                    9.5638
_cell_length_c                    23.4008
_cell_angle_alpha                 90.0000
_cell_angle_beta                  134.1562
_cell_angle_gamma                 90.0000
loop_
_atom_site_label
_atom_site_type_symbol
_atom_site_fract_x
_atom_site_fract_y
_atom_site_fract_z
_atom_site_U_iso_or_equiv
_atom_site_adp_type
_atom_site_occupancy
C1     C     0.92105   0.95169   0.28107   0.00000  Uiso   1.00
C2     C     0.89587   0.85878   0.21020   0.00000  Uiso   1.00
C3     C     0.91975   0.83788   0.17927   0.00000  Uiso   1.00
C4     C     0.89010   0.74895   0.11423   0.00000  Uiso   1.00
C5     C     0.85885   0.61472   0.00916   0.00000  Uiso   1.00
C6     C     0.87338   0.05559   0.25098   0.00000  Uiso   1.00
C7     C     0.87836   0.20017   0.25434   0.00000  Uiso   1.00
C8     C     0.82978   0.27691   0.22363   0.00000  Uiso   1.00
C9     C     0.76363   0.44822   0.18191   0.00000  Uiso   1.00
C10    C     0.92870   0.85796   0.34056   0.00000  Uiso   1.00
C11    C     0.98019   0.83639   0.41927   0.00000  Uiso   1.00
C12    C     0.97819   0.74676   0.46398   0.00000  Uiso   1.00
C13    C     0.99793   0.61122   0.56137   0.00000  Uiso   1.00
C14    C     0.82592   0.83091   0.22056   0.00000  Uiso   1.00
C15    C     0.84420   0.79318   0.17733   0.00000  Uiso   1.00
C16    C     0.81451   0.70425   0.11232   0.00000  Uiso   1.00
C17    C     0.83834   0.68323   0.08130   0.00000  Uiso   1.00
C18    C     0.82171   0.98999   0.21810   0.00000  Uiso   1.00
C19    C     0.77312   0.06654   0.18738   0.00000  Uiso   1.00
C20    C     0.77802   0.21119   0.19069   0.00000  Uiso   1.00
C21    C     0.87703   0.79235   0.30769   0.00000  Uiso   1.00
C22    C     0.87495   0.70275   0.35230   0.00000  Uiso   1.00
C23    C     0.92643   0.68104   0.43105   0.00000  Uiso   1.00
H24    H     0.96127   0.00278   0.30667   0.00000  Uiso   1.00
H25    H     0.95973   0.88868   0.20473   0.00000  Uiso   1.00
H26    H     0.91835   0.25091   0.27979   0.00000  Uiso   1.00
H27    H     0.02017   0.88717   0.44468   0.00000  Uiso   1.00
H28    H     0.93523   0.73330   0.07719   0.00000  Uiso   1.00
H29    H     0.84798   0.49706   0.23549   0.00000  Uiso   1.00
H30    H     0.06268   0.73007   0.58320   0.00000  Uiso   1.00
H31    H     0.78570   0.77984   0.19496   0.00000  Uiso   1.00
H32    H     0.77453   0.65350   0.08689   0.00000  Uiso   1.00
H33    H     0.73314   0.01573   0.16195   0.00000  Uiso   1.00
H34    H     0.83496   0.65200   0.32685   0.00000  Uiso   1.00
H35    H     0.78491   0.54242   0.98155   0.00000  Uiso   1.00
H36    H     0.69766   0.30619   0.13985   0.00000  Uiso   1.00
H37    H     0.91236   0.53920   0.48756   0.00000  Uiso   1.00
O38    O     0.85588   0.55881   0.96028   0.00000  Uiso   1.00
O39    O     0.74141   0.56084   0.16798   0.00000  Uiso   1.00
O40    O     0.02310   0.55456   0.62416   0.00000  Uiso   1.00
N41    N     0.90139   0.70569   0.06952   0.00000  Uiso   1.00
N42    N     0.81981   0.41977   0.21751   0.00000  Uiso   1.00
N43    N     0.02054   0.70272   0.54260   0.00000  Uiso   1.00
N44    N     0.82051   0.60298   0.01806   0.00000  Uiso   1.00
N45    N     0.73893   0.31706   0.16605   0.00000  Uiso   1.00
N46    N     0.93965   0.60001   0.49114   0.00000  Uiso   1.00
C47    C     0.42105   0.45169   0.28107   0.00000  Uiso   1.00
C48    C     0.39587   0.35878   0.21020   0.00000  Uiso   1.00
C49    C     0.41975   0.33788   0.17927   0.00000  Uiso   1.00
C50    C     0.39010   0.24895   0.11423   0.00000  Uiso   1.00
C51    C     0.35885   0.11472   0.00916   0.00000  Uiso   1.00
C52    C     0.37338   0.55559   0.25098   0.00000  Uiso   1.00
C53    C     0.37836   0.70017   0.25434   0.00000  Uiso   1.00
C54    C     0.32978   0.77691   0.22363   0.00000  Uiso   1.00
C55    C     0.26363   0.94822   0.18191   0.00000  Uiso   1.00
C56    C     0.42870   0.35796   0.34056   0.00000  Uiso   1.00
C57    C     0.48019   0.33639   0.41927   0.00000  Uiso   1.00
C58    C     0.47819   0.24676   0.46398   0.00000  Uiso   1.00
C59    C     0.49793   0.11122   0.56137   0.00000  Uiso   1.00
C60    C     0.32592   0.33091   0.22056   0.00000  Uiso   1.00
C61    C     0.34420   0.29318   0.17733   0.00000  Uiso   1.00
C62    C     0.31451   0.20425   0.11232   0.00000  Uiso   1.00
C63    C     0.33834   0.18323   0.08130   0.00000  Uiso   1.00
C64    C     0.32171   0.48999   0.21810   0.00000  Uiso   1.00
C65    C     0.27312   0.56654   0.18738   0.00000  Uiso   1.00
C66    C     0.27802   0.71119   0.19069   0.00000  Uiso   1.00
C67    C     0.37703   0.29235   0.30769   0.00000  Uiso   1.00
C68    C     0.37495   0.20275   0.35230   0.00000  Uiso   1.00
C69    C     0.42643   0.18104   0.43105   0.00000  Uiso   1.00
H70    H     0.46127   0.50278   0.30667   0.00000  Uiso   1.00
H71    H     0.45973   0.38868   0.20473   0.00000  Uiso   1.00
H72    H     0.41835   0.75091   0.27979   0.00000  Uiso   1.00
H73    H     0.52017   0.38717   0.44468   0.00000  Uiso   1.00
H74    H     0.43523   0.23330   0.07719   0.00000  Uiso   1.00
H75    H     0.34798   0.99706   0.23549   0.00000  Uiso   1.00
H76    H     0.56268   0.23007   0.58320   0.00000  Uiso   1.00
H77    H     0.28570   0.27984   0.19496   0.00000  Uiso   1.00
H78    H     0.27453   0.15350   0.08689   0.00000  Uiso   1.00
H79    H     0.23314   0.51573   0.16195   0.00000  Uiso   1.00
H80    H     0.33496   0.15200   0.32685   0.00000  Uiso   1.00
H81    H     0.28491   0.04242   0.98155   0.00000  Uiso   1.00
H82    H     0.19766   0.80619   0.13985   0.00000  Uiso   1.00
H83    H     0.41236   0.03920   0.48756   0.00000  Uiso   1.00
O84    O     0.35588   0.05881   0.96028   0.00000  Uiso   1.00
O85    O     0.24141   0.06084   0.16798   0.00000  Uiso   1.00
O86    O     0.52310   0.05456   0.62416   0.00000  Uiso   1.00
N87    N     0.40139   0.20569   0.06952   0.00000  Uiso   1.00
N88    N     0.31981   0.91977   0.21751   0.00000  Uiso   1.00
N89    N     0.52054   0.20272   0.54260   0.00000  Uiso   1.00
N90    N     0.32051   0.10298   0.01806   0.00000  Uiso   1.00
N91    N     0.23893   0.81706   0.16605   0.00000  Uiso   1.00
N92    N     0.43965   0.10001   0.49114   0.00000  Uiso   1.00
C93    C     0.07895   0.95169   0.21893   0.00000  Uiso   1.00
C94    C     0.10413   0.85878   0.28980   0.00000  Uiso   1.00
C95    C     0.08025   0.83788   0.32073   0.00000  Uiso   1.00
C96    C     0.10990   0.74895   0.38577   0.00000  Uiso   1.00
C97    C     0.14115   0.61472   0.49084   0.00000  Uiso   1.00
C98    C     0.12662   0.05559   0.24902   0.00000  Uiso   1.00
C99    C     0.12164   0.20017   0.24566   0.00000  Uiso   1.00
C100   C     0.17022   0.27691   0.27637   0.00000  Uiso   1.00
C101   C     0.23637   0.44822   0.31809   0.00000  Uiso   1.00
C102   C     0.07130   0.85796   0.15944   0.00000  Uiso   1.00
C103   C     0.01981   0.83639   0.08073   0.00000  Uiso   1.00
C104   C     0.02181   0.74676   0.03602   0.00000  Uiso   1.00
C105   C     0.00207   0.61122   0.93863   0.00000  Uiso   1.00
C106   C     0.17408   0.83091   0.27944   0.00000  Uiso   1.00
C107   C     0.15580   0.79318   0.32267   0.00000  Uiso   1.00
C108   C     0.18549   0.70425   0.38768   0.00000  Uiso   1.00
C109   C     0.16166   0.68323   0.41870   0.00000  Uiso   1.00
C110   C     0.17829   0.98999   0.28190   0.00000  Uiso   1.00
C111   C     0.22688   0.06654   0.31262   0.00000  Uiso   1.00
C112   C     0.22198   0.21119   0.30931   0.00000  Uiso   1.00
C113   C     0.12297   0.79235   0.19231   0.00000  Uiso   1.00
C114   C     0.12505   0.70275   0.14770   0.00000  Uiso   1.00
C115   C     0.07357   0.68104   0.06895   0.00000  Uiso   1.00
H116   H     0.03873   0.00278   0.19333   0.00000  Uiso   1.00
H117   H     0.04027   0.88868   0.29527   0.00000  Uiso   1.00
H118   H     0.08165   0.25091   0.22021   0.00000  Uiso   1.00
H119   H     0.97983   0.88717   0.05532   0.00000  Uiso   1.00
H120   H     0.06477   0.73330   0.42281   0.00000  Uiso   1.00
H121   H     0.15202   0.49706   0.26451   0.00000  Uiso   1.00
H122   H     0.93732   0.73007   0.91680   0.00000  Uiso   1.00
H123   H     0.21430   0.77984   0.30504   0.00000  Uiso   1.00
H124   H     0.22547   0.65350   0.41311   0.00000  Uiso   1.00
H125   H     0.26686   0.01573   0.33805   0.00000  Uiso   1.00
H126   H     0.16504   0.65200   0.17315   0.00000  Uiso   1.00
H127   H     0.21509   0.54242   0.51845   0.00000  Uiso   1.00
H128   H     0.30234   0.30619   0.36015   0.00000  Uiso   1.00
H129   H     0.08764   0.53920   0.01244   0.00000  Uiso   1.00
O130   O     0.14412   0.55881   0.53972   0.00000  Uiso   1.00
O131   O     0.25859   0.56084   0.33202   0.00000  Uiso   1.00
O132   O     0.97690   0.55456   0.87584   0.00000  Uiso   1.00
N133   N     0.09861   0.70569   0.43048   0.00000  Uiso   1.00
N134   N     0.18019   0.41977   0.28249   0.00000  Uiso   1.00
N135   N     0.97946   0.70272   0.95740   0.00000  Uiso   1.00
N136   N     0.17949   0.60298   0.48194   0.00000  Uiso   1.00
N137   N     0.26107   0.31706   0.33395   0.00000  Uiso   1.00
N138   N     0.06035   0.60001   0.00886   0.00000  Uiso   1.00
C139   C     0.57895   0.45169   0.21893   0.00000  Uiso   1.00
C140   C     0.60413   0.35878   0.28980   0.00000  Uiso   1.00
C141   C     0.58025   0.33788   0.32073   0.00000  Uiso   1.00
C142   C     0.60990   0.24895   0.38577   0.00000  Uiso   1.00
C143   C     0.64115   0.11472   0.49084   0.00000  Uiso   1.00
C144   C     0.62662   0.55559   0.24902   0.00000  Uiso   1.00
C145   C     0.62164   0.70017   0.24566   0.00000  Uiso   1.00
C146   C     0.67022   0.77691   0.27637   0.00000  Uiso   1.00
C147   C     0.73637   0.94822   0.31809   0.00000  Uiso   1.00
C148   C     0.57130   0.35796   0.15944   0.00000  Uiso   1.00
C149   C     0.51981   0.33639   0.08073   0.00000  Uiso   1.00
C150   C     0.52181   0.24676   0.03602   0.00000  Uiso   1.00
C151   C     0.50207   0.11122   0.93863   0.00000  Uiso   1.00
C152   C     0.67408   0.33091   0.27944   0.00000  Uiso   1.00
C153   C     0.65580   0.29318   0.32267   0.00000  Uiso   1.00
C154   C     0.68549   0.20425   0.38768   0.00000  Uiso   1.00
C155   C     0.66166   0.18323   0.41870   0.00000  Uiso   1.00
C156   C     0.67829   0.48999   0.28190   0.00000  Uiso   1.00
C157   C     0.72688   0.56654   0.31262   0.00000  Uiso   1.00
C158   C     0.72198   0.71119   0.30931   0.00000  Uiso   1.00
C159   C     0.62297   0.29235   0.19231   0.00000  Uiso   1.00
C160   C     0.62505   0.20275   0.14770   0.00000  Uiso   1.00
C161   C     0.57357   0.18104   0.06895   0.00000  Uiso   1.00
H162   H     0.53873   0.50278   0.19333   0.00000  Uiso   1.00
H163   H     0.54027   0.38868   0.29527   0.00000  Uiso   1.00
H164   H     0.58165   0.75091   0.22021   0.00000  Uiso   1.00
H165   H     0.47983   0.38717   0.05532   0.00000  Uiso   1.00
H166   H     0.56477   0.23330   0.42281   0.00000  Uiso   1.00
H167   H     0.65202   0.99706   0.26451   0.00000  Uiso   1.00
H168   H     0.43732   0.23007   0.91680   0.00000  Uiso   1.00
H169   H     0.71430   0.27984   0.30504   0.00000  Uiso   1.00
H170   H     0.72547   0.15350   0.41311   0.00000  Uiso   1.00
H171   H     0.76686   0.51573   0.33805   0.00000  Uiso   1.00
H172   H     0.66504   0.15200   0.17315   0.00000  Uiso   1.00
H173   H     0.71509   0.04242   0.51845   0.00000  Uiso   1.00
H174   H     0.80234   0.80619   0.36015   0.00000  Uiso   1.00
H175   H     0.58764   0.03920   0.01244   0.00000  Uiso   1.00
O176   O     0.64412   0.05881   0.53972   0.00000  Uiso   1.00
O177   O     0.75859   0.06084   0.33202   0.00000  Uiso   1.00
O178   O     0.47690   0.05456   0.87584   0.00000  Uiso   1.00
N179   N     0.59861   0.20569   0.43048   0.00000  Uiso   1.00
N180   N     0.68019   0.91977   0.28249   0.00000  Uiso   1.00
N181   N     0.47946   0.20272   0.95740   0.00000  Uiso   1.00
N182   N     0.67949   0.10298   0.48194   0.00000  Uiso   1.00
N183   N     0.76107   0.81706   0.33395   0.00000  Uiso   1.00
N184   N     0.56035   0.10001   0.00886   0.00000  Uiso   1.00
C185   C     0.07895   0.04831   0.71893   0.00000  Uiso   1.00
C186   C     0.10413   0.14122   0.78980   0.00000  Uiso   1.00
C187   C     0.08025   0.16212   0.82073   0.00000  Uiso   1.00
C188   C     0.10990   0.25105   0.88577   0.00000  Uiso   1.00
C189   C     0.14115   0.38528   0.99084   0.00000  Uiso   1.00
C190   C     0.12662   0.94441   0.74902   0.00000  Uiso   1.00
C191   C     0.12164   0.79983   0.74566   0.00000  Uiso   1.00
C192   C     0.17022   0.72309   0.77637   0.00000  Uiso   1.00
C193   C     0.23637   0.55178   0.81809   0.00000  Uiso   1.00
C194   C     0.07130   0.14204   0.65944   0.00000  Uiso   1.00
C195   C     0.01981   0.16361   0.58073   0.00000  Uiso   1.00
C196   C     0.02181   0.25324   0.53602   0.00000  Uiso   1.00
C197   C     0.00207   0.38878   0.43863   0.00000  Uiso   1.00
C198   C     0.17408   0.16909   0.77944   0.00000  Uiso   1.00
C199   C     0.15580   0.20682   0.82267   0.00000  Uiso   1.00
C200   C     0.18549   0.29575   0.88768   0.00000  Uiso   1.00
C201   C     0.16166   0.31677   0.91870   0.00000  Uiso   1.00
C202   C     0.17829   0.01001   0.78190   0.00000  Uiso   1.00
C203   C     0.22688   0.93346   0.81262   0.00000  Uiso   1.00
C204   C     0.22198   0.78881   0.80931   0.00000  Uiso   1.00
C205   C     0.12297   0.20765   0.69231   0.00000  Uiso   1.00
C206   C     0.12505   0.29725   0.64770   0.00000  Uiso   1.00
C207   C     0.07357   0.31896   0.56895   0.00000  Uiso   1.00
H208   H     0.03873   0.99722   0.69333   0.00000  Uiso   1.00
H209   H     0.04027   0.11132   0.79527   0.00000  Uiso   1.00
H210   H     0.08165   0.74909   0.72021   0.00000  Uiso   1.00
H211   H     0.97983   0.11283   0.55532   0.00000  Uiso   1.00
H212   H     0.06477   0.26670   0.92281   0.00000  Uiso   1.00
H213   H     0.15202   0.50294   0.76451   0.00000  Uiso   1.00
H214   H     0.93732   0.26993   0.41680   0.00000  Uiso   1.00
H215   H     0.21430   0.22016   0.80504   0.00000  Uiso   1.00
H216   H     0.22547   0.34650   0.91311   0.00000  Uiso   1.00
H217   H     0.26686   0.98427   0.83805   0.00000  Uiso   1.00
H218   H     0.16504   0.34800   0.67315   0.00000  Uiso   1.00
H219   H     0.21509   0.45758   0.01845   0.00000  Uiso   1.00
H220   H     0.30234   0.69381   0.86015   0.00000  Uiso   1.00
H221   H     0.08764   0.46080   0.51244   0.00000  Uiso   1.00
O222   O     0.14412   0.44119   0.03972   0.00000  Uiso   1.00
O223   O     0.25859   0.43916   0.83202   0.00000  Uiso   1.00
O224   O     0.97690   0.44544   0.37584   0.00000  Uiso   1.00
N225   N     0.09861   0.29431   0.93048   0.00000  Uiso   1.00
N226   N     0.18019   0.58023   0.78249   0.00000  Uiso   1.00
N227   N     0.97946   0.29728   0.45740   0.00000  Uiso   1.00
N228   N     0.17949   0.39702   0.98194   0.00000  Uiso   1.00
N229   N     0.26107   0.68294   0.83395   0.00000  Uiso   1.00
N230   N     0.06035   0.39999   0.50886   0.00000  Uiso   1.00
C231   C     0.57895   0.54831   0.71893   0.00000  Uiso   1.00
C232   C     0.60413   0.64122   0.78980   0.00000  Uiso   1.00
C233   C     0.58025   0.66212   0.82073   0.00000  Uiso   1.00
C234   C     0.60990   0.75105   0.88577   0.00000  Uiso   1.00
C235   C     0.64115   0.88528   0.99084   0.00000  Uiso   1.00
C236   C     0.62662   0.44441   0.74902   0.00000  Uiso   1.00
C237   C     0.62164   0.29983   0.74566   0.00000  Uiso   1.00
C238   C     0.67022   0.22309   0.77637   0.00000  Uiso   1.00
C239   C     0.73637   0.05178   0.81809   0.00000  Uiso   1.00
C240   C     0.57130   0.64204   0.65944   0.00000  Uiso   1.00
C241   C     0.51981   0.66361   0.58073   0.00000  Uiso   1.00
C242   C     0.52181   0.75324   0.53602   0.00000  Uiso   1.00
C243   C     0.50207   0.88878   0.43863   0.00000  Uiso   1.00
C244   C     0.67408   0.66909   0.77944   0.00000  Uiso   1.00
C245   C     0.65580   0.70682   0.82267   0.00000  Uiso   1.00
C246   C     0.68549   0.79575   0.88768   0.00000  Uiso   1.00
C247   C     0.66166   0.81677   0.91870   0.00000  Uiso   1.00
C248   C     0.67829   0.51001   0.78190   0.00000  Uiso   1.00
C249   C     0.72688   0.43346   0.81262   0.00000  Uiso   1.00
C250   C     0.72198   0.28881   0.80931   0.00000  Uiso   1.00
C251   C     0.62297   0.70765   0.69231   0.00000  Uiso   1.00
C252   C     0.62505   0.79725   0.64770   0.00000  Uiso   1.00
C253   C     0.57357   0.81896   0.56895   0.00000  Uiso   1.00
H254   H     0.53873   0.49722   0.69333   0.00000  Uiso   1.00
H255   H     0.54027   0.61132   0.79527   0.00000  Uiso   1.00
H256   H     0.58165   0.24909   0.72021   0.00000  Uiso   1.00
H257   H     0.47983   0.61283   0.55532   0.00000  Uiso   1.00
H258   H     0.56477   0.76670   0.92281   0.00000  Uiso   1.00
H259   H     0.65202   0.00294   0.76451   0.00000  Uiso   1.00
H260   H     0.43732   0.76993   0.41680   0.00000  Uiso   1.00
H261   H     0.71430   0.72016   0.80504   0.00000  Uiso   1.00
H262   H     0.72547   0.84650   0.91311   0.00000  Uiso   1.00
H263   H     0.76686   0.48427   0.83805   0.00000  Uiso   1.00
H264   H     0.66504   0.84800   0.67315   0.00000  Uiso   1.00
H265   H     0.71509   0.95758   0.01845   0.00000  Uiso   1.00
H266   H     0.80234   0.19381   0.86015   0.00000  Uiso   1.00
H267   H     0.58764   0.96080   0.51244   0.00000  Uiso   1.00
O268   O     0.64412   0.94119   0.03972   0.00000  Uiso   1.00
O269   O     0.75859   0.93916   0.83202   0.00000  Uiso   1.00
O270   O     0.47690   0.94544   0.37584   0.00000  Uiso   1.00
N271   N     0.59861   0.79431   0.93048   0.00000  Uiso   1.00
N272   N     0.68019   0.08023   0.78249   0.00000  Uiso   1.00
N273   N     0.47946   0.79728   0.45740   0.00000  Uiso   1.00
N274   N     0.67949   0.89702   0.98194   0.00000  Uiso   1.00
N275   N     0.76107   0.18294   0.83395   0.00000  Uiso   1.00
N276   N     0.56035   0.89999   0.50886   0.00000  Uiso   1.00
C277   C     0.92105   0.04831   0.78107   0.00000  Uiso   1.00
C278   C     0.89587   0.14122   0.71020   0.00000  Uiso   1.00
C279   C     0.91975   0.16212   0.67927   0.00000  Uiso   1.00
C280   C     0.89010   0.25105   0.61423   0.00000  Uiso   1.00
C281   C     0.85885   0.38528   0.50916   0.00000  Uiso   1.00
C282   C     0.87338   0.94441   0.75098   0.00000  Uiso   1.00
C283   C     0.87836   0.79983   0.75434   0.00000  Uiso   1.00
C284   C     0.82978   0.72309   0.72363   0.00000  Uiso   1.00
C285   C     0.76363   0.55178   0.68191   0.00000  Uiso   1.00
C286   C     0.92870   0.14204   0.84056   0.00000  Uiso   1.00
C287   C     0.98019   0.16361   0.91927   0.00000  Uiso   1.00
C288   C     0.97819   0.25324   0.96398   0.00000  Uiso   1.00
C289   C     0.99793   0.38878   0.06137   0.00000  Uiso   1.00
C290   C     0.82592   0.16909   0.72056   0.00000  Uiso   1.00
C291   C     0.84420   0.20682   0.67733   0.00000  Uiso   1.00
C292   C     0.81451   0.29575   0.61232   0.00000  Uiso   1.00
C293   C     0.83834   0.31677   0.58130   0.00000  Uiso   1.00
C294   C     0.82171   0.01001   0.71810   0.00000  Uiso   1.00
C295   C     0.77312   0.93346   0.68738   0.00000  Uiso   1.00
C296   C     0.77802   0.78881   0.69069   0.00000  Uiso   1.00
C297   C     0.87703   0.20765   0.80769   0.00000  Uiso   1.00
C298   C     0.87495   0.29725   0.85230   0.00000  Uiso   1.00
C299   C     0.92643   0.31896   0.93105   0.00000  Uiso   1.00
H300   H     0.96127   0.99722   0.80667   0.00000  Uiso   1.00
H301   H     0.95973   0.11132   0.70473   0.00000  Uiso   1.00
H302   H     0.91835   0.74909   0.77979   0.00000  Uiso   1.00
H303   H     0.02017   0.11283   0.94468   0.00000  Uiso   1.00
H304   H     0.93523   0.26670   0.57719   0.00000  Uiso   1.00
H305   H     0.84798   0.50294   0.73549   0.00000  Uiso   1.00
H306   H     0.06268   0.26993   0.08320   0.00000  Uiso   1.00
H307   H     0.78570   0.22016   0.69496   0.00000  Uiso   1.00
H308   H     0.77453   0.34650   0.58689   0.00000  Uiso   1.00
H309   H     0.73314   0.98427   0.66195   0.00000  Uiso   1.00
H310   H     0.83496   0.34800   0.82685   0.00000  Uiso   1.00
H311   H     0.78491   0.45758   0.48155   0.00000  Uiso   1.00
H312   H     0.69766   0.69381   0.63985   0.00000  Uiso   1.00
H313   H     0.91236   0.46080   0.98756   0.00000  Uiso   1.00
O314   O     0.85588   0.44119   0.46028   0.00000  Uiso   1.00
O315   O     0.74141   0.43916   0.66798   0.00000  Uiso   1.00
O316   O     0.02310   0.44544   0.12416   0.00000  Uiso   1.00
N317   N     0.90139   0.29431   0.56952   0.00000  Uiso   1.00
N318   N     0.81981   0.58023   0.71751   0.00000  Uiso   1.00
N319   N     0.02054   0.29728   0.04260   0.00000  Uiso   1.00
N320   N     0.82051   0.39702   0.51806   0.00000  Uiso   1.00
N321   N     0.73893   0.68294   0.66605   0.00000  Uiso   1.00
N322   N     0.93965   0.39999   0.99114   0.00000  Uiso   1.00
C323   C     0.42105   0.54831   0.78107   0.00000  Uiso   1.00
C324   C     0.39587   0.64122   0.71020   0.00000  Uiso   1.00
C325   C     0.41975   0.66212   0.67927   0.00000  Uiso   1.00
C326   C     0.39010   0.75105   0.61423   0.00000  Uiso   1.00
C327   C     0.35885   0.88528   0.50916   0.00000  Uiso   1.00
C328   C     0.37338   0.44441   0.75098   0.00000  Uiso   1.00
C329   C     0.37836   0.29983   0.75434   0.00000  Uiso   1.00
C330   C     0.32978   0.22309   0.72363   0.00000  Uiso   1.00
C331   C     0.26363   0.05178   0.68191   0.00000  Uiso   1.00
C332   C     0.42870   0.64204   0.84056   0.00000  Uiso   1.00
C333   C     0.48019   0.66361   0.91927   0.00000  Uiso   1.00
C334   C     0.47819   0.75324   0.96398   0.00000  Uiso   1.00
C335   C     0.49793   0.88878   0.06137   0.00000  Uiso   1.00
C336   C     0.32592   0.66909   0.72056   0.00000  Uiso   1.00
C337   C     0.34420   0.70682   0.67733   0.00000  Uiso   1.00
C338   C     0.31451   0.79575   0.61232   0.00000  Uiso   1.00
C339   C     0.33834   0.81677   0.58130   0.00000  Uiso   1.00
C340   C     0.32171   0.51001   0.71810   0.00000  Uiso   1.00
C341   C     0.27312   0.43346   0.68738   0.00000  Uiso   1.00
C342   C     0.27802   0.28881   0.69069   0.00000  Uiso   1.00
C343   C     0.37703   0.70765   0.80769   0.00000  Uiso   1.00
C344   C     0.37495   0.79725   0.85230   0.00000  Uiso   1.00
C345   C     0.42643   0.81896   0.93105   0.00000  Uiso   1.00
H346   H     0.46127   0.49722   0.80667   0.00000  Uiso   1.00
H347   H     0.45973   0.61132   0.70473   0.00000  Uiso   1.00
H348   H     0.41835   0.24909   0.77979   0.00000  Uiso   1.00
H349   H     0.52017   0.61283   0.94468   0.00000  Uiso   1.00
H350   H     0.43523   0.76670   0.57719   0.00000  Uiso   1.00
H351   H     0.34798   0.00294   0.73549   0.00000  Uiso   1.00
H352   H     0.56268   0.76993   0.08320   0.00000  Uiso   1.00
H353   H     0.28570   0.72016   0.69496   0.00000  Uiso   1.00
H354   H     0.27453   0.84650   0.58689   0.00000  Uiso   1.00
H355   H     0.23314   0.48427   0.66195   0.00000  Uiso   1.00
H356   H     0.33496   0.84800   0.82685   0.00000  Uiso   1.00
H357   H     0.28491   0.95758   0.48155   0.00000  Uiso   1.00
H358   H     0.19766   0.19381   0.63985   0.00000  Uiso   1.00
H359   H     0.41236   0.96080   0.98756   0.00000  Uiso   1.00
O360   O     0.35588   0.94119   0.46028   0.00000  Uiso   1.00
O361   O     0.24141   0.93916   0.66798   0.00000  Uiso   1.00
O362   O     0.52310   0.94544   0.12416   0.00000  Uiso   1.00
N363   N     0.40139   0.79431   0.56952   0.00000  Uiso   1.00
N364   N     0.31981   0.08023   0.71751   0.00000  Uiso   1.00
N365   N     0.52054   0.79728   0.04260   0.00000  Uiso   1.00
N366   N     0.32051   0.89702   0.51806   0.00000  Uiso   1.00
N367   N     0.23893   0.18294   0.66605   0.00000  Uiso   1.00
N368   N     0.43965   0.89999   0.99114   0.00000  Uiso   1.00
