data_job_05878
_audit_creation_date              2018-12-19
_audit_creation_method            'Materials Studio'
_symmetry_space_group_name_H-M    'P1'
_symmetry_Int_Tables_number       1
_symmetry_cell_setting            triclinic
loop_
_symmetry_equiv_pos_as_xyz
  x,y,z
_cell_length_a                    19.2413
_cell_length_b                    12.4541
_cell_length_c                    27.8093
_cell_angle_alpha                 90.0000
_cell_angle_beta                  147.5565
_cell_angle_gamma                 90.0000
loop_
_atom_site_label
_atom_site_type_symbol
_atom_site_fract_x
_atom_site_fract_y
_atom_site_fract_z
_atom_site_U_iso_or_equiv
_atom_site_adp_type
_atom_site_occupancy
C1     C     0.10287   0.08377   0.74900   0.00000  Uiso   1.00
C2     C     0.95528   0.07896   0.66169   0.00000  Uiso   1.00
C3     C     0.87348   0.10138   0.65222   0.00000  Uiso   1.00
C4     C     0.74130   0.09235   0.56673   0.00000  Uiso   1.00
C5     C     0.51952   0.08946   0.44231   0.00000  Uiso   1.00
C6     C     0.14984   0.97309   0.76074   0.00000  Uiso   1.00
C7     C     0.23163   0.90650   0.83457   0.00000  Uiso   1.00
C8     C     0.26324   0.80836   0.83246   0.00000  Uiso   1.00
C9     C     0.34358   0.64113   0.86185   0.00000  Uiso   1.00
C10    C     0.14231   0.16093   0.73206   0.00000  Uiso   1.00
C11    C     0.21781   0.25227   0.78179   0.00000  Uiso   1.00
C12    C     0.24311   0.31227   0.75555   0.00000  Uiso   1.00
C13    C     0.31177   0.43670   0.74041   0.00000  Uiso   1.00
C14    C     0.01361   0.02787   0.61399   0.00000  Uiso   1.00
C15    C     0.90680   0.04860   0.58835   0.00000  Uiso   1.00
C16    C     0.77472   0.03954   0.50285   0.00000  Uiso   1.00
C17    C     0.69273   0.06194   0.49326   0.00000  Uiso   1.00
C18    C     0.10136   0.94273   0.68741   0.00000  Uiso   1.00
C19    C     0.13287   0.84466   0.68519   0.00000  Uiso   1.00
C20    C     0.21467   0.77794   0.75899   0.00000  Uiso   1.00
C21    C     0.09383   0.13057   0.65872   0.00000  Uiso   1.00
C22    C     0.11904   0.19043   0.63241   0.00000  Uiso   1.00
C23    C     0.19454   0.28185   0.68208   0.00000  Uiso   1.00
H24    H     0.14062   0.10739   0.80610   0.00000  Uiso   1.00
H25    H     0.91104   0.12486   0.70900   0.00000  Uiso   1.00
H26    H     0.26914   0.93002   0.89131   0.00000  Uiso   1.00
H27    H     0.25531   0.27574   0.83854   0.00000  Uiso   1.00
H28    H     0.63512   0.13080   0.56900   0.00000  Uiso   1.00
H29    H     0.39023   0.71999   0.95344   0.00000  Uiso   1.00
H30    H     0.36108   0.44900   0.84216   0.00000  Uiso   1.00
H31    H     0.97586   0.00423   0.55689   0.00000  Uiso   1.00
H32    H     0.73723   0.01604   0.44611   0.00000  Uiso   1.00
H33    H     0.09533   0.82120   0.62843   0.00000  Uiso   1.00
H34    H     0.08150   0.16692   0.57565   0.00000  Uiso   1.00
H35    H     0.49405   0.04247   0.35564   0.00000  Uiso   1.00
H36    H     0.24917   0.63166   0.74008   0.00000  Uiso   1.00
H37    H     0.22001   0.36068   0.62879   0.00000  Uiso   1.00
O38    O     0.41058   0.09623   0.39395   0.00000  Uiso   1.00
O39    O     0.40128   0.55727   0.89832   0.00000  Uiso   1.00
O40    O     0.36302   0.51372   0.75232   0.00000  Uiso   1.00
N41    N     0.63467   0.10841   0.53399   0.00000  Uiso   1.00
N42    N     0.34064   0.72432   0.89341   0.00000  Uiso   1.00
N43    N     0.31341   0.40587   0.78938   0.00000  Uiso   1.00
N44    N     0.55876   0.06089   0.41918   0.00000  Uiso   1.00
N45    N     0.26473   0.67679   0.77860   0.00000  Uiso   1.00
N46    N     0.23750   0.35835   0.67457   0.00000  Uiso   1.00
C47    C     0.60287   0.58377   0.74900   0.00000  Uiso   1.00
C48    C     0.45528   0.57896   0.66169   0.00000  Uiso   1.00
C49    C     0.37348   0.60138   0.65222   0.00000  Uiso   1.00
C50    C     0.24130   0.59235   0.56673   0.00000  Uiso   1.00
C51    C     0.01952   0.58946   0.44231   0.00000  Uiso   1.00
C52    C     0.64984   0.47309   0.76074   0.00000  Uiso   1.00
C53    C     0.73163   0.40650   0.83457   0.00000  Uiso   1.00
C54    C     0.76324   0.30836   0.83246   0.00000  Uiso   1.00
C55    C     0.84358   0.14113   0.86185   0.00000  Uiso   1.00
C56    C     0.64231   0.66093   0.73206   0.00000  Uiso   1.00
C57    C     0.71781   0.75227   0.78179   0.00000  Uiso   1.00
C58    C     0.74311   0.81227   0.75555   0.00000  Uiso   1.00
C59    C     0.81177   0.93670   0.74041   0.00000  Uiso   1.00
C60    C     0.51361   0.52787   0.61399   0.00000  Uiso   1.00
C61    C     0.40680   0.54860   0.58835   0.00000  Uiso   1.00
C62    C     0.27472   0.53954   0.50285   0.00000  Uiso   1.00
C63    C     0.19273   0.56194   0.49326   0.00000  Uiso   1.00
C64    C     0.60136   0.44273   0.68741   0.00000  Uiso   1.00
C65    C     0.63287   0.34466   0.68519   0.00000  Uiso   1.00
C66    C     0.71467   0.27794   0.75899   0.00000  Uiso   1.00
C67    C     0.59383   0.63057   0.65872   0.00000  Uiso   1.00
C68    C     0.61904   0.69043   0.63241   0.00000  Uiso   1.00
C69    C     0.69454   0.78185   0.68208   0.00000  Uiso   1.00
H70    H     0.64062   0.60739   0.80610   0.00000  Uiso   1.00
H71    H     0.41104   0.62486   0.70900   0.00000  Uiso   1.00
H72    H     0.76914   0.43002   0.89131   0.00000  Uiso   1.00
H73    H     0.75531   0.77574   0.83854   0.00000  Uiso   1.00
H74    H     0.13512   0.63080   0.56900   0.00000  Uiso   1.00
H75    H     0.89023   0.21999   0.95344   0.00000  Uiso   1.00
H76    H     0.86108   0.94900   0.84216   0.00000  Uiso   1.00
H77    H     0.47586   0.50423   0.55689   0.00000  Uiso   1.00
H78    H     0.23723   0.51604   0.44611   0.00000  Uiso   1.00
H79    H     0.59533   0.32120   0.62843   0.00000  Uiso   1.00
H80    H     0.58150   0.66692   0.57565   0.00000  Uiso   1.00
H81    H     0.99405   0.54247   0.35564   0.00000  Uiso   1.00
H82    H     0.74917   0.13166   0.74008   0.00000  Uiso   1.00
H83    H     0.72001   0.86068   0.62879   0.00000  Uiso   1.00
O84    O     0.91058   0.59623   0.39395   0.00000  Uiso   1.00
O85    O     0.90128   0.05727   0.89832   0.00000  Uiso   1.00
O86    O     0.86302   0.01372   0.75232   0.00000  Uiso   1.00
N87    N     0.13467   0.60841   0.53399   0.00000  Uiso   1.00
N88    N     0.84064   0.22432   0.89341   0.00000  Uiso   1.00
N89    N     0.81341   0.90587   0.78938   0.00000  Uiso   1.00
N90    N     0.05876   0.56089   0.41918   0.00000  Uiso   1.00
N91    N     0.76473   0.17679   0.77860   0.00000  Uiso   1.00
N92    N     0.73750   0.85835   0.67457   0.00000  Uiso   1.00
C93    C     0.89713   0.08377   0.25100   0.00000  Uiso   1.00
C94    C     0.04472   0.07896   0.33831   0.00000  Uiso   1.00
C95    C     0.12652   0.10138   0.34778   0.00000  Uiso   1.00
C96    C     0.25870   0.09235   0.43327   0.00000  Uiso   1.00
C97    C     0.48048   0.08946   0.55769   0.00000  Uiso   1.00
C98    C     0.85016   0.97309   0.23926   0.00000  Uiso   1.00
C99    C     0.76837   0.90650   0.16543   0.00000  Uiso   1.00
C100   C     0.73676   0.80836   0.16754   0.00000  Uiso   1.00
C101   C     0.65642   0.64113   0.13815   0.00000  Uiso   1.00
C102   C     0.85769   0.16093   0.26794   0.00000  Uiso   1.00
C103   C     0.78219   0.25227   0.21821   0.00000  Uiso   1.00
C104   C     0.75689   0.31227   0.24445   0.00000  Uiso   1.00
C105   C     0.68823   0.43670   0.25959   0.00000  Uiso   1.00
C106   C     0.98639   0.02787   0.38601   0.00000  Uiso   1.00
C107   C     0.09320   0.04860   0.41165   0.00000  Uiso   1.00
C108   C     0.22528   0.03954   0.49715   0.00000  Uiso   1.00
C109   C     0.30727   0.06194   0.50674   0.00000  Uiso   1.00
C110   C     0.89864   0.94273   0.31259   0.00000  Uiso   1.00
C111   C     0.86713   0.84466   0.31481   0.00000  Uiso   1.00
C112   C     0.78533   0.77794   0.24101   0.00000  Uiso   1.00
C113   C     0.90617   0.13057   0.34128   0.00000  Uiso   1.00
C114   C     0.88096   0.19043   0.36759   0.00000  Uiso   1.00
C115   C     0.80546   0.28185   0.31792   0.00000  Uiso   1.00
H116   H     0.85938   0.10739   0.19390   0.00000  Uiso   1.00
H117   H     0.08896   0.12486   0.29100   0.00000  Uiso   1.00
H118   H     0.73086   0.93002   0.10869   0.00000  Uiso   1.00
H119   H     0.74469   0.27574   0.16146   0.00000  Uiso   1.00
H120   H     0.36488   0.13080   0.43100   0.00000  Uiso   1.00
H121   H     0.60977   0.71999   0.04656   0.00000  Uiso   1.00
H122   H     0.63892   0.44900   0.15784   0.00000  Uiso   1.00
H123   H     0.02414   0.00423   0.44311   0.00000  Uiso   1.00
H124   H     0.26277   0.01604   0.55389   0.00000  Uiso   1.00
H125   H     0.90467   0.82120   0.37157   0.00000  Uiso   1.00
H126   H     0.91850   0.16692   0.42435   0.00000  Uiso   1.00
H127   H     0.50595   0.04247   0.64436   0.00000  Uiso   1.00
H128   H     0.75083   0.63166   0.25992   0.00000  Uiso   1.00
H129   H     0.77999   0.36068   0.37121   0.00000  Uiso   1.00
O130   O     0.58942   0.09623   0.60605   0.00000  Uiso   1.00
O131   O     0.59872   0.55727   0.10168   0.00000  Uiso   1.00
O132   O     0.63698   0.51372   0.24768   0.00000  Uiso   1.00
N133   N     0.36533   0.10841   0.46601   0.00000  Uiso   1.00
N134   N     0.65936   0.72432   0.10659   0.00000  Uiso   1.00
N135   N     0.68659   0.40587   0.21062   0.00000  Uiso   1.00
N136   N     0.44124   0.06089   0.58082   0.00000  Uiso   1.00
N137   N     0.73527   0.67679   0.22140   0.00000  Uiso   1.00
N138   N     0.76250   0.35835   0.32543   0.00000  Uiso   1.00
C139   C     0.39713   0.58377   0.25100   0.00000  Uiso   1.00
C140   C     0.54472   0.57896   0.33831   0.00000  Uiso   1.00
C141   C     0.62652   0.60138   0.34778   0.00000  Uiso   1.00
C142   C     0.75870   0.59235   0.43327   0.00000  Uiso   1.00
C143   C     0.98048   0.58946   0.55769   0.00000  Uiso   1.00
C144   C     0.35016   0.47309   0.23926   0.00000  Uiso   1.00
C145   C     0.26837   0.40650   0.16543   0.00000  Uiso   1.00
C146   C     0.23676   0.30836   0.16754   0.00000  Uiso   1.00
C147   C     0.15642   0.14113   0.13815   0.00000  Uiso   1.00
C148   C     0.35769   0.66093   0.26794   0.00000  Uiso   1.00
C149   C     0.28219   0.75227   0.21821   0.00000  Uiso   1.00
C150   C     0.25689   0.81227   0.24445   0.00000  Uiso   1.00
C151   C     0.18823   0.93670   0.25959   0.00000  Uiso   1.00
C152   C     0.48639   0.52787   0.38601   0.00000  Uiso   1.00
C153   C     0.59320   0.54860   0.41165   0.00000  Uiso   1.00
C154   C     0.72528   0.53954   0.49715   0.00000  Uiso   1.00
C155   C     0.80727   0.56194   0.50674   0.00000  Uiso   1.00
C156   C     0.39864   0.44273   0.31259   0.00000  Uiso   1.00
C157   C     0.36713   0.34466   0.31481   0.00000  Uiso   1.00
C158   C     0.28533   0.27794   0.24101   0.00000  Uiso   1.00
C159   C     0.40617   0.63057   0.34128   0.00000  Uiso   1.00
C160   C     0.38096   0.69043   0.36759   0.00000  Uiso   1.00
C161   C     0.30546   0.78185   0.31792   0.00000  Uiso   1.00
H162   H     0.35938   0.60739   0.19390   0.00000  Uiso   1.00
H163   H     0.58896   0.62486   0.29100   0.00000  Uiso   1.00
H164   H     0.23086   0.43002   0.10869   0.00000  Uiso   1.00
H165   H     0.24469   0.77574   0.16146   0.00000  Uiso   1.00
H166   H     0.86488   0.63080   0.43100   0.00000  Uiso   1.00
H167   H     0.10977   0.21999   0.04656   0.00000  Uiso   1.00
H168   H     0.13892   0.94900   0.15784   0.00000  Uiso   1.00
H169   H     0.52414   0.50423   0.44311   0.00000  Uiso   1.00
H170   H     0.76277   0.51604   0.55389   0.00000  Uiso   1.00
H171   H     0.40467   0.32120   0.37157   0.00000  Uiso   1.00
H172   H     0.41850   0.66692   0.42435   0.00000  Uiso   1.00
H173   H     0.00595   0.54247   0.64436   0.00000  Uiso   1.00
H174   H     0.25083   0.13166   0.25992   0.00000  Uiso   1.00
H175   H     0.27999   0.86068   0.37121   0.00000  Uiso   1.00
O176   O     0.08942   0.59623   0.60605   0.00000  Uiso   1.00
O177   O     0.09872   0.05727   0.10168   0.00000  Uiso   1.00
O178   O     0.13698   0.01372   0.24768   0.00000  Uiso   1.00
N179   N     0.86533   0.60841   0.46601   0.00000  Uiso   1.00
N180   N     0.15936   0.22432   0.10659   0.00000  Uiso   1.00
N181   N     0.18659   0.90587   0.21062   0.00000  Uiso   1.00
N182   N     0.94124   0.56089   0.58082   0.00000  Uiso   1.00
N183   N     0.23527   0.17679   0.22140   0.00000  Uiso   1.00
N184   N     0.26250   0.85835   0.32543   0.00000  Uiso   1.00
