data_job_05975
_audit_creation_date              2018-12-19
_audit_creation_method            'Materials Studio'
_symmetry_space_group_name_H-M    'P1'
_symmetry_Int_Tables_number       1
_symmetry_cell_setting            triclinic
loop_
_symmetry_equiv_pos_as_xyz
  x,y,z
_cell_length_a                    16.0203
_cell_length_b                    15.9762
_cell_length_c                    15.9113
_cell_angle_alpha                 99.6114
_cell_angle_beta                  99.3141
_cell_angle_gamma                 98.9405
loop_
_atom_site_label
_atom_site_type_symbol
_atom_site_fract_x
_atom_site_fract_y
_atom_site_fract_z
_atom_site_U_iso_or_equiv
_atom_site_adp_type
_atom_site_occupancy
C1     C     0.37454   0.88622   0.87057   0.00000  Uiso   1.00
C2     C     0.30693   0.85955   0.78695   0.00000  Uiso   1.00
C3     C     0.30551   0.89836   0.71507   0.00000  Uiso   1.00
C4     C     0.23820   0.86444   0.64498   0.00000  Uiso   1.00
C5     C     0.14287   0.83374   0.51489   0.00000  Uiso   1.00
C6     C     0.32530   0.90488   0.94385   0.00000  Uiso   1.00
C7     C     0.33934   0.98181   0.00389   0.00000  Uiso   1.00
C8     C     0.28749   0.98604   0.06588   0.00000  Uiso   1.00
C9     C     0.22072   0.02570   0.17941   0.00000  Uiso   1.00
C10    C     0.41119   0.80564   0.88320   0.00000  Uiso   1.00
C11    C     0.49744   0.79913   0.89226   0.00000  Uiso   1.00
C12    C     0.51791   0.71981   0.90321   0.00000  Uiso   1.00
C13    C     0.58449   0.60539   0.92257   0.00000  Uiso   1.00
C14    C     0.25753   0.75695   0.87391   0.00000  Uiso   1.00
C15    C     0.24338   0.78934   0.78878   0.00000  Uiso   1.00
C16    C     0.17605   0.75534   0.71877   0.00000  Uiso   1.00
C17    C     0.17453   0.79410   0.64680   0.00000  Uiso   1.00
C18    C     0.26175   0.83468   0.94567   0.00000  Uiso   1.00
C19    C     0.20987   0.83879   0.00759   0.00000  Uiso   1.00
C20    C     0.22382   0.91571   0.06770   0.00000  Uiso   1.00
C21    C     0.34763   0.73543   0.88501   0.00000  Uiso   1.00
C22    C     0.36797   0.65611   0.89596   0.00000  Uiso   1.00
C23    C     0.45423   0.64948   0.90503   0.00000  Uiso   1.00
H24    H     0.42402   0.94088   0.86916   0.00000  Uiso   1.00
H25    H     0.35471   0.95270   0.71369   0.00000  Uiso   1.00
H26    H     0.38853   0.03613   0.00247   0.00000  Uiso   1.00
H27    H     0.54661   0.85348   0.89085   0.00000  Uiso   1.00
H28    H     0.24981   0.93486   0.54215   0.00000  Uiso   1.00
H29    H     0.32116   0.11077   0.15107   0.00000  Uiso   1.00
H30    H     0.65449   0.72561   0.91571   0.00000  Uiso   1.00
H31    H     0.20804   0.70229   0.87533   0.00000  Uiso   1.00
H32    H     0.12687   0.70101   0.72020   0.00000  Uiso   1.00
H33    H     0.16070   0.78445   0.00898   0.00000  Uiso   1.00
H34    H     0.31877   0.60179   0.89736   0.00000  Uiso   1.00
H35    H     0.06489   0.73058   0.54743   0.00000  Uiso   1.00
H36    H     0.13624   0.90649   0.15636   0.00000  Uiso   1.00
H37    H     0.46956   0.52133   0.92099   0.00000  Uiso   1.00
O38    O     0.10783   0.83620   0.44264   0.00000  Uiso   1.00
O39    O     0.20145   0.06698   0.24153   0.00000  Uiso   1.00
O40    O     0.63877   0.56167   0.93273   0.00000  Uiso   1.00
N41    N     0.21744   0.88695   0.56467   0.00000  Uiso   1.00
N42    N     0.28413   0.05142   0.13397   0.00000  Uiso   1.00
N43    N     0.59577   0.69133   0.91395   0.00000  Uiso   1.00
N44    N     0.11793   0.77703   0.56751   0.00000  Uiso   1.00
N45    N     0.18463   0.94150   0.13681   0.00000  Uiso   1.00
N46    N     0.49627   0.58141   0.91679   0.00000  Uiso   1.00
C47    C     0.87048   0.37473   0.88644   0.00000  Uiso   1.00
C48    C     0.78775   0.30705   0.85953   0.00000  Uiso   1.00
C49    C     0.71636   0.30610   0.89874   0.00000  Uiso   1.00
C50    C     0.64706   0.23863   0.86450   0.00000  Uiso   1.00
C51    C     0.51829   0.14328   0.83353   0.00000  Uiso   1.00
C52    C     0.94328   0.32517   0.90470   0.00000  Uiso   1.00
C53    C     0.00267   0.33946   0.98188   0.00000  Uiso   1.00
C54    C     0.06429   0.28725   0.98566   0.00000  Uiso   1.00
C55    C     0.17703   0.22008   0.02480   0.00000  Uiso   1.00
C56    C     0.88307   0.41100   0.80565   0.00000  Uiso   1.00
C57    C     0.89186   0.49746   0.79955   0.00000  Uiso   1.00
C58    C     0.90281   0.51751   0.71994   0.00000  Uiso   1.00
C59    C     0.92206   0.58360   0.60529   0.00000  Uiso   1.00
C60    C     0.87434   0.25659   0.75592   0.00000  Uiso   1.00
C61    C     0.78984   0.24289   0.78864   0.00000  Uiso   1.00
C62    C     0.72063   0.17540   0.75433   0.00000  Uiso   1.00
C63    C     0.64915   0.17435   0.79348   0.00000  Uiso   1.00
C64    C     0.94537   0.26101   0.83381   0.00000  Uiso   1.00
C65    C     0.00693   0.20876   0.83748   0.00000  Uiso   1.00
C66    C     0.06639   0.22297   0.91464   0.00000  Uiso   1.00
C67    C     0.88516   0.34683   0.73475   0.00000  Uiso   1.00
C68    C     0.89611   0.36676   0.65514   0.00000  Uiso   1.00
C69    C     0.90491   0.45323   0.64892   0.00000  Uiso   1.00
H70    H     0.86886   0.42468   0.94164   0.00000  Uiso   1.00
H71    H     0.71477   0.35576   0.95361   0.00000  Uiso   1.00
H72    H     0.00104   0.38913   0.03673   0.00000  Uiso   1.00
H73    H     0.89023   0.54710   0.85443   0.00000  Uiso   1.00
H74    H     0.54487   0.25104   0.93563   0.00000  Uiso   1.00
H75    H     0.14850   0.32141   0.11089   0.00000  Uiso   1.00
H76    H     0.91486   0.65452   0.72648   0.00000  Uiso   1.00
H77    H     0.87597   0.20664   0.70072   0.00000  Uiso   1.00
H78    H     0.72226   0.12575   0.69947   0.00000  Uiso   1.00
H79    H     0.00853   0.15912   0.78260   0.00000  Uiso   1.00
H80    H     0.89773   0.31709   0.60030   0.00000  Uiso   1.00
H81    H     0.55096   0.06435   0.72937   0.00000  Uiso   1.00
H82    H     0.15459   0.13473   0.90463   0.00000  Uiso   1.00
H83    H     0.92094   0.46784   0.52021   0.00000  Uiso   1.00
O84    O     0.44669   0.10841   0.83604   0.00000  Uiso   1.00
O85    O     0.23863   0.20075   0.06597   0.00000  Uiso   1.00
O86    O     0.93209   0.63778   0.56163   0.00000  Uiso   1.00
N87    N     0.56739   0.21821   0.88725   0.00000  Uiso   1.00
N88    N     0.13174   0.28400   0.05111   0.00000  Uiso   1.00
N89    N     0.91332   0.59543   0.69172   0.00000  Uiso   1.00
N90    N     0.57066   0.11776   0.77626   0.00000  Uiso   1.00
N91    N     0.13501   0.18354   0.94013   0.00000  Uiso   1.00
N92    N     0.91660   0.49498   0.58073   0.00000  Uiso   1.00
C93    C     0.88680   0.87043   0.37387   0.00000  Uiso   1.00
C94    C     0.86044   0.78715   0.30550   0.00000  Uiso   1.00
C95    C     0.89952   0.71538   0.30404   0.00000  Uiso   1.00
C96    C     0.86586   0.64560   0.23597   0.00000  Uiso   1.00
C97    C     0.83563   0.51599   0.13957   0.00000  Uiso   1.00
C98    C     0.90483   0.94312   0.32442   0.00000  Uiso   1.00
C99    C     0.98123   0.00251   0.33887   0.00000  Uiso   1.00
C100   C     0.98492   0.06403   0.28674   0.00000  Uiso   1.00
C101   C     0.02358   0.17662   0.21975   0.00000  Uiso   1.00
C102   C     0.80655   0.88355   0.41063   0.00000  Uiso   1.00
C103   C     0.80032   0.89288   0.49756   0.00000  Uiso   1.00
C104   C     0.72127   0.90427   0.51801   0.00000  Uiso   1.00
C105   C     0.60735   0.92436   0.58487   0.00000  Uiso   1.00
C106   C     0.75752   0.87411   0.25560   0.00000  Uiso   1.00
C107   C     0.79022   0.78915   0.24127   0.00000  Uiso   1.00
C108   C     0.75648   0.71945   0.17319   0.00000  Uiso   1.00
C109   C     0.79550   0.64759   0.17162   0.00000  Uiso   1.00
C110   C     0.83461   0.94512   0.26019   0.00000  Uiso   1.00
C111   C     0.83818   0.00658   0.20802   0.00000  Uiso   1.00
C112   C     0.91457   0.06604   0.22239   0.00000  Uiso   1.00
C113   C     0.73633   0.88555   0.34639   0.00000  Uiso   1.00
C114   C     0.65728   0.89694   0.36671   0.00000  Uiso   1.00
C115   C     0.65092   0.90627   0.45366   0.00000  Uiso   1.00
H116   H     0.94148   0.86888   0.42388   0.00000  Uiso   1.00
H117   H     0.95387   0.71387   0.35376   0.00000  Uiso   1.00
H118   H     0.03556   0.00095   0.38859   0.00000  Uiso   1.00
H119   H     0.85468   0.89133   0.54725   0.00000  Uiso   1.00
H120   H     0.93666   0.54289   0.24767   0.00000  Uiso   1.00
H121   H     0.10889   0.14825   0.32114   0.00000  Uiso   1.00
H122   H     0.72747   0.91709   0.65571   0.00000  Uiso   1.00
H123   H     0.70284   0.87567   0.20559   0.00000  Uiso   1.00
H124   H     0.70214   0.72101   0.12349   0.00000  Uiso   1.00
H125   H     0.78383   0.00811   0.15832   0.00000  Uiso   1.00
H126   H     0.60295   0.89848   0.31698   0.00000  Uiso   1.00
H127   H     0.73235   0.54870   0.06077   0.00000  Uiso   1.00
H128   H     0.90458   0.15406   0.13425   0.00000  Uiso   1.00
H129   H     0.52316   0.92290   0.46882   0.00000  Uiso   1.00
O130   O     0.83836   0.44395   0.10413   0.00000  Uiso   1.00
O131   O     0.06431   0.23816   0.20054   0.00000  Uiso   1.00
O132   O     0.56390   0.93488   0.63949   0.00000  Uiso   1.00
N133   N     0.88866   0.56547   0.21496   0.00000  Uiso   1.00
N134   N     0.04969   0.13144   0.28364   0.00000  Uiso   1.00
N135   N     0.69310   0.91535   0.59644   0.00000  Uiso   1.00
N136   N     0.77872   0.56860   0.11439   0.00000  Uiso   1.00
N137   N     0.93975   0.13456   0.18307   0.00000  Uiso   1.00
N138   N     0.58316   0.91847   0.49588   0.00000  Uiso   1.00
C139   C     0.62546   0.11378   0.12943   0.00000  Uiso   1.00
C140   C     0.69307   0.14045   0.21305   0.00000  Uiso   1.00
C141   C     0.69449   0.10164   0.28493   0.00000  Uiso   1.00
C142   C     0.76180   0.13556   0.35502   0.00000  Uiso   1.00
C143   C     0.85713   0.16626   0.48511   0.00000  Uiso   1.00
C144   C     0.67470   0.09512   0.05615   0.00000  Uiso   1.00
C145   C     0.66066   0.01819   0.99611   0.00000  Uiso   1.00
C146   C     0.71251   0.01396   0.93412   0.00000  Uiso   1.00
C147   C     0.77928   0.97429   0.82059   0.00000  Uiso   1.00
C148   C     0.58881   0.19436   0.11680   0.00000  Uiso   1.00
C149   C     0.50256   0.20087   0.10774   0.00000  Uiso   1.00
C150   C     0.48209   0.28019   0.09679   0.00000  Uiso   1.00
C151   C     0.41551   0.39461   0.07743   0.00000  Uiso   1.00
C152   C     0.74247   0.24305   0.12609   0.00000  Uiso   1.00
C153   C     0.75662   0.21066   0.21122   0.00000  Uiso   1.00
C154   C     0.82395   0.24466   0.28123   0.00000  Uiso   1.00
C155   C     0.82547   0.20590   0.35320   0.00000  Uiso   1.00
C156   C     0.73825   0.16532   0.05433   0.00000  Uiso   1.00
C157   C     0.79013   0.16121   0.99241   0.00000  Uiso   1.00
C158   C     0.77618   0.08429   0.93229   0.00000  Uiso   1.00
C159   C     0.65237   0.26457   0.11499   0.00000  Uiso   1.00
C160   C     0.63203   0.34389   0.10404   0.00000  Uiso   1.00
C161   C     0.54577   0.35052   0.09497   0.00000  Uiso   1.00
H162   H     0.57598   0.05912   0.13084   0.00000  Uiso   1.00
H163   H     0.64529   0.04730   0.28631   0.00000  Uiso   1.00
H164   H     0.61147   0.96387   0.99753   0.00000  Uiso   1.00
H165   H     0.45339   0.14652   0.10915   0.00000  Uiso   1.00
H166   H     0.75019   0.06514   0.45785   0.00000  Uiso   1.00
H167   H     0.67884   0.88923   0.84893   0.00000  Uiso   1.00
H168   H     0.34551   0.27439   0.08429   0.00000  Uiso   1.00
H169   H     0.79196   0.29771   0.12467   0.00000  Uiso   1.00
H170   H     0.87313   0.29899   0.27980   0.00000  Uiso   1.00
H171   H     0.83930   0.21555   0.99102   0.00000  Uiso   1.00
H172   H     0.68123   0.39821   0.10264   0.00000  Uiso   1.00
H173   H     0.93511   0.26942   0.45257   0.00000  Uiso   1.00
H174   H     0.86376   0.09351   0.84364   0.00000  Uiso   1.00
H175   H     0.53044   0.47867   0.07901   0.00000  Uiso   1.00
O176   O     0.89217   0.16380   0.55736   0.00000  Uiso   1.00
O177   O     0.79855   0.93302   0.75847   0.00000  Uiso   1.00
O178   O     0.36123   0.43833   0.06727   0.00000  Uiso   1.00
N179   N     0.78256   0.11305   0.43533   0.00000  Uiso   1.00
N180   N     0.71587   0.94858   0.86603   0.00000  Uiso   1.00
N181   N     0.40423   0.30867   0.08605   0.00000  Uiso   1.00
N182   N     0.88207   0.22297   0.43249   0.00000  Uiso   1.00
N183   N     0.81537   0.05850   0.86319   0.00000  Uiso   1.00
N184   N     0.50373   0.41859   0.08321   0.00000  Uiso   1.00
C185   C     0.12952   0.62527   0.11356   0.00000  Uiso   1.00
C186   C     0.21225   0.69295   0.14047   0.00000  Uiso   1.00
C187   C     0.28364   0.69390   0.10126   0.00000  Uiso   1.00
C188   C     0.35294   0.76137   0.13550   0.00000  Uiso   1.00
C189   C     0.48171   0.85672   0.16647   0.00000  Uiso   1.00
C190   C     0.05672   0.67483   0.09530   0.00000  Uiso   1.00
C191   C     0.99733   0.66054   0.01812   0.00000  Uiso   1.00
C192   C     0.93571   0.71275   0.01434   0.00000  Uiso   1.00
C193   C     0.82297   0.77992   0.97520   0.00000  Uiso   1.00
C194   C     0.11693   0.58900   0.19435   0.00000  Uiso   1.00
C195   C     0.10814   0.50254   0.20045   0.00000  Uiso   1.00
C196   C     0.09719   0.48249   0.28006   0.00000  Uiso   1.00
C197   C     0.07794   0.41640   0.39471   0.00000  Uiso   1.00
C198   C     0.12566   0.74341   0.24408   0.00000  Uiso   1.00
C199   C     0.21016   0.75711   0.21136   0.00000  Uiso   1.00
C200   C     0.27937   0.82460   0.24567   0.00000  Uiso   1.00
C201   C     0.35085   0.82565   0.20652   0.00000  Uiso   1.00
C202   C     0.05463   0.73899   0.16619   0.00000  Uiso   1.00
C203   C     0.99307   0.79124   0.16252   0.00000  Uiso   1.00
C204   C     0.93361   0.77703   0.08536   0.00000  Uiso   1.00
C205   C     0.11484   0.65317   0.26525   0.00000  Uiso   1.00
C206   C     0.10389   0.63324   0.34486   0.00000  Uiso   1.00
C207   C     0.09509   0.54677   0.35108   0.00000  Uiso   1.00
H208   H     0.13114   0.57532   0.05836   0.00000  Uiso   1.00
H209   H     0.28523   0.64424   0.04639   0.00000  Uiso   1.00
H210   H     0.99896   0.61087   0.96327   0.00000  Uiso   1.00
H211   H     0.10977   0.45290   0.14557   0.00000  Uiso   1.00
H212   H     0.45513   0.74896   0.06437   0.00000  Uiso   1.00
H213   H     0.85151   0.67859   0.88910   0.00000  Uiso   1.00
H214   H     0.08514   0.34548   0.27352   0.00000  Uiso   1.00
H215   H     0.12403   0.79336   0.29928   0.00000  Uiso   1.00
H216   H     0.27774   0.87425   0.30053   0.00000  Uiso   1.00
H217   H     0.99147   0.84088   0.21740   0.00000  Uiso   1.00
H218   H     0.10227   0.68291   0.39970   0.00000  Uiso   1.00
H219   H     0.44904   0.93565   0.27063   0.00000  Uiso   1.00
H220   H     0.84541   0.86527   0.09537   0.00000  Uiso   1.00
H221   H     0.07906   0.53216   0.47979   0.00000  Uiso   1.00
O222   O     0.55331   0.89159   0.16396   0.00000  Uiso   1.00
O223   O     0.76137   0.79925   0.93403   0.00000  Uiso   1.00
O224   O     0.06791   0.36222   0.43837   0.00000  Uiso   1.00
N225   N     0.43261   0.78178   0.11275   0.00000  Uiso   1.00
N226   N     0.86826   0.71600   0.94889   0.00000  Uiso   1.00
N227   N     0.08668   0.40457   0.30828   0.00000  Uiso   1.00
N228   N     0.42934   0.88224   0.22374   0.00000  Uiso   1.00
N229   N     0.86499   0.81646   0.05987   0.00000  Uiso   1.00
N230   N     0.08340   0.50502   0.41927   0.00000  Uiso   1.00
C231   C     0.11320   0.12957   0.62613   0.00000  Uiso   1.00
C232   C     0.13956   0.21285   0.69450   0.00000  Uiso   1.00
C233   C     0.10048   0.28462   0.69596   0.00000  Uiso   1.00
C234   C     0.13415   0.35440   0.76403   0.00000  Uiso   1.00
C235   C     0.16437   0.48401   0.86043   0.00000  Uiso   1.00
C236   C     0.09517   0.05688   0.67558   0.00000  Uiso   1.00
C237   C     0.01877   0.99749   0.66113   0.00000  Uiso   1.00
C238   C     0.01508   0.93597   0.71326   0.00000  Uiso   1.00
C239   C     0.97642   0.82338   0.78025   0.00000  Uiso   1.00
C240   C     0.19345   0.11645   0.58937   0.00000  Uiso   1.00
C241   C     0.19968   0.10712   0.50244   0.00000  Uiso   1.00
C242   C     0.27873   0.09573   0.48199   0.00000  Uiso   1.00
C243   C     0.39265   0.07564   0.41513   0.00000  Uiso   1.00
C244   C     0.24248   0.12589   0.74440   0.00000  Uiso   1.00
C245   C     0.20978   0.21085   0.75873   0.00000  Uiso   1.00
C246   C     0.24352   0.28055   0.82681   0.00000  Uiso   1.00
C247   C     0.20450   0.35241   0.82838   0.00000  Uiso   1.00
C248   C     0.16539   0.05488   0.73981   0.00000  Uiso   1.00
C249   C     0.16182   0.99342   0.79198   0.00000  Uiso   1.00
C250   C     0.08543   0.93396   0.77761   0.00000  Uiso   1.00
C251   C     0.26367   0.11445   0.65361   0.00000  Uiso   1.00
C252   C     0.34272   0.10306   0.63329   0.00000  Uiso   1.00
C253   C     0.34908   0.09373   0.54634   0.00000  Uiso   1.00
H254   H     0.05852   0.13112   0.57612   0.00000  Uiso   1.00
H255   H     0.04613   0.28613   0.64624   0.00000  Uiso   1.00
H256   H     0.96445   0.99905   0.61141   0.00000  Uiso   1.00
H257   H     0.14532   0.10867   0.45275   0.00000  Uiso   1.00
H258   H     0.06334   0.45711   0.75233   0.00000  Uiso   1.00
H259   H     0.89111   0.85175   0.67886   0.00000  Uiso   1.00
H260   H     0.27253   0.08291   0.34429   0.00000  Uiso   1.00
H261   H     0.29716   0.12433   0.79441   0.00000  Uiso   1.00
H262   H     0.29787   0.27899   0.87651   0.00000  Uiso   1.00
H263   H     0.21617   0.99189   0.84168   0.00000  Uiso   1.00
H264   H     0.39705   0.10152   0.68302   0.00000  Uiso   1.00
H265   H     0.26765   0.45130   0.93923   0.00000  Uiso   1.00
H266   H     0.09542   0.84594   0.86575   0.00000  Uiso   1.00
H267   H     0.47684   0.07710   0.53118   0.00000  Uiso   1.00
O268   O     0.16164   0.55605   0.89587   0.00000  Uiso   1.00
O269   O     0.93569   0.76184   0.79946   0.00000  Uiso   1.00
O270   O     0.43610   0.06512   0.36051   0.00000  Uiso   1.00
N271   N     0.11134   0.43453   0.78504   0.00000  Uiso   1.00
N272   N     0.95031   0.86856   0.71636   0.00000  Uiso   1.00
N273   N     0.30690   0.08465   0.40356   0.00000  Uiso   1.00
N274   N     0.22128   0.43140   0.88561   0.00000  Uiso   1.00
N275   N     0.06025   0.86544   0.81693   0.00000  Uiso   1.00
N276   N     0.41684   0.08153   0.50413   0.00000  Uiso   1.00
