data_job_03283
_audit_creation_date              2018-12-19
_audit_creation_method            'Materials Studio'
_symmetry_space_group_name_H-M    'P1'
_symmetry_Int_Tables_number       1
_symmetry_cell_setting            triclinic
loop_
_symmetry_equiv_pos_as_xyz
  x,y,z
_cell_length_a                    19.6572
_cell_length_b                    20.5998
_cell_length_c                    18.6290
_cell_angle_alpha                 90.0000
_cell_angle_beta                  148.6522
_cell_angle_gamma                 90.0000
loop_
_atom_site_label
_atom_site_type_symbol
_atom_site_fract_x
_atom_site_fract_y
_atom_site_fract_z
_atom_site_U_iso_or_equiv
_atom_site_adp_type
_atom_site_occupancy
C1     C     0.68749   0.80467   0.48325   0.00000  Uiso   1.00
C2     C     0.80783   0.83917   0.62139   0.00000  Uiso   1.00
C3     C     0.81065   0.87875   0.68419   0.00000  Uiso   1.00
C4     C     0.93040   0.90582   0.81047   0.00000  Uiso   1.00
C5     C     0.10008   0.96126   0.01563   0.00000  Uiso   1.00
C6     C     0.67444   0.82678   0.39370   0.00000  Uiso   1.00
C7     C     0.56509   0.85595   0.26504   0.00000  Uiso   1.00
C8     C     0.57254   0.87258   0.19964   0.00000  Uiso   1.00
C9     C     0.53509   0.90875   0.05125   0.00000  Uiso   1.00
C10    C     0.72251   0.73277   0.51183   0.00000  Uiso   1.00
C11    C     0.65356   0.68288   0.48247   0.00000  Uiso   1.00
C12    C     0.70147   0.62035   0.51651   0.00000  Uiso   1.00
C13    C     0.73865   0.51054   0.55155   0.00000  Uiso   1.00
C14    C     0.89514   0.78234   0.59586   0.00000  Uiso   1.00
C15    C     0.92062   0.82704   0.68255   0.00000  Uiso   1.00
C16    C     0.04039   0.85405   0.80878   0.00000  Uiso   1.00
C17    C     0.04339   0.89367   0.87176   0.00000  Uiso   1.00
C18    C     0.78722   0.81466   0.45486   0.00000  Uiso   1.00
C19    C     0.79483   0.83125   0.38963   0.00000  Uiso   1.00
C20    C     0.68553   0.86043   0.26092   0.00000  Uiso   1.00
C21    C     0.83530   0.72064   0.57300   0.00000  Uiso   1.00
C22    C     0.88331   0.65818   0.60708   0.00000  Uiso   1.00
C23    C     0.81445   0.60820   0.57778   0.00000  Uiso   1.00
H24    H     0.59968   0.81411   0.43562   0.00000  Uiso   1.00
H25    H     0.72334   0.88813   0.63681   0.00000  Uiso   1.00
H26    H     0.47782   0.86532   0.21773   0.00000  Uiso   1.00
H27    H     0.56629   0.69228   0.43514   0.00000  Uiso   1.00
H28    H     0.91017   0.96487   0.88682   0.00000  Uiso   1.00
H29    H     0.39246   0.91675   0.00313   0.00000  Uiso   1.00
H30    H     0.57900   0.55186   0.46158   0.00000  Uiso   1.00
H31    H     0.98295   0.77290   0.64348   0.00000  Uiso   1.00
H32    H     0.12766   0.84466   0.85609   0.00000  Uiso   1.00
H33    H     0.88212   0.82185   0.43699   0.00000  Uiso   1.00
H34    H     0.97059   0.64881   0.65441   0.00000  Uiso   1.00
H35    H     0.23833   0.92958   0.06479   0.00000  Uiso   1.00
H36    H     0.72060   0.88147   0.18109   0.00000  Uiso   1.00
H37    H     0.90715   0.51658   0.63955   0.00000  Uiso   1.00
O38    O     0.16251   0.99519   0.11189   0.00000  Uiso   1.00
O39    O     0.48328   0.93205   0.95251   0.00000  Uiso   1.00
O40    O     0.72802   0.45333   0.55399   0.00000  Uiso   1.00
N41    N     0.96755   0.94670   0.89954   0.00000  Uiso   1.00
N42    N     0.48352   0.90173   0.07335   0.00000  Uiso   1.00
N43    N     0.65790   0.56058   0.50193   0.00000  Uiso   1.00
N44    N     0.14413   0.92772   0.99531   0.00000  Uiso   1.00
N45    N     0.66010   0.88274   0.16912   0.00000  Uiso   1.00
N46    N     0.83448   0.54160   0.59769   0.00000  Uiso   1.00
C47    C     0.31251   0.30467   0.01675   0.00000  Uiso   1.00
C48    C     0.19217   0.33917   0.87861   0.00000  Uiso   1.00
C49    C     0.18935   0.37875   0.81581   0.00000  Uiso   1.00
C50    C     0.06960   0.40582   0.68953   0.00000  Uiso   1.00
C51    C     0.89992   0.46126   0.48437   0.00000  Uiso   1.00
C52    C     0.32556   0.32678   0.10630   0.00000  Uiso   1.00
C53    C     0.43491   0.35595   0.23496   0.00000  Uiso   1.00
C54    C     0.42746   0.37258   0.30036   0.00000  Uiso   1.00
C55    C     0.46491   0.40875   0.44875   0.00000  Uiso   1.00
C56    C     0.27749   0.23277   0.98817   0.00000  Uiso   1.00
C57    C     0.34644   0.18288   0.01753   0.00000  Uiso   1.00
C58    C     0.29853   0.12035   0.98349   0.00000  Uiso   1.00
C59    C     0.26135   0.01054   0.94845   0.00000  Uiso   1.00
C60    C     0.10486   0.28234   0.90414   0.00000  Uiso   1.00
C61    C     0.07938   0.32704   0.81745   0.00000  Uiso   1.00
C62    C     0.95961   0.35405   0.69122   0.00000  Uiso   1.00
C63    C     0.95661   0.39367   0.62824   0.00000  Uiso   1.00
C64    C     0.21278   0.31466   0.04514   0.00000  Uiso   1.00
C65    C     0.20517   0.33125   0.11037   0.00000  Uiso   1.00
C66    C     0.31447   0.36043   0.23908   0.00000  Uiso   1.00
C67    C     0.16470   0.22064   0.92700   0.00000  Uiso   1.00
C68    C     0.11669   0.15818   0.89292   0.00000  Uiso   1.00
C69    C     0.18555   0.10820   0.92222   0.00000  Uiso   1.00
H70    H     0.40032   0.31411   0.06438   0.00000  Uiso   1.00
H71    H     0.27666   0.38813   0.86319   0.00000  Uiso   1.00
H72    H     0.52218   0.36532   0.28227   0.00000  Uiso   1.00
H73    H     0.43371   0.19228   0.06486   0.00000  Uiso   1.00
H74    H     0.08983   0.46487   0.61318   0.00000  Uiso   1.00
H75    H     0.60754   0.41675   0.49687   0.00000  Uiso   1.00
H76    H     0.42100   0.05186   0.03842   0.00000  Uiso   1.00
H77    H     0.01705   0.27290   0.85652   0.00000  Uiso   1.00
H78    H     0.87234   0.34466   0.64391   0.00000  Uiso   1.00
H79    H     0.11788   0.32185   0.06301   0.00000  Uiso   1.00
H80    H     0.02941   0.14881   0.84559   0.00000  Uiso   1.00
H81    H     0.76167   0.42958   0.43521   0.00000  Uiso   1.00
H82    H     0.27940   0.38147   0.31891   0.00000  Uiso   1.00
H83    H     0.09285   0.01658   0.86045   0.00000  Uiso   1.00
O84    O     0.83749   0.49519   0.38811   0.00000  Uiso   1.00
O85    O     0.51672   0.43205   0.54749   0.00000  Uiso   1.00
O86    O     0.27198   0.95333   0.94601   0.00000  Uiso   1.00
N87    N     0.03245   0.44670   0.60046   0.00000  Uiso   1.00
N88    N     0.51648   0.40173   0.42665   0.00000  Uiso   1.00
N89    N     0.34210   0.06058   0.99807   0.00000  Uiso   1.00
N90    N     0.85587   0.42772   0.50469   0.00000  Uiso   1.00
N91    N     0.33990   0.38274   0.33088   0.00000  Uiso   1.00
N92    N     0.16552   0.04160   0.90231   0.00000  Uiso   1.00
C93    C     0.31251   0.19533   0.51675   0.00000  Uiso   1.00
C94    C     0.19217   0.16083   0.37861   0.00000  Uiso   1.00
C95    C     0.18935   0.12125   0.31581   0.00000  Uiso   1.00
C96    C     0.06960   0.09418   0.18953   0.00000  Uiso   1.00
C97    C     0.89992   0.03874   0.98437   0.00000  Uiso   1.00
C98    C     0.32556   0.17322   0.60630   0.00000  Uiso   1.00
C99    C     0.43491   0.14405   0.73496   0.00000  Uiso   1.00
C100   C     0.42746   0.12742   0.80036   0.00000  Uiso   1.00
C101   C     0.46491   0.09125   0.94875   0.00000  Uiso   1.00
C102   C     0.27749   0.26723   0.48817   0.00000  Uiso   1.00
C103   C     0.34644   0.31712   0.51753   0.00000  Uiso   1.00
C104   C     0.29853   0.37965   0.48349   0.00000  Uiso   1.00
C105   C     0.26135   0.48946   0.44845   0.00000  Uiso   1.00
C106   C     0.10486   0.21766   0.40414   0.00000  Uiso   1.00
C107   C     0.07938   0.17296   0.31745   0.00000  Uiso   1.00
C108   C     0.95961   0.14595   0.19122   0.00000  Uiso   1.00
C109   C     0.95661   0.10633   0.12824   0.00000  Uiso   1.00
C110   C     0.21278   0.18534   0.54514   0.00000  Uiso   1.00
C111   C     0.20517   0.16875   0.61037   0.00000  Uiso   1.00
C112   C     0.31447   0.13957   0.73908   0.00000  Uiso   1.00
C113   C     0.16470   0.27936   0.42700   0.00000  Uiso   1.00
C114   C     0.11669   0.34182   0.39292   0.00000  Uiso   1.00
C115   C     0.18555   0.39180   0.42222   0.00000  Uiso   1.00
H116   H     0.40032   0.18589   0.56438   0.00000  Uiso   1.00
H117   H     0.27666   0.11187   0.36319   0.00000  Uiso   1.00
H118   H     0.52218   0.13468   0.78227   0.00000  Uiso   1.00
H119   H     0.43371   0.30772   0.56486   0.00000  Uiso   1.00
H120   H     0.08983   0.03513   0.11318   0.00000  Uiso   1.00
H121   H     0.60754   0.08325   0.99687   0.00000  Uiso   1.00
H122   H     0.42100   0.44814   0.53842   0.00000  Uiso   1.00
H123   H     0.01705   0.22710   0.35652   0.00000  Uiso   1.00
H124   H     0.87234   0.15534   0.14391   0.00000  Uiso   1.00
H125   H     0.11788   0.17815   0.56301   0.00000  Uiso   1.00
H126   H     0.02941   0.35119   0.34559   0.00000  Uiso   1.00
H127   H     0.76167   0.07042   0.93521   0.00000  Uiso   1.00
H128   H     0.27940   0.11853   0.81891   0.00000  Uiso   1.00
H129   H     0.09285   0.48342   0.36045   0.00000  Uiso   1.00
O130   O     0.83749   0.00481   0.88811   0.00000  Uiso   1.00
O131   O     0.51672   0.06795   0.04749   0.00000  Uiso   1.00
O132   O     0.27198   0.54667   0.44601   0.00000  Uiso   1.00
N133   N     0.03245   0.05330   0.10046   0.00000  Uiso   1.00
N134   N     0.51648   0.09827   0.92665   0.00000  Uiso   1.00
N135   N     0.34210   0.43942   0.49807   0.00000  Uiso   1.00
N136   N     0.85587   0.07228   0.00469   0.00000  Uiso   1.00
N137   N     0.33990   0.11726   0.83088   0.00000  Uiso   1.00
N138   N     0.16552   0.45840   0.40231   0.00000  Uiso   1.00
C139   C     0.68749   0.69533   0.98325   0.00000  Uiso   1.00
C140   C     0.80783   0.66083   0.12139   0.00000  Uiso   1.00
C141   C     0.81065   0.62125   0.18419   0.00000  Uiso   1.00
C142   C     0.93040   0.59418   0.31047   0.00000  Uiso   1.00
C143   C     0.10008   0.53874   0.51563   0.00000  Uiso   1.00
C144   C     0.67444   0.67322   0.89370   0.00000  Uiso   1.00
C145   C     0.56509   0.64405   0.76504   0.00000  Uiso   1.00
C146   C     0.57254   0.62742   0.69964   0.00000  Uiso   1.00
C147   C     0.53509   0.59125   0.55125   0.00000  Uiso   1.00
C148   C     0.72251   0.76723   0.01183   0.00000  Uiso   1.00
C149   C     0.65356   0.81712   0.98247   0.00000  Uiso   1.00
C150   C     0.70147   0.87965   0.01651   0.00000  Uiso   1.00
C151   C     0.73865   0.98946   0.05155   0.00000  Uiso   1.00
C152   C     0.89514   0.71766   0.09586   0.00000  Uiso   1.00
C153   C     0.92062   0.67296   0.18255   0.00000  Uiso   1.00
C154   C     0.04039   0.64595   0.30878   0.00000  Uiso   1.00
C155   C     0.04339   0.60633   0.37176   0.00000  Uiso   1.00
C156   C     0.78722   0.68534   0.95486   0.00000  Uiso   1.00
C157   C     0.79483   0.66875   0.88963   0.00000  Uiso   1.00
C158   C     0.68553   0.63957   0.76092   0.00000  Uiso   1.00
C159   C     0.83530   0.77936   0.07300   0.00000  Uiso   1.00
C160   C     0.88331   0.84182   0.10708   0.00000  Uiso   1.00
C161   C     0.81445   0.89180   0.07778   0.00000  Uiso   1.00
H162   H     0.59968   0.68589   0.93562   0.00000  Uiso   1.00
H163   H     0.72334   0.61187   0.13681   0.00000  Uiso   1.00
H164   H     0.47782   0.63468   0.71773   0.00000  Uiso   1.00
H165   H     0.56629   0.80772   0.93514   0.00000  Uiso   1.00
H166   H     0.91017   0.53513   0.38682   0.00000  Uiso   1.00
H167   H     0.39246   0.58325   0.50313   0.00000  Uiso   1.00
H168   H     0.57900   0.94814   0.96158   0.00000  Uiso   1.00
H169   H     0.98295   0.72710   0.14348   0.00000  Uiso   1.00
H170   H     0.12766   0.65534   0.35609   0.00000  Uiso   1.00
H171   H     0.88212   0.67815   0.93699   0.00000  Uiso   1.00
H172   H     0.97059   0.85119   0.15441   0.00000  Uiso   1.00
H173   H     0.23833   0.57042   0.56479   0.00000  Uiso   1.00
H174   H     0.72060   0.61853   0.68109   0.00000  Uiso   1.00
H175   H     0.90715   0.98342   0.13955   0.00000  Uiso   1.00
O176   O     0.16251   0.50481   0.61189   0.00000  Uiso   1.00
O177   O     0.48328   0.56795   0.45251   0.00000  Uiso   1.00
O178   O     0.72802   0.04667   0.05399   0.00000  Uiso   1.00
N179   N     0.96755   0.55330   0.39954   0.00000  Uiso   1.00
N180   N     0.48352   0.59827   0.57335   0.00000  Uiso   1.00
N181   N     0.65790   0.93942   0.00193   0.00000  Uiso   1.00
N182   N     0.14413   0.57228   0.49531   0.00000  Uiso   1.00
N183   N     0.66010   0.61726   0.66912   0.00000  Uiso   1.00
N184   N     0.83448   0.95840   0.09769   0.00000  Uiso   1.00
