data_job_00933
_audit_creation_date              2018-12-19
_audit_creation_method            'Materials Studio'
_symmetry_space_group_name_H-M    'P1'
_symmetry_Int_Tables_number       1
_symmetry_cell_setting            triclinic
loop_
_symmetry_equiv_pos_as_xyz
  x,y,z
_cell_length_a                    8.8574
_cell_length_b                    11.9300
_cell_length_c                    13.8487
_cell_angle_alpha                 81.6516
_cell_angle_beta                  72.2455
_cell_angle_gamma                 72.0788
loop_
_atom_site_label
_atom_site_type_symbol
_atom_site_fract_x
_atom_site_fract_y
_atom_site_fract_z
_atom_site_U_iso_or_equiv
_atom_site_adp_type
_atom_site_occupancy
C1     C     0.21955   0.16686   0.22623   0.00000  Uiso   1.00
C2     C     0.29634   0.21261   0.11953   0.00000  Uiso   1.00
C3     C     0.28472   0.18137   0.02991   0.00000  Uiso   1.00
C4     C     0.36369   0.23293   0.94006   0.00000  Uiso   1.00
C5     C     0.46971   0.29177   0.77439   0.00000  Uiso   1.00
C6     C     0.36135   0.11309   0.27442   0.00000  Uiso   1.00
C7     C     0.40437   0.99819   0.31504   0.00000  Uiso   1.00
C8     C     0.53804   0.96599   0.35560   0.00000  Uiso   1.00
C9     C     0.74490   0.87034   0.43047   0.00000  Uiso   1.00
C10    C     0.11123   0.27570   0.28462   0.00000  Uiso   1.00
C11    C     0.94394   0.29750   0.33383   0.00000  Uiso   1.00
C12    C     0.86703   0.40219   0.38299   0.00000  Uiso   1.00
C13    C     0.68554   0.55902   0.47369   0.00000  Uiso   1.00
C14    C     0.38044   0.31399   0.22604   0.00000  Uiso   1.00
C15    C     0.38374   0.29252   0.11943   0.00000  Uiso   1.00
C16    C     0.46273   0.34415   0.02969   0.00000  Uiso   1.00
C17    C     0.45123   0.31300   0.93995   0.00000  Uiso   1.00
C18    C     0.44874   0.19300   0.27432   0.00000  Uiso   1.00
C19    C     0.58237   0.16097   0.31483   0.00000  Uiso   1.00
C20    C     0.62559   0.04604   0.35549   0.00000  Uiso   1.00
C21    C     0.19861   0.35562   0.28451   0.00000  Uiso   1.00
C22    C     0.12195   0.46029   0.33361   0.00000  Uiso   1.00
C23    C     0.95458   0.48225   0.38289   0.00000  Uiso   1.00
H24    H     0.15152   0.10464   0.22632   0.00000  Uiso   1.00
H25    H     0.21709   0.11951   0.03002   0.00000  Uiso   1.00
H26    H     0.33670   0.93637   0.31512   0.00000  Uiso   1.00
H27    H     0.87636   0.23564   0.33390   0.00000  Uiso   1.00
H28    H     0.32839   0.17121   0.81233   0.00000  Uiso   1.00
H29    H     0.58056   0.78505   0.41352   0.00000  Uiso   1.00
H30    H     0.60982   0.41612   0.45312   0.00000  Uiso   1.00
H31    H     0.44848   0.37621   0.22597   0.00000  Uiso   1.00
H32    H     0.53035   0.40599   0.02964   0.00000  Uiso   1.00
H33    H     0.64997   0.22284   0.31474   0.00000  Uiso   1.00
H34    H     0.18962   0.52211   0.33352   0.00000  Uiso   1.00
H35    H     0.58265   0.40372   0.81202   0.00000  Uiso   1.00
H36    H     0.83481   0.01756   0.41322   0.00000  Uiso   1.00
H37    H     0.86408   0.64863   0.45281   0.00000  Uiso   1.00
O38    O     0.50406   0.30213   0.68303   0.00000  Uiso   1.00
O39    O     0.83487   0.79550   0.47178   0.00000  Uiso   1.00
O40    O     0.56129   0.62345   0.52373   0.00000  Uiso   1.00
N41    N     0.37696   0.22186   0.83920   0.00000  Uiso   1.00
N42    N     0.61274   0.86082   0.40126   0.00000  Uiso   1.00
N43    N     0.70519   0.45080   0.43831   0.00000  Uiso   1.00
N44    N     0.51378   0.34698   0.83904   0.00000  Uiso   1.00
N45    N     0.74956   0.98593   0.40110   0.00000  Uiso   1.00
N46    N     0.84201   0.57592   0.43814   0.00000  Uiso   1.00
C47    C     0.78045   0.83314   0.77377   0.00000  Uiso   1.00
C48    C     0.70366   0.78739   0.88047   0.00000  Uiso   1.00
C49    C     0.71528   0.81863   0.97009   0.00000  Uiso   1.00
C50    C     0.63631   0.76707   0.05994   0.00000  Uiso   1.00
C51    C     0.53029   0.70823   0.22561   0.00000  Uiso   1.00
C52    C     0.63865   0.88691   0.72558   0.00000  Uiso   1.00
C53    C     0.59563   0.00181   0.68496   0.00000  Uiso   1.00
C54    C     0.46196   0.03401   0.64440   0.00000  Uiso   1.00
C55    C     0.25510   0.12966   0.56953   0.00000  Uiso   1.00
C56    C     0.88877   0.72430   0.71538   0.00000  Uiso   1.00
C57    C     0.05606   0.70250   0.66617   0.00000  Uiso   1.00
C58    C     0.13297   0.59781   0.61701   0.00000  Uiso   1.00
C59    C     0.31446   0.44098   0.52631   0.00000  Uiso   1.00
C60    C     0.61956   0.68601   0.77396   0.00000  Uiso   1.00
C61    C     0.61626   0.70748   0.88057   0.00000  Uiso   1.00
C62    C     0.53727   0.65585   0.97031   0.00000  Uiso   1.00
C63    C     0.54877   0.68700   0.06005   0.00000  Uiso   1.00
C64    C     0.55126   0.80700   0.72568   0.00000  Uiso   1.00
C65    C     0.41763   0.83903   0.68517   0.00000  Uiso   1.00
C66    C     0.37441   0.95396   0.64451   0.00000  Uiso   1.00
C67    C     0.80139   0.64438   0.71549   0.00000  Uiso   1.00
C68    C     0.87805   0.53971   0.66639   0.00000  Uiso   1.00
C69    C     0.04542   0.51775   0.61711   0.00000  Uiso   1.00
H70    H     0.84848   0.89536   0.77368   0.00000  Uiso   1.00
H71    H     0.78291   0.88049   0.96998   0.00000  Uiso   1.00
H72    H     0.66330   0.06363   0.68488   0.00000  Uiso   1.00
H73    H     0.12364   0.76436   0.66610   0.00000  Uiso   1.00
H74    H     0.67161   0.82879   0.18767   0.00000  Uiso   1.00
H75    H     0.41944   0.21495   0.58648   0.00000  Uiso   1.00
H76    H     0.39018   0.58388   0.54688   0.00000  Uiso   1.00
H77    H     0.55152   0.62379   0.77403   0.00000  Uiso   1.00
H78    H     0.46965   0.59401   0.97036   0.00000  Uiso   1.00
H79    H     0.35003   0.77716   0.68526   0.00000  Uiso   1.00
H80    H     0.81038   0.47789   0.66648   0.00000  Uiso   1.00
H81    H     0.41735   0.59628   0.18798   0.00000  Uiso   1.00
H82    H     0.16519   0.98244   0.58678   0.00000  Uiso   1.00
H83    H     0.13592   0.35137   0.54719   0.00000  Uiso   1.00
O84    O     0.49594   0.69787   0.31697   0.00000  Uiso   1.00
O85    O     0.16513   0.20450   0.52822   0.00000  Uiso   1.00
O86    O     0.43871   0.37655   0.47627   0.00000  Uiso   1.00
N87    N     0.62304   0.77814   0.16080   0.00000  Uiso   1.00
N88    N     0.38726   0.13918   0.59874   0.00000  Uiso   1.00
N89    N     0.29481   0.54920   0.56169   0.00000  Uiso   1.00
N90    N     0.48622   0.65302   0.16096   0.00000  Uiso   1.00
N91    N     0.25044   0.01407   0.59890   0.00000  Uiso   1.00
N92    N     0.15799   0.42408   0.56186   0.00000  Uiso   1.00
