data_job_06160
_audit_creation_date              2018-12-19
_audit_creation_method            'Materials Studio'
_symmetry_space_group_name_H-M    'P1'
_symmetry_Int_Tables_number       1
_symmetry_cell_setting            triclinic
loop_
_symmetry_equiv_pos_as_xyz
  x,y,z
_cell_length_a                    16.1339
_cell_length_b                    15.7923
_cell_length_c                    15.2656
_cell_angle_alpha                 106.3890
_cell_angle_beta                  106.4100
_cell_angle_gamma                 105.7910
loop_
_atom_site_label
_atom_site_type_symbol
_atom_site_fract_x
_atom_site_fract_y
_atom_site_fract_z
_atom_site_U_iso_or_equiv
_atom_site_adp_type
_atom_site_occupancy
C1     C     0.31080   0.14990   0.76713   0.00000  Uiso   1.00
C2     C     0.37945   0.24253   0.77496   0.00000  Uiso   1.00
C3     C     0.37557   0.27470   0.69873   0.00000  Uiso   1.00
C4     C     0.44491   0.36124   0.72084   0.00000  Uiso   1.00
C5     C     0.54077   0.49708   0.71854   0.00000  Uiso   1.00
C6     C     0.36946   0.09475   0.79948   0.00000  Uiso   1.00
C7     C     0.35717   0.00266   0.74387   0.00000  Uiso   1.00
C8     C     0.41810   0.96479   0.78664   0.00000  Uiso   1.00
C9     C     0.49841   0.87116   0.82244   0.00000  Uiso   1.00
C10    C     0.27264   0.17854   0.84675   0.00000  Uiso   1.00
C11    C     0.17894   0.15689   0.83089   0.00000  Uiso   1.00
C12    C     0.15835   0.18956   0.91345   0.00000  Uiso   1.00
C13    C     0.08834   0.22604   0.02264   0.00000  Uiso   1.00
C14    C     0.44086   0.24639   0.94195   0.00000  Uiso   1.00
C15    C     0.45009   0.29494   0.86991   0.00000  Uiso   1.00
C16    C     0.51945   0.38146   0.89215   0.00000  Uiso   1.00
C17    C     0.51567   0.41375   0.81597   0.00000  Uiso   1.00
C18    C     0.44010   0.14715   0.89443   0.00000  Uiso   1.00
C19    C     0.50106   0.10941   0.93729   0.00000  Uiso   1.00
C20    C     0.48887   0.01729   0.88176   0.00000  Uiso   1.00
C21    C     0.34328   0.23095   0.94170   0.00000  Uiso   1.00
C22    C     0.32283   0.26365   0.02431   0.00000  Uiso   1.00
C23    C     0.22912   0.24206   0.00858   0.00000  Uiso   1.00
H24    H     0.25581   0.10910   0.69320   0.00000  Uiso   1.00
H25    H     0.32089   0.23412   0.62525   0.00000  Uiso   1.00
H26    H     0.30249   0.96212   0.67040   0.00000  Uiso   1.00
H27    H     0.12430   0.11634   0.75740   0.00000  Uiso   1.00
H28    H     0.42422   0.39583   0.59178   0.00000  Uiso   1.00
H29    H     0.38540   0.82228   0.68699   0.00000  Uiso   1.00
H30    H     0.00963   0.14748   0.87045   0.00000  Uiso   1.00
H31    H     0.49585   0.28719   0.01588   0.00000  Uiso   1.00
H32    H     0.57411   0.42200   0.96563   0.00000  Uiso   1.00
H33    H     0.55571   0.14999   0.01077   0.00000  Uiso   1.00
H34    H     0.37751   0.30421   0.09778   0.00000  Uiso   1.00
H35    H     0.62974   0.54831   0.86805   0.00000  Uiso   1.00
H36    H     0.59092   0.97476   0.96325   0.00000  Uiso   1.00
H37    H     0.21516   0.29996   0.14671   0.00000  Uiso   1.00
O38    O     0.57414   0.55752   0.69103   0.00000  Uiso   1.00
O39    O     0.52320   0.80504   0.81594   0.00000  Uiso   1.00
O40    O     0.03021   0.23169   0.05664   0.00000  Uiso   1.00
N41    N     0.46184   0.41322   0.66370   0.00000  Uiso   1.00
N42    N     0.42556   0.87700   0.75270   0.00000  Uiso   1.00
N43    N     0.07424   0.18101   0.92423   0.00000  Uiso   1.00
N44    N     0.57243   0.49528   0.81236   0.00000  Uiso   1.00
N45    N     0.53614   0.95905   0.90136   0.00000  Uiso   1.00
N46    N     0.18483   0.26306   0.07288   0.00000  Uiso   1.00
C47    C     0.77301   0.30953   0.14893   0.00000  Uiso   1.00
C48    C     0.78075   0.38032   0.24541   0.00000  Uiso   1.00
C49    C     0.70911   0.37733   0.27923   0.00000  Uiso   1.00
C50    C     0.73028   0.44865   0.36931   0.00000  Uiso   1.00
C51    C     0.72865   0.54770   0.51084   0.00000  Uiso   1.00
C52    C     0.80313   0.36880   0.09180   0.00000  Uiso   1.00
C53    C     0.75031   0.35611   0.99647   0.00000  Uiso   1.00
C54    C     0.79032   0.41773   0.95724   0.00000  Uiso   1.00
C55    C     0.82346   0.49884   0.86026   0.00000  Uiso   1.00
C56    C     0.84820   0.26992   0.17799   0.00000  Uiso   1.00
C57    C     0.83328   0.17409   0.15511   0.00000  Uiso   1.00
C58    C     0.91125   0.15246   0.18843   0.00000  Uiso   1.00
C59    C     0.01437   0.08005   0.22528   0.00000  Uiso   1.00
C60    C     0.93798   0.44151   0.24876   0.00000  Uiso   1.00
C61    C     0.87036   0.45201   0.29963   0.00000  Uiso   1.00
C62    C     0.89164   0.52335   0.38969   0.00000  Uiso   1.00
C63    C     0.82005   0.52047   0.42364   0.00000  Uiso   1.00
C64    C     0.89273   0.44048   0.14602   0.00000  Uiso   1.00
C65    C     0.93283   0.50213   0.10692   0.00000  Uiso   1.00
C66    C     0.88009   0.48955   0.01156   0.00000  Uiso   1.00
C67    C     0.93781   0.34161   0.23222   0.00000  Uiso   1.00
C68    C     0.01581   0.32012   0.26557   0.00000  Uiso   1.00
C69    C     0.00102   0.22428   0.24275   0.00000  Uiso   1.00
H70    H     0.70324   0.25372   0.10671   0.00000  Uiso   1.00
H71    H     0.63977   0.32184   0.23724   0.00000  Uiso   1.00
H72    H     0.68097   0.30062   0.95452   0.00000  Uiso   1.00
H73    H     0.76393   0.11864   0.11314   0.00000  Uiso   1.00
H74    H     0.60891   0.42901   0.40585   0.00000  Uiso   1.00
H75    H     0.69579   0.38424   0.80971   0.00000  Uiso   1.00
H76    H     0.87073   0.00049   0.14419   0.00000  Uiso   1.00
H77    H     0.00775   0.49732   0.29098   0.00000  Uiso   1.00
H78    H     0.96099   0.57882   0.43163   0.00000  Uiso   1.00
H79    H     0.00218   0.55760   0.14891   0.00000  Uiso   1.00
H80    H     0.08514   0.37562   0.30753   0.00000  Uiso   1.00
H81    H     0.86962   0.63758   0.56363   0.00000  Uiso   1.00
H82    H     0.95650   0.59281   0.96748   0.00000  Uiso   1.00
H83    H     0.13144   0.20906   0.30197   0.00000  Uiso   1.00
O84    O     0.70300   0.58253   0.57392   0.00000  Uiso   1.00
O85    O     0.81698   0.52378   0.79179   0.00000  Uiso   1.00
O86    O     0.04650   0.02031   0.23064   0.00000  Uiso   1.00
N87    N     0.67669   0.46690   0.42369   0.00000  Uiso   1.00
N88    N     0.75791   0.42506   0.86634   0.00000  Uiso   1.00
N89    N     0.92147   0.06628   0.17903   0.00000  Uiso   1.00
N90    N     0.81698   0.57913   0.50859   0.00000  Uiso   1.00
N91    N     0.89819   0.53729   0.95123   0.00000  Uiso   1.00
N92    N     0.06175   0.17851   0.26393   0.00000  Uiso   1.00
C93    C     0.15000   0.77116   0.30821   0.00000  Uiso   1.00
C94    C     0.24122   0.77864   0.38117   0.00000  Uiso   1.00
C95    C     0.27317   0.70502   0.37749   0.00000  Uiso   1.00
C96    C     0.35834   0.72630   0.45112   0.00000  Uiso   1.00
C97    C     0.49216   0.72397   0.55309   0.00000  Uiso   1.00
C98    C     0.09644   0.80295   0.37023   0.00000  Uiso   1.00
C99    C     0.00665   0.74978   0.35734   0.00000  Uiso   1.00
C100   C     0.96995   0.79152   0.42175   0.00000  Uiso   1.00
C101   C     0.87896   0.82696   0.50670   0.00000  Uiso   1.00
C102   C     0.17708   0.84749   0.26733   0.00000  Uiso   1.00
C103   C     0.15507   0.83177   0.16791   0.00000  Uiso   1.00
C104   C     0.18624   0.91102   0.14568   0.00000  Uiso   1.00
C105   C     0.22045   0.01560   0.07085   0.00000  Uiso   1.00
C106   C     0.24448   0.93985   0.44552   0.00000  Uiso   1.00
C107   C     0.29254   0.87027   0.45576   0.00000  Uiso   1.00
C108   C     0.37769   0.89166   0.52941   0.00000  Uiso   1.00
C109   C     0.40975   0.81809   0.52583   0.00000  Uiso   1.00
C110   C     0.14775   0.89458   0.44481   0.00000  Uiso   1.00
C111   C     0.11118   0.93642   0.50926   0.00000  Uiso   1.00
C112   C     0.02135   0.88332   0.49647   0.00000  Uiso   1.00
C113   C     0.22840   0.93912   0.34191   0.00000  Uiso   1.00
C114   C     0.25960   0.01841   0.31983   0.00000  Uiso   1.00
C115   C     0.23764   0.00281   0.22040   0.00000  Uiso   1.00
H116   H     0.11005   0.69982   0.25015   0.00000  Uiso   1.00
H117   H     0.23343   0.63412   0.31976   0.00000  Uiso   1.00
H118   H     0.96695   0.67888   0.29961   0.00000  Uiso   1.00
H119   H     0.11536   0.76085   0.11022   0.00000  Uiso   1.00
H120   H     0.39283   0.60168   0.42986   0.00000  Uiso   1.00
H121   H     0.83094   0.69605   0.38734   0.00000  Uiso   1.00
H122   H     0.14387   0.86891   0.98796   0.00000  Uiso   1.00
H123   H     0.28443   0.01119   0.50359   0.00000  Uiso   1.00
H124   H     0.41738   0.96258   0.58711   0.00000  Uiso   1.00
H125   H     0.15090   0.00733   0.56696   0.00000  Uiso   1.00
H126   H     0.29931   0.08930   0.37756   0.00000  Uiso   1.00
H127   H     0.54214   0.86826   0.64685   0.00000  Uiso   1.00
H128   H     0.98024   0.96264   0.60433   0.00000  Uiso   1.00
H129   H     0.29317   0.13550   0.20495   0.00000  Uiso   1.00
O130   O     0.55178   0.69736   0.58874   0.00000  Uiso   1.00
O131   O     0.81460   0.82118   0.53295   0.00000  Uiso   1.00
O132   O     0.22516   0.04797   0.00897   0.00000  Uiso   1.00
N133   N     0.40973   0.67110   0.46945   0.00000  Uiso   1.00
N134   N     0.88441   0.75932   0.42971   0.00000  Uiso   1.00
N135   N     0.17694   0.92094   0.05632   0.00000  Uiso   1.00
N136   N     0.49007   0.81454   0.58621   0.00000  Uiso   1.00
N137   N     0.96474   0.90277   0.54647   0.00000  Uiso   1.00
N138   N     0.25728   0.06439   0.17308   0.00000  Uiso   1.00
C139   C     0.68920   0.85010   0.23287   0.00000  Uiso   1.00
C140   C     0.62055   0.75747   0.22504   0.00000  Uiso   1.00
C141   C     0.62443   0.72530   0.30127   0.00000  Uiso   1.00
C142   C     0.55509   0.63875   0.27916   0.00000  Uiso   1.00
C143   C     0.45922   0.50292   0.28146   0.00000  Uiso   1.00
C144   C     0.63054   0.90525   0.20052   0.00000  Uiso   1.00
C145   C     0.64283   0.99734   0.25613   0.00000  Uiso   1.00
C146   C     0.58190   0.03521   0.21336   0.00000  Uiso   1.00
C147   C     0.50159   0.12884   0.17756   0.00000  Uiso   1.00
C148   C     0.72736   0.82145   0.15325   0.00000  Uiso   1.00
C149   C     0.82106   0.84311   0.16911   0.00000  Uiso   1.00
C150   C     0.84165   0.81044   0.08654   0.00000  Uiso   1.00
C151   C     0.91166   0.77396   0.97736   0.00000  Uiso   1.00
C152   C     0.55914   0.75361   0.05805   0.00000  Uiso   1.00
C153   C     0.54991   0.70506   0.13009   0.00000  Uiso   1.00
C154   C     0.48055   0.61854   0.10785   0.00000  Uiso   1.00
C155   C     0.48432   0.58625   0.18403   0.00000  Uiso   1.00
C156   C     0.55990   0.85285   0.10557   0.00000  Uiso   1.00
C157   C     0.49894   0.89059   0.06271   0.00000  Uiso   1.00
C158   C     0.51113   0.98271   0.11824   0.00000  Uiso   1.00
C159   C     0.65672   0.76904   0.05830   0.00000  Uiso   1.00
C160   C     0.67717   0.73635   0.97569   0.00000  Uiso   1.00
C161   C     0.77088   0.75794   0.99142   0.00000  Uiso   1.00
H162   H     0.74419   0.89090   0.30680   0.00000  Uiso   1.00
H163   H     0.67911   0.76588   0.37475   0.00000  Uiso   1.00
H164   H     0.69751   0.03788   0.32960   0.00000  Uiso   1.00
H165   H     0.87570   0.88366   0.24260   0.00000  Uiso   1.00
H166   H     0.57578   0.60417   0.40821   0.00000  Uiso   1.00
H167   H     0.61460   0.17772   0.31301   0.00000  Uiso   1.00
H168   H     0.99037   0.85252   0.12955   0.00000  Uiso   1.00
H169   H     0.50415   0.71281   0.98412   0.00000  Uiso   1.00
H170   H     0.42589   0.57800   0.03437   0.00000  Uiso   1.00
H171   H     0.44429   0.85001   0.98922   0.00000  Uiso   1.00
H172   H     0.62249   0.69579   0.90222   0.00000  Uiso   1.00
H173   H     0.37026   0.45169   0.13195   0.00000  Uiso   1.00
H174   H     0.40908   0.02524   0.03675   0.00000  Uiso   1.00
H175   H     0.78484   0.70004   0.85329   0.00000  Uiso   1.00
O176   O     0.42585   0.44248   0.30897   0.00000  Uiso   1.00
O177   O     0.47680   0.19496   0.18406   0.00000  Uiso   1.00
O178   O     0.96979   0.76830   0.94336   0.00000  Uiso   1.00
N179   N     0.53816   0.58677   0.33629   0.00000  Uiso   1.00
N180   N     0.57444   0.12300   0.24729   0.00000  Uiso   1.00
N181   N     0.92576   0.81899   0.07577   0.00000  Uiso   1.00
N182   N     0.42757   0.50472   0.18764   0.00000  Uiso   1.00
N183   N     0.46385   0.04095   0.09864   0.00000  Uiso   1.00
N184   N     0.81517   0.73694   0.92711   0.00000  Uiso   1.00
C185   C     0.22699   0.69047   0.85107   0.00000  Uiso   1.00
C186   C     0.21925   0.61968   0.75459   0.00000  Uiso   1.00
C187   C     0.29089   0.62267   0.72077   0.00000  Uiso   1.00
C188   C     0.26972   0.55135   0.63069   0.00000  Uiso   1.00
C189   C     0.27135   0.45230   0.48916   0.00000  Uiso   1.00
C190   C     0.19687   0.63120   0.90820   0.00000  Uiso   1.00
C191   C     0.24969   0.64389   0.00353   0.00000  Uiso   1.00
C192   C     0.20968   0.58227   0.04276   0.00000  Uiso   1.00
C193   C     0.17654   0.50116   0.13974   0.00000  Uiso   1.00
C194   C     0.15180   0.73008   0.82201   0.00000  Uiso   1.00
C195   C     0.16672   0.82591   0.84489   0.00000  Uiso   1.00
C196   C     0.08875   0.84754   0.81157   0.00000  Uiso   1.00
C197   C     0.98563   0.91995   0.77472   0.00000  Uiso   1.00
C198   C     0.06201   0.55849   0.75123   0.00000  Uiso   1.00
C199   C     0.12964   0.54799   0.70037   0.00000  Uiso   1.00
C200   C     0.10836   0.47665   0.61031   0.00000  Uiso   1.00
C201   C     0.17995   0.47953   0.57636   0.00000  Uiso   1.00
C202   C     0.10727   0.55952   0.85398   0.00000  Uiso   1.00
C203   C     0.06717   0.49787   0.89308   0.00000  Uiso   1.00
C204   C     0.11991   0.51045   0.98844   0.00000  Uiso   1.00
C205   C     0.06219   0.65839   0.76778   0.00000  Uiso   1.00
C206   C     0.98419   0.67988   0.73443   0.00000  Uiso   1.00
C207   C     0.99898   0.77572   0.75725   0.00000  Uiso   1.00
H208   H     0.29676   0.74628   0.89329   0.00000  Uiso   1.00
H209   H     0.36023   0.67816   0.76276   0.00000  Uiso   1.00
H210   H     0.31903   0.69938   0.04548   0.00000  Uiso   1.00
H211   H     0.23607   0.88136   0.88686   0.00000  Uiso   1.00
H212   H     0.39109   0.57099   0.59414   0.00000  Uiso   1.00
H213   H     0.30421   0.61576   0.19029   0.00000  Uiso   1.00
H214   H     0.12927   0.99951   0.85581   0.00000  Uiso   1.00
H215   H     0.99225   0.50267   0.70902   0.00000  Uiso   1.00
H216   H     0.03901   0.42118   0.56837   0.00000  Uiso   1.00
H217   H     0.99782   0.44240   0.85109   0.00000  Uiso   1.00
H218   H     0.91486   0.62438   0.69247   0.00000  Uiso   1.00
H219   H     0.13038   0.36242   0.43637   0.00000  Uiso   1.00
H220   H     0.04350   0.40719   0.03252   0.00000  Uiso   1.00
H221   H     0.86856   0.79094   0.69803   0.00000  Uiso   1.00
O222   O     0.29700   0.41747   0.42608   0.00000  Uiso   1.00
O223   O     0.18302   0.47622   0.20821   0.00000  Uiso   1.00
O224   O     0.95350   0.97969   0.76936   0.00000  Uiso   1.00
N225   N     0.32331   0.53310   0.57630   0.00000  Uiso   1.00
N226   N     0.24209   0.57494   0.13366   0.00000  Uiso   1.00
N227   N     0.07853   0.93372   0.82097   0.00000  Uiso   1.00
N228   N     0.18302   0.42087   0.49141   0.00000  Uiso   1.00
N229   N     0.10181   0.46271   0.04877   0.00000  Uiso   1.00
N230   N     0.93825   0.82149   0.73607   0.00000  Uiso   1.00
C231   C     0.85000   0.22884   0.69179   0.00000  Uiso   1.00
C232   C     0.75877   0.22136   0.61883   0.00000  Uiso   1.00
C233   C     0.72683   0.29497   0.62251   0.00000  Uiso   1.00
C234   C     0.64166   0.27370   0.54888   0.00000  Uiso   1.00
C235   C     0.50784   0.27603   0.44691   0.00000  Uiso   1.00
C236   C     0.90356   0.19705   0.62976   0.00000  Uiso   1.00
C237   C     0.99335   0.25022   0.64266   0.00000  Uiso   1.00
C238   C     0.03005   0.20848   0.57825   0.00000  Uiso   1.00
C239   C     0.12104   0.17304   0.49330   0.00000  Uiso   1.00
C240   C     0.82292   0.15251   0.73267   0.00000  Uiso   1.00
C241   C     0.84493   0.16823   0.83209   0.00000  Uiso   1.00
C242   C     0.81376   0.08898   0.85432   0.00000  Uiso   1.00
C243   C     0.77955   0.98440   0.92915   0.00000  Uiso   1.00
C244   C     0.75552   0.06015   0.55448   0.00000  Uiso   1.00
C245   C     0.70746   0.12973   0.54424   0.00000  Uiso   1.00
C246   C     0.62231   0.10834   0.47059   0.00000  Uiso   1.00
C247   C     0.59025   0.18191   0.47417   0.00000  Uiso   1.00
C248   C     0.85224   0.10542   0.55519   0.00000  Uiso   1.00
C249   C     0.88882   0.06358   0.49074   0.00000  Uiso   1.00
C250   C     0.97864   0.11668   0.50353   0.00000  Uiso   1.00
C251   C     0.77160   0.06088   0.65809   0.00000  Uiso   1.00
C252   C     0.74040   0.98159   0.68017   0.00000  Uiso   1.00
C253   C     0.76236   0.99719   0.77960   0.00000  Uiso   1.00
H254   H     0.88995   0.30017   0.74985   0.00000  Uiso   1.00
H255   H     0.76657   0.36588   0.68023   0.00000  Uiso   1.00
H256   H     0.03305   0.32112   0.70039   0.00000  Uiso   1.00
H257   H     0.88464   0.23915   0.88978   0.00000  Uiso   1.00
H258   H     0.60717   0.39832   0.57014   0.00000  Uiso   1.00
H259   H     0.16906   0.30395   0.61266   0.00000  Uiso   1.00
H260   H     0.85613   0.13108   0.01204   0.00000  Uiso   1.00
H261   H     0.71557   0.98881   0.49641   0.00000  Uiso   1.00
H262   H     0.58261   0.03742   0.41289   0.00000  Uiso   1.00
H263   H     0.84909   0.99267   0.43304   0.00000  Uiso   1.00
H264   H     0.70069   0.91070   0.62244   0.00000  Uiso   1.00
H265   H     0.45786   0.13174   0.35315   0.00000  Uiso   1.00
H266   H     0.01976   0.03736   0.39567   0.00000  Uiso   1.00
H267   H     0.70683   0.86450   0.79505   0.00000  Uiso   1.00
O268   O     0.44822   0.30264   0.41126   0.00000  Uiso   1.00
O269   O     0.18540   0.17882   0.46705   0.00000  Uiso   1.00
O270   O     0.77484   0.95203   0.99103   0.00000  Uiso   1.00
N271   N     0.59026   0.32890   0.53055   0.00000  Uiso   1.00
N272   N     0.11559   0.24068   0.57029   0.00000  Uiso   1.00
N273   N     0.82305   0.07906   0.94368   0.00000  Uiso   1.00
N274   N     0.50993   0.18546   0.41379   0.00000  Uiso   1.00
N275   N     0.03526   0.09723   0.45352   0.00000  Uiso   1.00
N276   N     0.74272   0.93561   0.82692   0.00000  Uiso   1.00
