data_job_05909
_audit_creation_date              2018-12-19
_audit_creation_method            'Materials Studio'
_symmetry_space_group_name_H-M    'P1'
_symmetry_Int_Tables_number       1
_symmetry_cell_setting            triclinic
loop_
_symmetry_equiv_pos_as_xyz
  x,y,z
_cell_length_a                    19.9236
_cell_length_b                    19.9236
_cell_length_c                    15.1841
_cell_angle_alpha                 90.0000
_cell_angle_beta                  90.0000
_cell_angle_gamma                 120.0000
loop_
_atom_site_label
_atom_site_type_symbol
_atom_site_fract_x
_atom_site_fract_y
_atom_site_fract_z
_atom_site_U_iso_or_equiv
_atom_site_adp_type
_atom_site_occupancy
C1     C     0.13550   0.73572   0.67658   0.00000  Uiso   1.00
C2     C     0.50193   0.39798   0.43221   0.00000  Uiso   1.00
C3     C     0.89578   0.12629   0.14279   0.00000  Uiso   1.00
C4     C     0.91752   0.11034   0.22348   0.00000  Uiso   1.00
C5     C     0.97464   0.11489   0.35622   0.00000  Uiso   1.00
C6     C     0.14148   0.67708   0.61740   0.00000  Uiso   1.00
C7     C     0.17919   0.69314   0.53675   0.00000  Uiso   1.00
C8     C     0.84477   0.96485   0.82606   0.00000  Uiso   1.00
C9     C     0.85975   0.88520   0.72878   0.00000  Uiso   1.00
C10    C     0.04914   0.70420   0.69146   0.00000  Uiso   1.00
C11    C     0.00920   0.74304   0.67306   0.00000  Uiso   1.00
C12    C     0.93037   0.70425   0.69136   0.00000  Uiso   1.00
C13    C     0.13530   0.33338   0.37573   0.00000  Uiso   1.00
C14    C     0.39984   0.26441   0.40846   0.00000  Uiso   1.00
C15    C     0.46446   0.32304   0.46763   0.00000  Uiso   1.00
C16    C     0.81945   0.97365   0.21495   0.00000  Uiso   1.00
C17    C     0.87998   0.03526   0.25897   0.00000  Uiso   1.00
C18    C     0.43735   0.26881   0.31949   0.00000  Uiso   1.00
C19    C     0.43620   0.20716   0.27557   0.00000  Uiso   1.00
C20    C     0.80723   0.88978   0.86155   0.00000  Uiso   1.00
C21    C     0.34500   0.29593   0.39355   0.00000  Uiso   1.00
C22    C     0.26621   0.25707   0.41188   0.00000  Uiso   1.00
C23    C     0.22616   0.29584   0.39351   0.00000  Uiso   1.00
H24    H     0.16467   0.79406   0.64899   0.00000  Uiso   1.00
H25    H     0.59143   0.51761   0.44869   0.00000  Uiso   1.00
H26    H     0.20818   0.75113   0.50935   0.00000  Uiso   1.00
H27    H     0.03822   0.80103   0.64564   0.00000  Uiso   1.00
H28    H     0.01184   0.21430   0.27844   0.00000  Uiso   1.00
H29    H     0.90656   0.00383   0.70350   0.00000  Uiso   1.00
H30    H     0.88150   0.77573   0.65756   0.00000  Uiso   1.00
H31    H     0.37067   0.20607   0.43603   0.00000  Uiso   1.00
H32    H     0.79044   0.91565   0.24234   0.00000  Uiso   1.00
H33    H     0.40719   0.14917   0.30300   0.00000  Uiso   1.00
H34    H     0.23723   0.19908   0.43929   0.00000  Uiso   1.00
H35    H     0.90282   0.99627   0.38151   0.00000  Uiso   1.00
H36    H     0.13087   0.45247   0.47322   0.00000  Uiso   1.00
H37    H     0.10581   0.22436   0.42729   0.00000  Uiso   1.00
O38    O     0.01651   0.13811   0.41965   0.00000  Uiso   1.00
O39    O     0.87837   0.86198   0.66533   0.00000  Uiso   1.00
O40    O     0.07484   0.33337   0.37572   0.00000  Uiso   1.00
N41    N     0.97431   0.15710   0.28355   0.00000  Uiso   1.00
N42    N     0.87589   0.96033   0.74601   0.00000  Uiso   1.00
N43    N     0.87415   0.72537   0.68134   0.00000  Uiso   1.00
N44    N     0.91564   0.03978   0.33900   0.00000  Uiso   1.00
N45    N     0.81722   0.84301   0.80147   0.00000  Uiso   1.00
N46    N     0.14882   0.27471   0.40347   0.00000  Uiso   1.00
C47    C     0.80217   0.06905   0.00991   0.00000  Uiso   1.00
C48    C     0.16860   0.73131   0.76555   0.00000  Uiso   1.00
C49    C     0.56244   0.45963   0.47613   0.00000  Uiso   1.00
C50    C     0.58419   0.44367   0.55681   0.00000  Uiso   1.00
C51    C     0.64131   0.44823   0.68955   0.00000  Uiso   1.00
C52    C     0.80815   0.01042   0.95074   0.00000  Uiso   1.00
C53    C     0.84586   0.02647   0.87008   0.00000  Uiso   1.00
C54    C     0.51144   0.29819   0.15939   0.00000  Uiso   1.00
C55    C     0.52641   0.21854   0.06211   0.00000  Uiso   1.00
C56    C     0.71581   0.03754   0.02479   0.00000  Uiso   1.00
C57    C     0.67587   0.07638   0.00639   0.00000  Uiso   1.00
C58    C     0.59703   0.03758   0.02470   0.00000  Uiso   1.00
C59    C     0.80197   0.66671   0.70907   0.00000  Uiso   1.00
C60    C     0.06651   0.59775   0.74179   0.00000  Uiso   1.00
C61    C     0.13112   0.65637   0.80097   0.00000  Uiso   1.00
C62    C     0.48611   0.30698   0.54828   0.00000  Uiso   1.00
C63    C     0.54665   0.36860   0.59230   0.00000  Uiso   1.00
C64    C     0.10401   0.60215   0.65282   0.00000  Uiso   1.00
C65    C     0.10286   0.54049   0.60891   0.00000  Uiso   1.00
C66    C     0.47390   0.22311   0.19488   0.00000  Uiso   1.00
C67    C     0.01167   0.62926   0.72689   0.00000  Uiso   1.00
C68    C     0.93288   0.59040   0.74522   0.00000  Uiso   1.00
C69    C     0.89283   0.62918   0.72685   0.00000  Uiso   1.00
H70    H     0.83134   0.12739   0.98233   0.00000  Uiso   1.00
H71    H     0.25810   0.85095   0.78202   0.00000  Uiso   1.00
H72    H     0.87485   0.08446   0.84269   0.00000  Uiso   1.00
H73    H     0.70489   0.13437   0.97898   0.00000  Uiso   1.00
H74    H     0.67851   0.54763   0.61178   0.00000  Uiso   1.00
H75    H     0.57323   0.33716   0.03683   0.00000  Uiso   1.00
H76    H     0.54817   0.10906   0.99089   0.00000  Uiso   1.00
H77    H     0.03733   0.53940   0.76937   0.00000  Uiso   1.00
H78    H     0.45711   0.24899   0.57567   0.00000  Uiso   1.00
H79    H     0.07385   0.48251   0.63634   0.00000  Uiso   1.00
H80    H     0.90390   0.53241   0.77263   0.00000  Uiso   1.00
H81    H     0.56948   0.32960   0.71484   0.00000  Uiso   1.00
H82    H     0.79754   0.78580   0.80656   0.00000  Uiso   1.00
H83    H     0.77248   0.55770   0.76062   0.00000  Uiso   1.00
O84    O     0.68317   0.47144   0.75298   0.00000  Uiso   1.00
O85    O     0.54504   0.19531   0.99867   0.00000  Uiso   1.00
O86    O     0.74150   0.66671   0.70906   0.00000  Uiso   1.00
N87    N     0.64098   0.49043   0.61688   0.00000  Uiso   1.00
N88    N     0.54256   0.29366   0.07934   0.00000  Uiso   1.00
N89    N     0.54082   0.05870   0.01468   0.00000  Uiso   1.00
N90    N     0.58231   0.37311   0.67234   0.00000  Uiso   1.00
N91    N     0.48389   0.17634   0.13480   0.00000  Uiso   1.00
N92    N     0.81549   0.60805   0.73680   0.00000  Uiso   1.00
C93    C     0.46883   0.40238   0.34324   0.00000  Uiso   1.00
C94    C     0.83526   0.06465   0.09888   0.00000  Uiso   1.00
C95    C     0.22911   0.79296   0.80946   0.00000  Uiso   1.00
C96    C     0.25086   0.77700   0.89015   0.00000  Uiso   1.00
C97    C     0.30798   0.78156   0.02289   0.00000  Uiso   1.00
C98    C     0.47482   0.34375   0.28407   0.00000  Uiso   1.00
C99    C     0.51253   0.35980   0.20342   0.00000  Uiso   1.00
C100   C     0.17810   0.63152   0.49273   0.00000  Uiso   1.00
C101   C     0.19308   0.55187   0.39544   0.00000  Uiso   1.00
C102   C     0.38248   0.37087   0.35813   0.00000  Uiso   1.00
C103   C     0.34254   0.40971   0.33972   0.00000  Uiso   1.00
C104   C     0.26370   0.37092   0.35803   0.00000  Uiso   1.00
C105   C     0.46864   0.00004   0.04240   0.00000  Uiso   1.00
C106   C     0.73317   0.93108   0.07512   0.00000  Uiso   1.00
C107   C     0.79779   0.98971   0.13430   0.00000  Uiso   1.00
C108   C     0.15278   0.64032   0.88161   0.00000  Uiso   1.00
C109   C     0.21332   0.70193   0.92564   0.00000  Uiso   1.00
C110   C     0.77068   0.93548   0.98616   0.00000  Uiso   1.00
C111   C     0.76953   0.87382   0.94224   0.00000  Uiso   1.00
C112   C     0.14056   0.55644   0.52821   0.00000  Uiso   1.00
C113   C     0.67834   0.96260   0.06022   0.00000  Uiso   1.00
C114   C     0.59954   0.92373   0.07855   0.00000  Uiso   1.00
C115   C     0.55949   0.96251   0.06018   0.00000  Uiso   1.00
H116   H     0.49801   0.46072   0.31566   0.00000  Uiso   1.00
H117   H     0.92477   0.18428   0.11535   0.00000  Uiso   1.00
H118   H     0.54151   0.41780   0.17602   0.00000  Uiso   1.00
H119   H     0.37156   0.46770   0.31231   0.00000  Uiso   1.00
H120   H     0.34517   0.88097   0.94511   0.00000  Uiso   1.00
H121   H     0.23989   0.67050   0.37017   0.00000  Uiso   1.00
H122   H     0.21483   0.44239   0.32422   0.00000  Uiso   1.00
H123   H     0.70400   0.87274   0.10270   0.00000  Uiso   1.00
H124   H     0.12377   0.58232   0.90901   0.00000  Uiso   1.00
H125   H     0.74052   0.81584   0.96967   0.00000  Uiso   1.00
H126   H     0.57056   0.86574   0.10596   0.00000  Uiso   1.00
H127   H     0.23615   0.66294   0.04818   0.00000  Uiso   1.00
H128   H     0.46420   0.11913   0.13989   0.00000  Uiso   1.00
H129   H     0.43914   0.89103   0.09395   0.00000  Uiso   1.00
O130   O     0.34984   0.80477   0.08631   0.00000  Uiso   1.00
O131   O     0.21170   0.52864   0.33200   0.00000  Uiso   1.00
O132   O     0.40817   0.00004   0.04239   0.00000  Uiso   1.00
N133   N     0.30764   0.82377   0.95021   0.00000  Uiso   1.00
N134   N     0.20922   0.62699   0.41268   0.00000  Uiso   1.00
N135   N     0.20748   0.39203   0.34801   0.00000  Uiso   1.00
N136   N     0.24898   0.70645   0.00567   0.00000  Uiso   1.00
N137   N     0.15056   0.50967   0.46814   0.00000  Uiso   1.00
N138   N     0.48215   0.94138   0.07013   0.00000  Uiso   1.00
C139   C     0.26428   0.39978   0.67658   0.00000  Uiso   1.00
C140   C     0.60202   0.10395   0.43221   0.00000  Uiso   1.00
C141   C     0.87371   0.76948   0.14279   0.00000  Uiso   1.00
C142   C     0.88966   0.80719   0.22348   0.00000  Uiso   1.00
C143   C     0.88511   0.85975   0.35622   0.00000  Uiso   1.00
C144   C     0.32292   0.46440   0.61740   0.00000  Uiso   1.00
C145   C     0.30686   0.48606   0.53675   0.00000  Uiso   1.00
C146   C     0.03515   0.87992   0.82606   0.00000  Uiso   1.00
C147   C     0.11480   0.97454   0.72878   0.00000  Uiso   1.00
C148   C     0.29580   0.34494   0.69146   0.00000  Uiso   1.00
C149   C     0.25696   0.26616   0.67306   0.00000  Uiso   1.00
C150   C     0.29575   0.22611   0.69136   0.00000  Uiso   1.00
C151   C     0.66662   0.80193   0.37573   0.00000  Uiso   1.00
C152   C     0.73559   0.13543   0.40846   0.00000  Uiso   1.00
C153   C     0.67696   0.14142   0.46763   0.00000  Uiso   1.00
C154   C     0.02635   0.84580   0.21495   0.00000  Uiso   1.00
C155   C     0.96474   0.84472   0.25897   0.00000  Uiso   1.00
C156   C     0.73119   0.16853   0.31949   0.00000  Uiso   1.00
C157   C     0.79284   0.22904   0.27557   0.00000  Uiso   1.00
C158   C     0.11022   0.91745   0.86155   0.00000  Uiso   1.00
C159   C     0.70407   0.04907   0.39355   0.00000  Uiso   1.00
C160   C     0.74293   0.00914   0.41188   0.00000  Uiso   1.00
C161   C     0.70416   0.93032   0.39351   0.00000  Uiso   1.00
H162   H     0.20594   0.37062   0.64899   0.00000  Uiso   1.00
H163   H     0.48239   0.07382   0.44869   0.00000  Uiso   1.00
H164   H     0.24887   0.45705   0.50935   0.00000  Uiso   1.00
H165   H     0.19897   0.23719   0.64564   0.00000  Uiso   1.00
H166   H     0.78570   0.79754   0.27844   0.00000  Uiso   1.00
H167   H     0.99617   0.90273   0.70350   0.00000  Uiso   1.00
H168   H     0.22427   0.10577   0.65756   0.00000  Uiso   1.00
H169   H     0.79393   0.16460   0.43603   0.00000  Uiso   1.00
H170   H     0.08435   0.87479   0.24234   0.00000  Uiso   1.00
H171   H     0.85083   0.25802   0.30300   0.00000  Uiso   1.00
H172   H     0.80092   0.03815   0.43929   0.00000  Uiso   1.00
H173   H     0.00373   0.90655   0.38151   0.00000  Uiso   1.00
H174   H     0.54753   0.67840   0.47322   0.00000  Uiso   1.00
H175   H     0.77564   0.88145   0.42729   0.00000  Uiso   1.00
O176   O     0.86189   0.87840   0.41965   0.00000  Uiso   1.00
O177   O     0.13802   0.01639   0.66533   0.00000  Uiso   1.00
O178   O     0.66663   0.74147   0.37572   0.00000  Uiso   1.00
N179   N     0.84290   0.81721   0.28355   0.00000  Uiso   1.00
N180   N     0.03967   0.91556   0.74601   0.00000  Uiso   1.00
N181   N     0.27463   0.14879   0.68134   0.00000  Uiso   1.00
N182   N     0.96022   0.87586   0.33900   0.00000  Uiso   1.00
N183   N     0.15699   0.97422   0.80147   0.00000  Uiso   1.00
N184   N     0.72529   0.87411   0.40347   0.00000  Uiso   1.00
C185   C     0.93095   0.73312   0.00991   0.00000  Uiso   1.00
C186   C     0.26869   0.43728   0.76555   0.00000  Uiso   1.00
C187   C     0.54037   0.10282   0.47613   0.00000  Uiso   1.00
C188   C     0.55633   0.14052   0.55681   0.00000  Uiso   1.00
C189   C     0.55177   0.19308   0.68955   0.00000  Uiso   1.00
C190   C     0.98958   0.79773   0.95074   0.00000  Uiso   1.00
C191   C     0.97353   0.81939   0.87008   0.00000  Uiso   1.00
C192   C     0.70181   0.21325   0.15939   0.00000  Uiso   1.00
C193   C     0.78146   0.30788   0.06211   0.00000  Uiso   1.00
C194   C     0.96246   0.67828   0.02479   0.00000  Uiso   1.00
C195   C     0.92362   0.59949   0.00639   0.00000  Uiso   1.00
C196   C     0.96242   0.55945   0.02470   0.00000  Uiso   1.00
C197   C     0.33329   0.13526   0.70907   0.00000  Uiso   1.00
C198   C     0.40225   0.46876   0.74179   0.00000  Uiso   1.00
C199   C     0.34363   0.47475   0.80097   0.00000  Uiso   1.00
C200   C     0.69302   0.17913   0.54828   0.00000  Uiso   1.00
C201   C     0.63140   0.17805   0.59230   0.00000  Uiso   1.00
C202   C     0.39785   0.50187   0.65282   0.00000  Uiso   1.00
C203   C     0.45951   0.56237   0.60891   0.00000  Uiso   1.00
C204   C     0.77689   0.25079   0.19488   0.00000  Uiso   1.00
C205   C     0.37074   0.38241   0.72689   0.00000  Uiso   1.00
C206   C     0.40960   0.34248   0.74522   0.00000  Uiso   1.00
C207   C     0.37082   0.26365   0.72685   0.00000  Uiso   1.00
H208   H     0.87261   0.70395   0.98233   0.00000  Uiso   1.00
H209   H     0.14905   0.40715   0.78202   0.00000  Uiso   1.00
H210   H     0.91554   0.79038   0.84269   0.00000  Uiso   1.00
H211   H     0.86563   0.57052   0.97898   0.00000  Uiso   1.00
H212   H     0.45237   0.13088   0.61178   0.00000  Uiso   1.00
H213   H     0.66284   0.23606   0.03683   0.00000  Uiso   1.00
H214   H     0.89094   0.43911   0.99089   0.00000  Uiso   1.00
H215   H     0.46060   0.49793   0.76937   0.00000  Uiso   1.00
H216   H     0.75101   0.20812   0.57567   0.00000  Uiso   1.00
H217   H     0.51749   0.59135   0.63634   0.00000  Uiso   1.00
H218   H     0.46759   0.37149   0.77263   0.00000  Uiso   1.00
H219   H     0.67040   0.23988   0.71484   0.00000  Uiso   1.00
H220   H     0.21420   0.01173   0.80656   0.00000  Uiso   1.00
H221   H     0.44230   0.21478   0.76062   0.00000  Uiso   1.00
O222   O     0.52856   0.21173   0.75298   0.00000  Uiso   1.00
O223   O     0.80469   0.34973   0.99867   0.00000  Uiso   1.00
O224   O     0.33329   0.07480   0.70906   0.00000  Uiso   1.00
N225   N     0.50957   0.15054   0.61688   0.00000  Uiso   1.00
N226   N     0.70634   0.24890   0.07934   0.00000  Uiso   1.00
N227   N     0.94130   0.48212   0.01468   0.00000  Uiso   1.00
N228   N     0.62689   0.20920   0.67234   0.00000  Uiso   1.00
N229   N     0.82366   0.30755   0.13480   0.00000  Uiso   1.00
N230   N     0.39195   0.20744   0.73680   0.00000  Uiso   1.00
C231   C     0.59762   0.06645   0.34324   0.00000  Uiso   1.00
C232   C     0.93535   0.77062   0.09888   0.00000  Uiso   1.00
C233   C     0.20704   0.43615   0.80946   0.00000  Uiso   1.00
C234   C     0.22300   0.47385   0.89015   0.00000  Uiso   1.00
C235   C     0.21844   0.52642   0.02289   0.00000  Uiso   1.00
C236   C     0.65625   0.13107   0.28407   0.00000  Uiso   1.00
C237   C     0.64020   0.15272   0.20342   0.00000  Uiso   1.00
C238   C     0.36848   0.54659   0.49273   0.00000  Uiso   1.00
C239   C     0.44813   0.64121   0.39544   0.00000  Uiso   1.00
C240   C     0.62913   0.01161   0.35813   0.00000  Uiso   1.00
C241   C     0.59029   0.93283   0.33972   0.00000  Uiso   1.00
C242   C     0.62908   0.89278   0.35803   0.00000  Uiso   1.00
C243   C     0.99996   0.46860   0.04240   0.00000  Uiso   1.00
C244   C     0.06892   0.80209   0.07512   0.00000  Uiso   1.00
C245   C     0.01029   0.80808   0.13430   0.00000  Uiso   1.00
C246   C     0.35968   0.51246   0.88161   0.00000  Uiso   1.00
C247   C     0.29807   0.51138   0.92564   0.00000  Uiso   1.00
C248   C     0.06452   0.83520   0.98616   0.00000  Uiso   1.00
C249   C     0.12618   0.89571   0.94224   0.00000  Uiso   1.00
C250   C     0.44356   0.58412   0.52821   0.00000  Uiso   1.00
C251   C     0.03740   0.71574   0.06022   0.00000  Uiso   1.00
C252   C     0.07627   0.67581   0.07855   0.00000  Uiso   1.00
C253   C     0.03749   0.59698   0.06018   0.00000  Uiso   1.00
H254   H     0.53928   0.03728   0.31566   0.00000  Uiso   1.00
H255   H     0.81572   0.74049   0.11535   0.00000  Uiso   1.00
H256   H     0.58220   0.12372   0.17602   0.00000  Uiso   1.00
H257   H     0.53230   0.90385   0.31231   0.00000  Uiso   1.00
H258   H     0.11903   0.46421   0.94511   0.00000  Uiso   1.00
H259   H     0.32950   0.56940   0.37017   0.00000  Uiso   1.00
H260   H     0.55761   0.77244   0.32422   0.00000  Uiso   1.00
H261   H     0.12726   0.83126   0.10270   0.00000  Uiso   1.00
H262   H     0.41768   0.54145   0.90901   0.00000  Uiso   1.00
H263   H     0.18416   0.92468   0.96967   0.00000  Uiso   1.00
H264   H     0.13426   0.70482   0.10596   0.00000  Uiso   1.00
H265   H     0.33706   0.57321   0.04818   0.00000  Uiso   1.00
H266   H     0.88087   0.34507   0.13989   0.00000  Uiso   1.00
H267   H     0.10897   0.54811   0.09395   0.00000  Uiso   1.00
O268   O     0.19523   0.54507   0.08631   0.00000  Uiso   1.00
O269   O     0.47136   0.68306   0.33200   0.00000  Uiso   1.00
O270   O     0.99996   0.40813   0.04239   0.00000  Uiso   1.00
N271   N     0.17623   0.48388   0.95021   0.00000  Uiso   1.00
N272   N     0.37301   0.58223   0.41268   0.00000  Uiso   1.00
N273   N     0.60797   0.81545   0.34801   0.00000  Uiso   1.00
N274   N     0.29355   0.54253   0.00567   0.00000  Uiso   1.00
N275   N     0.49033   0.64088   0.46814   0.00000  Uiso   1.00
N276   N     0.05862   0.54077   0.07013   0.00000  Uiso   1.00
C277   C     0.60022   0.86450   0.67658   0.00000  Uiso   1.00
C278   C     0.89605   0.49807   0.43221   0.00000  Uiso   1.00
C279   C     0.23052   0.10422   0.14279   0.00000  Uiso   1.00
C280   C     0.19281   0.08248   0.22348   0.00000  Uiso   1.00
C281   C     0.14025   0.02536   0.35622   0.00000  Uiso   1.00
C282   C     0.53560   0.85852   0.61740   0.00000  Uiso   1.00
C283   C     0.51394   0.82081   0.53675   0.00000  Uiso   1.00
C284   C     0.12008   0.15523   0.82606   0.00000  Uiso   1.00
C285   C     0.02546   0.14025   0.72878   0.00000  Uiso   1.00
C286   C     0.65506   0.95086   0.69146   0.00000  Uiso   1.00
C287   C     0.73384   0.99080   0.67306   0.00000  Uiso   1.00
C288   C     0.77389   0.06963   0.69136   0.00000  Uiso   1.00
C289   C     0.19807   0.86470   0.37573   0.00000  Uiso   1.00
C290   C     0.86457   0.60016   0.40846   0.00000  Uiso   1.00
C291   C     0.85858   0.53554   0.46763   0.00000  Uiso   1.00
C292   C     0.15420   0.18055   0.21495   0.00000  Uiso   1.00
C293   C     0.15528   0.12002   0.25897   0.00000  Uiso   1.00
C294   C     0.83147   0.56265   0.31949   0.00000  Uiso   1.00
C295   C     0.77096   0.56380   0.27557   0.00000  Uiso   1.00
C296   C     0.08255   0.19277   0.86155   0.00000  Uiso   1.00
C297   C     0.95093   0.65500   0.39355   0.00000  Uiso   1.00
C298   C     0.99086   0.73379   0.41188   0.00000  Uiso   1.00
C299   C     0.06968   0.77384   0.39351   0.00000  Uiso   1.00
H300   H     0.62938   0.83533   0.64899   0.00000  Uiso   1.00
H301   H     0.92618   0.40857   0.44869   0.00000  Uiso   1.00
H302   H     0.54295   0.79182   0.50935   0.00000  Uiso   1.00
H303   H     0.76281   0.96178   0.64564   0.00000  Uiso   1.00
H304   H     0.20246   0.98816   0.27844   0.00000  Uiso   1.00
H305   H     0.09727   0.09344   0.70350   0.00000  Uiso   1.00
H306   H     0.89423   0.11850   0.65756   0.00000  Uiso   1.00
H307   H     0.83540   0.62933   0.43603   0.00000  Uiso   1.00
H308   H     0.12521   0.20956   0.24234   0.00000  Uiso   1.00
H309   H     0.74198   0.59281   0.30300   0.00000  Uiso   1.00
H310   H     0.96185   0.76277   0.43929   0.00000  Uiso   1.00
H311   H     0.09345   0.09718   0.38151   0.00000  Uiso   1.00
H312   H     0.32160   0.86913   0.47322   0.00000  Uiso   1.00
H313   H     0.11855   0.89419   0.42729   0.00000  Uiso   1.00
O314   O     0.12160   0.98349   0.41965   0.00000  Uiso   1.00
O315   O     0.98361   0.12163   0.66533   0.00000  Uiso   1.00
O316   O     0.25853   0.92516   0.37572   0.00000  Uiso   1.00
N317   N     0.18279   0.02569   0.28355   0.00000  Uiso   1.00
N318   N     0.08444   0.12411   0.74601   0.00000  Uiso   1.00
N319   N     0.85121   0.12585   0.68134   0.00000  Uiso   1.00
N320   N     0.12414   0.08436   0.33900   0.00000  Uiso   1.00
N321   N     0.02578   0.18278   0.80147   0.00000  Uiso   1.00
N322   N     0.12589   0.85118   0.40347   0.00000  Uiso   1.00
C323   C     0.26688   0.19783   0.00991   0.00000  Uiso   1.00
C324   C     0.56272   0.83140   0.76555   0.00000  Uiso   1.00
C325   C     0.89718   0.43756   0.47613   0.00000  Uiso   1.00
C326   C     0.85948   0.41581   0.55681   0.00000  Uiso   1.00
C327   C     0.80692   0.35869   0.68955   0.00000  Uiso   1.00
C328   C     0.20227   0.19185   0.95074   0.00000  Uiso   1.00
C329   C     0.18061   0.15414   0.87008   0.00000  Uiso   1.00
C330   C     0.78675   0.48856   0.15939   0.00000  Uiso   1.00
C331   C     0.69212   0.47359   0.06211   0.00000  Uiso   1.00
C332   C     0.32172   0.28419   0.02479   0.00000  Uiso   1.00
C333   C     0.40051   0.32413   0.00639   0.00000  Uiso   1.00
C334   C     0.44055   0.40297   0.02470   0.00000  Uiso   1.00
C335   C     0.86474   0.19803   0.70907   0.00000  Uiso   1.00
C336   C     0.53124   0.93349   0.74179   0.00000  Uiso   1.00
C337   C     0.52525   0.86888   0.80097   0.00000  Uiso   1.00
C338   C     0.82087   0.51389   0.54828   0.00000  Uiso   1.00
C339   C     0.82195   0.45335   0.59230   0.00000  Uiso   1.00
C340   C     0.49813   0.89599   0.65282   0.00000  Uiso   1.00
C341   C     0.43763   0.89714   0.60891   0.00000  Uiso   1.00
C342   C     0.74921   0.52610   0.19488   0.00000  Uiso   1.00
C343   C     0.61759   0.98833   0.72689   0.00000  Uiso   1.00
C344   C     0.65752   0.06712   0.74522   0.00000  Uiso   1.00
C345   C     0.73635   0.10717   0.72685   0.00000  Uiso   1.00
H346   H     0.29605   0.16866   0.98233   0.00000  Uiso   1.00
H347   H     0.59285   0.74190   0.78202   0.00000  Uiso   1.00
H348   H     0.20962   0.12515   0.84269   0.00000  Uiso   1.00
H349   H     0.42948   0.29511   0.97898   0.00000  Uiso   1.00
H350   H     0.86912   0.32149   0.61178   0.00000  Uiso   1.00
H351   H     0.76394   0.42677   0.03683   0.00000  Uiso   1.00
H352   H     0.56089   0.45183   0.99089   0.00000  Uiso   1.00
H353   H     0.50207   0.96267   0.76937   0.00000  Uiso   1.00
H354   H     0.79188   0.54289   0.57567   0.00000  Uiso   1.00
H355   H     0.40865   0.92615   0.63634   0.00000  Uiso   1.00
H356   H     0.62851   0.09610   0.77263   0.00000  Uiso   1.00
H357   H     0.76012   0.43052   0.71484   0.00000  Uiso   1.00
H358   H     0.98827   0.20246   0.80656   0.00000  Uiso   1.00
H359   H     0.78522   0.22752   0.76062   0.00000  Uiso   1.00
O360   O     0.78827   0.31683   0.75298   0.00000  Uiso   1.00
O361   O     0.65027   0.45496   0.99867   0.00000  Uiso   1.00
O362   O     0.92520   0.25850   0.70906   0.00000  Uiso   1.00
N363   N     0.84946   0.35902   0.61688   0.00000  Uiso   1.00
N364   N     0.75110   0.45744   0.07934   0.00000  Uiso   1.00
N365   N     0.51788   0.45918   0.01468   0.00000  Uiso   1.00
N366   N     0.79080   0.41769   0.67234   0.00000  Uiso   1.00
N367   N     0.69245   0.51611   0.13480   0.00000  Uiso   1.00
N368   N     0.79256   0.18451   0.73680   0.00000  Uiso   1.00
C369   C     0.93355   0.53117   0.34324   0.00000  Uiso   1.00
C370   C     0.22938   0.16474   0.09888   0.00000  Uiso   1.00
C371   C     0.56385   0.77089   0.80946   0.00000  Uiso   1.00
C372   C     0.52615   0.74914   0.89015   0.00000  Uiso   1.00
C373   C     0.47358   0.69202   0.02289   0.00000  Uiso   1.00
C374   C     0.86893   0.52518   0.28407   0.00000  Uiso   1.00
C375   C     0.84728   0.48747   0.20342   0.00000  Uiso   1.00
C376   C     0.45341   0.82190   0.49273   0.00000  Uiso   1.00
C377   C     0.35879   0.80692   0.39544   0.00000  Uiso   1.00
C378   C     0.98839   0.61752   0.35813   0.00000  Uiso   1.00
C379   C     0.06717   0.65746   0.33972   0.00000  Uiso   1.00
C380   C     0.10722   0.73630   0.35803   0.00000  Uiso   1.00
C381   C     0.53140   0.53136   0.04240   0.00000  Uiso   1.00
C382   C     0.19791   0.26683   0.07512   0.00000  Uiso   1.00
C383   C     0.19192   0.20221   0.13430   0.00000  Uiso   1.00
C384   C     0.48754   0.84722   0.88161   0.00000  Uiso   1.00
C385   C     0.48862   0.78668   0.92564   0.00000  Uiso   1.00
C386   C     0.16480   0.22932   0.98616   0.00000  Uiso   1.00
C387   C     0.10429   0.23047   0.94224   0.00000  Uiso   1.00
C388   C     0.41588   0.85944   0.52821   0.00000  Uiso   1.00
C389   C     0.28426   0.32166   0.06022   0.00000  Uiso   1.00
C390   C     0.32419   0.40046   0.07855   0.00000  Uiso   1.00
C391   C     0.40302   0.44051   0.06018   0.00000  Uiso   1.00
H392   H     0.96272   0.50199   0.31566   0.00000  Uiso   1.00
H393   H     0.25951   0.07523   0.11535   0.00000  Uiso   1.00
H394   H     0.87628   0.45849   0.17602   0.00000  Uiso   1.00
H395   H     0.09615   0.62844   0.31231   0.00000  Uiso   1.00
H396   H     0.53579   0.65483   0.94511   0.00000  Uiso   1.00
H397   H     0.43060   0.76011   0.37017   0.00000  Uiso   1.00
H398   H     0.22756   0.78517   0.32422   0.00000  Uiso   1.00
H399   H     0.16874   0.29600   0.10270   0.00000  Uiso   1.00
H400   H     0.45855   0.87623   0.90901   0.00000  Uiso   1.00
H401   H     0.07532   0.25948   0.96967   0.00000  Uiso   1.00
H402   H     0.29518   0.42944   0.10596   0.00000  Uiso   1.00
H403   H     0.42679   0.76385   0.04818   0.00000  Uiso   1.00
H404   H     0.65493   0.53580   0.13989   0.00000  Uiso   1.00
H405   H     0.45189   0.56086   0.09395   0.00000  Uiso   1.00
O406   O     0.45493   0.65016   0.08631   0.00000  Uiso   1.00
O407   O     0.31694   0.78830   0.33200   0.00000  Uiso   1.00
O408   O     0.59187   0.59183   0.04239   0.00000  Uiso   1.00
N409   N     0.51612   0.69236   0.95021   0.00000  Uiso   1.00
N410   N     0.41777   0.79078   0.41268   0.00000  Uiso   1.00
N411   N     0.18455   0.79252   0.34801   0.00000  Uiso   1.00
N412   N     0.45747   0.75102   0.00567   0.00000  Uiso   1.00
N413   N     0.35912   0.84944   0.46814   0.00000  Uiso   1.00
N414   N     0.45923   0.51785   0.07013   0.00000  Uiso   1.00
