data_job_03962
_audit_creation_date              2018-12-19
_audit_creation_method            'Materials Studio'
_symmetry_space_group_name_H-M    'P1'
_symmetry_Int_Tables_number       1
_symmetry_cell_setting            triclinic
loop_
_symmetry_equiv_pos_as_xyz
  x,y,z
_cell_length_a                    12.1800
_cell_length_b                    16.0253
_cell_length_c                    32.0568
_cell_angle_alpha                 90.0000
_cell_angle_beta                  75.5737
_cell_angle_gamma                 90.0000
loop_
_atom_site_label
_atom_site_type_symbol
_atom_site_fract_x
_atom_site_fract_y
_atom_site_fract_z
_atom_site_U_iso_or_equiv
_atom_site_adp_type
_atom_site_occupancy
C1     C     0.73993   0.40489   0.90370   0.00000  Uiso   1.00
C2     C     0.76873   0.43626   0.85733   0.00000  Uiso   1.00
C3     C     0.80564   0.51605   0.84391   0.00000  Uiso   1.00
C4     C     0.82750   0.53245   0.80008   0.00000  Uiso   1.00
C5     C     0.87439   0.59049   0.73254   0.00000  Uiso   1.00
C6     C     0.61841   0.37275   0.91289   0.00000  Uiso   1.00
C7     C     0.52894   0.39914   0.94619   0.00000  Uiso   1.00
C8     C     0.42425   0.36207   0.94913   0.00000  Uiso   1.00
C9     C     0.23778   0.32147   0.96787   0.00000  Uiso   1.00
C10    C     0.81424   0.32839   0.90389   0.00000  Uiso   1.00
C11    C     0.88940   0.31746   0.92963   0.00000  Uiso   1.00
C12    C     0.94957   0.24302   0.92501   0.00000  Uiso   1.00
C13    C     0.06716   0.13353   0.92978   0.00000  Uiso   1.00
C14    C     0.71310   0.29212   0.84973   0.00000  Uiso   1.00
C15    C     0.75416   0.37501   0.82802   0.00000  Uiso   1.00
C16    C     0.77596   0.39129   0.78420   0.00000  Uiso   1.00
C17    C     0.81290   0.47109   0.77071   0.00000  Uiso   1.00
C18    C     0.60383   0.31150   0.88358   0.00000  Uiso   1.00
C19    C     0.49925   0.27438   0.88647   0.00000  Uiso   1.00
C20    C     0.40965   0.30071   0.91976   0.00000  Uiso   1.00
C21    C     0.79967   0.26713   0.87458   0.00000  Uiso   1.00
C22    C     0.85972   0.19270   0.86992   0.00000  Uiso   1.00
C23    C     0.93497   0.18166   0.89564   0.00000  Uiso   1.00
H24    H     0.75126   0.45258   0.92652   0.00000  Uiso   1.00
H25    H     0.81690   0.56344   0.86661   0.00000  Uiso   1.00
H26    H     0.54024   0.44654   0.96887   0.00000  Uiso   1.00
H27    H     0.90066   0.36487   0.95231   0.00000  Uiso   1.00
H28    H     0.88321   0.65935   0.78725   0.00000  Uiso   1.00
H29    H     0.29986   0.41284   0.00289   0.00000  Uiso   1.00
H30    H     0.05987   0.24062   0.96798   0.00000  Uiso   1.00
H31    H     0.70175   0.24443   0.82691   0.00000  Uiso   1.00
H32    H     0.76468   0.34388   0.76152   0.00000  Uiso   1.00
H33    H     0.48801   0.22698   0.86378   0.00000  Uiso   1.00
H34    H     0.84843   0.14531   0.84723   0.00000  Uiso   1.00
H35    H     0.84081   0.48114   0.70196   0.00000  Uiso   1.00
H36    H     0.25747   0.23463   0.91760   0.00000  Uiso   1.00
H37    H     0.01748   0.06242   0.88269   0.00000  Uiso   1.00
O38    O     0.90426   0.63942   0.70339   0.00000  Uiso   1.00
O39    O     0.13895   0.31600   0.98630   0.00000  Uiso   1.00
O40    O     0.13606   0.09007   0.94050   0.00000  Uiso   1.00
N41    N     0.86462   0.60375   0.77615   0.00000  Uiso   1.00
N42    N     0.31922   0.37329   0.97775   0.00000  Uiso   1.00
N43    N     0.02974   0.21228   0.94512   0.00000  Uiso   1.00
N44    N     0.84181   0.50786   0.73025   0.00000  Uiso   1.00
N45    N     0.29641   0.27740   0.93186   0.00000  Uiso   1.00
N46    N     0.00693   0.11639   0.89923   0.00000  Uiso   1.00
C47    C     0.23993   0.90489   0.90370   0.00000  Uiso   1.00
C48    C     0.26873   0.93626   0.85733   0.00000  Uiso   1.00
C49    C     0.30564   0.01605   0.84391   0.00000  Uiso   1.00
C50    C     0.32750   0.03245   0.80008   0.00000  Uiso   1.00
C51    C     0.37439   0.09049   0.73254   0.00000  Uiso   1.00
C52    C     0.11841   0.87275   0.91289   0.00000  Uiso   1.00
C53    C     0.02894   0.89914   0.94619   0.00000  Uiso   1.00
C54    C     0.92425   0.86207   0.94913   0.00000  Uiso   1.00
C55    C     0.73778   0.82147   0.96787   0.00000  Uiso   1.00
C56    C     0.31424   0.82839   0.90389   0.00000  Uiso   1.00
C57    C     0.38940   0.81746   0.92963   0.00000  Uiso   1.00
C58    C     0.44957   0.74302   0.92501   0.00000  Uiso   1.00
C59    C     0.56716   0.63353   0.92978   0.00000  Uiso   1.00
C60    C     0.21310   0.79212   0.84973   0.00000  Uiso   1.00
C61    C     0.25416   0.87501   0.82802   0.00000  Uiso   1.00
C62    C     0.27596   0.89129   0.78420   0.00000  Uiso   1.00
C63    C     0.31290   0.97109   0.77071   0.00000  Uiso   1.00
C64    C     0.10383   0.81150   0.88358   0.00000  Uiso   1.00
C65    C     0.99925   0.77438   0.88647   0.00000  Uiso   1.00
C66    C     0.90965   0.80071   0.91976   0.00000  Uiso   1.00
C67    C     0.29967   0.76713   0.87458   0.00000  Uiso   1.00
C68    C     0.35972   0.69270   0.86992   0.00000  Uiso   1.00
C69    C     0.43497   0.68166   0.89564   0.00000  Uiso   1.00
H70    H     0.25126   0.95258   0.92652   0.00000  Uiso   1.00
H71    H     0.31690   0.06344   0.86661   0.00000  Uiso   1.00
H72    H     0.04024   0.94654   0.96887   0.00000  Uiso   1.00
H73    H     0.40066   0.86487   0.95231   0.00000  Uiso   1.00
H74    H     0.38321   0.15935   0.78725   0.00000  Uiso   1.00
H75    H     0.79986   0.91284   0.00289   0.00000  Uiso   1.00
H76    H     0.55987   0.74062   0.96798   0.00000  Uiso   1.00
H77    H     0.20175   0.74443   0.82691   0.00000  Uiso   1.00
H78    H     0.26468   0.84388   0.76152   0.00000  Uiso   1.00
H79    H     0.98801   0.72698   0.86378   0.00000  Uiso   1.00
H80    H     0.34843   0.64531   0.84723   0.00000  Uiso   1.00
H81    H     0.34081   0.98114   0.70196   0.00000  Uiso   1.00
H82    H     0.75747   0.73463   0.91760   0.00000  Uiso   1.00
H83    H     0.51748   0.56242   0.88269   0.00000  Uiso   1.00
O84    O     0.40426   0.13942   0.70339   0.00000  Uiso   1.00
O85    O     0.63895   0.81600   0.98630   0.00000  Uiso   1.00
O86    O     0.63606   0.59007   0.94050   0.00000  Uiso   1.00
N87    N     0.36462   0.10375   0.77615   0.00000  Uiso   1.00
N88    N     0.81922   0.87329   0.97775   0.00000  Uiso   1.00
N89    N     0.52974   0.71228   0.94512   0.00000  Uiso   1.00
N90    N     0.34181   0.00786   0.73025   0.00000  Uiso   1.00
N91    N     0.79641   0.77740   0.93186   0.00000  Uiso   1.00
N92    N     0.50693   0.61639   0.89923   0.00000  Uiso   1.00
C93    C     0.26007   0.40489   0.59630   0.00000  Uiso   1.00
C94    C     0.23127   0.43626   0.64267   0.00000  Uiso   1.00
C95    C     0.19436   0.51605   0.65609   0.00000  Uiso   1.00
C96    C     0.17250   0.53245   0.69992   0.00000  Uiso   1.00
C97    C     0.12561   0.59049   0.76746   0.00000  Uiso   1.00
C98    C     0.38159   0.37275   0.58711   0.00000  Uiso   1.00
C99    C     0.47106   0.39914   0.55381   0.00000  Uiso   1.00
C100   C     0.57575   0.36207   0.55087   0.00000  Uiso   1.00
C101   C     0.76222   0.32147   0.53213   0.00000  Uiso   1.00
C102   C     0.18576   0.32839   0.59611   0.00000  Uiso   1.00
C103   C     0.11060   0.31746   0.57037   0.00000  Uiso   1.00
C104   C     0.05043   0.24302   0.57499   0.00000  Uiso   1.00
C105   C     0.93284   0.13353   0.57022   0.00000  Uiso   1.00
C106   C     0.28690   0.29212   0.65027   0.00000  Uiso   1.00
C107   C     0.24584   0.37501   0.67198   0.00000  Uiso   1.00
C108   C     0.22404   0.39129   0.71580   0.00000  Uiso   1.00
C109   C     0.18710   0.47109   0.72929   0.00000  Uiso   1.00
C110   C     0.39617   0.31150   0.61642   0.00000  Uiso   1.00
C111   C     0.50075   0.27438   0.61353   0.00000  Uiso   1.00
C112   C     0.59035   0.30071   0.58024   0.00000  Uiso   1.00
C113   C     0.20033   0.26713   0.62542   0.00000  Uiso   1.00
C114   C     0.14028   0.19270   0.63008   0.00000  Uiso   1.00
C115   C     0.06503   0.18166   0.60436   0.00000  Uiso   1.00
H116   H     0.24874   0.45258   0.57348   0.00000  Uiso   1.00
H117   H     0.18310   0.56344   0.63339   0.00000  Uiso   1.00
H118   H     0.45976   0.44654   0.53113   0.00000  Uiso   1.00
H119   H     0.09934   0.36487   0.54769   0.00000  Uiso   1.00
H120   H     0.11679   0.65935   0.71275   0.00000  Uiso   1.00
H121   H     0.70014   0.41284   0.49711   0.00000  Uiso   1.00
H122   H     0.94013   0.24062   0.53202   0.00000  Uiso   1.00
H123   H     0.29825   0.24443   0.67309   0.00000  Uiso   1.00
H124   H     0.23532   0.34388   0.73848   0.00000  Uiso   1.00
H125   H     0.51199   0.22698   0.63622   0.00000  Uiso   1.00
H126   H     0.15157   0.14531   0.65277   0.00000  Uiso   1.00
H127   H     0.15919   0.48114   0.79804   0.00000  Uiso   1.00
H128   H     0.74253   0.23463   0.58240   0.00000  Uiso   1.00
H129   H     0.98252   0.06242   0.61731   0.00000  Uiso   1.00
O130   O     0.09574   0.63942   0.79661   0.00000  Uiso   1.00
O131   O     0.86105   0.31600   0.51370   0.00000  Uiso   1.00
O132   O     0.86394   0.09007   0.55950   0.00000  Uiso   1.00
N133   N     0.13538   0.60375   0.72385   0.00000  Uiso   1.00
N134   N     0.68078   0.37329   0.52225   0.00000  Uiso   1.00
N135   N     0.97026   0.21228   0.55488   0.00000  Uiso   1.00
N136   N     0.15819   0.50786   0.76975   0.00000  Uiso   1.00
N137   N     0.70359   0.27740   0.56814   0.00000  Uiso   1.00
N138   N     0.99307   0.11639   0.60077   0.00000  Uiso   1.00
C139   C     0.76007   0.90489   0.59630   0.00000  Uiso   1.00
C140   C     0.73127   0.93626   0.64267   0.00000  Uiso   1.00
C141   C     0.69436   0.01605   0.65609   0.00000  Uiso   1.00
C142   C     0.67250   0.03245   0.69992   0.00000  Uiso   1.00
C143   C     0.62561   0.09049   0.76746   0.00000  Uiso   1.00
C144   C     0.88159   0.87275   0.58711   0.00000  Uiso   1.00
C145   C     0.97106   0.89914   0.55381   0.00000  Uiso   1.00
C146   C     0.07575   0.86207   0.55087   0.00000  Uiso   1.00
C147   C     0.26222   0.82147   0.53213   0.00000  Uiso   1.00
C148   C     0.68576   0.82839   0.59611   0.00000  Uiso   1.00
C149   C     0.61060   0.81746   0.57037   0.00000  Uiso   1.00
C150   C     0.55043   0.74302   0.57499   0.00000  Uiso   1.00
C151   C     0.43284   0.63353   0.57022   0.00000  Uiso   1.00
C152   C     0.78690   0.79212   0.65027   0.00000  Uiso   1.00
C153   C     0.74584   0.87501   0.67198   0.00000  Uiso   1.00
C154   C     0.72404   0.89129   0.71580   0.00000  Uiso   1.00
C155   C     0.68710   0.97109   0.72929   0.00000  Uiso   1.00
C156   C     0.89617   0.81150   0.61642   0.00000  Uiso   1.00
C157   C     0.00075   0.77438   0.61353   0.00000  Uiso   1.00
C158   C     0.09035   0.80071   0.58024   0.00000  Uiso   1.00
C159   C     0.70033   0.76713   0.62542   0.00000  Uiso   1.00
C160   C     0.64028   0.69270   0.63008   0.00000  Uiso   1.00
C161   C     0.56503   0.68166   0.60436   0.00000  Uiso   1.00
H162   H     0.74874   0.95258   0.57348   0.00000  Uiso   1.00
H163   H     0.68310   0.06344   0.63339   0.00000  Uiso   1.00
H164   H     0.95976   0.94654   0.53113   0.00000  Uiso   1.00
H165   H     0.59934   0.86487   0.54769   0.00000  Uiso   1.00
H166   H     0.61679   0.15935   0.71275   0.00000  Uiso   1.00
H167   H     0.20014   0.91284   0.49711   0.00000  Uiso   1.00
H168   H     0.44013   0.74062   0.53202   0.00000  Uiso   1.00
H169   H     0.79825   0.74443   0.67309   0.00000  Uiso   1.00
H170   H     0.73532   0.84388   0.73848   0.00000  Uiso   1.00
H171   H     0.01199   0.72698   0.63622   0.00000  Uiso   1.00
H172   H     0.65157   0.64531   0.65277   0.00000  Uiso   1.00
H173   H     0.65919   0.98114   0.79804   0.00000  Uiso   1.00
H174   H     0.24253   0.73463   0.58240   0.00000  Uiso   1.00
H175   H     0.48252   0.56242   0.61731   0.00000  Uiso   1.00
O176   O     0.59574   0.13942   0.79661   0.00000  Uiso   1.00
O177   O     0.36105   0.81600   0.51370   0.00000  Uiso   1.00
O178   O     0.36394   0.59007   0.55950   0.00000  Uiso   1.00
N179   N     0.63538   0.10375   0.72385   0.00000  Uiso   1.00
N180   N     0.18078   0.87329   0.52225   0.00000  Uiso   1.00
N181   N     0.47026   0.71228   0.55488   0.00000  Uiso   1.00
N182   N     0.65819   0.00786   0.76975   0.00000  Uiso   1.00
N183   N     0.20359   0.77740   0.56814   0.00000  Uiso   1.00
N184   N     0.49307   0.61639   0.60077   0.00000  Uiso   1.00
C185   C     0.26007   0.59511   0.09630   0.00000  Uiso   1.00
C186   C     0.23127   0.56374   0.14267   0.00000  Uiso   1.00
C187   C     0.19436   0.48395   0.15609   0.00000  Uiso   1.00
C188   C     0.17250   0.46755   0.19992   0.00000  Uiso   1.00
C189   C     0.12561   0.40951   0.26746   0.00000  Uiso   1.00
C190   C     0.38159   0.62725   0.08711   0.00000  Uiso   1.00
C191   C     0.47106   0.60086   0.05381   0.00000  Uiso   1.00
C192   C     0.57575   0.63793   0.05087   0.00000  Uiso   1.00
C193   C     0.76222   0.67853   0.03213   0.00000  Uiso   1.00
C194   C     0.18576   0.67161   0.09611   0.00000  Uiso   1.00
C195   C     0.11060   0.68254   0.07037   0.00000  Uiso   1.00
C196   C     0.05043   0.75698   0.07499   0.00000  Uiso   1.00
C197   C     0.93284   0.86647   0.07022   0.00000  Uiso   1.00
C198   C     0.28690   0.70788   0.15027   0.00000  Uiso   1.00
C199   C     0.24584   0.62499   0.17198   0.00000  Uiso   1.00
C200   C     0.22404   0.60871   0.21580   0.00000  Uiso   1.00
C201   C     0.18710   0.52891   0.22929   0.00000  Uiso   1.00
C202   C     0.39617   0.68850   0.11642   0.00000  Uiso   1.00
C203   C     0.50075   0.72562   0.11353   0.00000  Uiso   1.00
C204   C     0.59035   0.69929   0.08024   0.00000  Uiso   1.00
C205   C     0.20033   0.73287   0.12542   0.00000  Uiso   1.00
C206   C     0.14028   0.80730   0.13008   0.00000  Uiso   1.00
C207   C     0.06503   0.81834   0.10436   0.00000  Uiso   1.00
H208   H     0.24874   0.54742   0.07348   0.00000  Uiso   1.00
H209   H     0.18310   0.43656   0.13339   0.00000  Uiso   1.00
H210   H     0.45976   0.55346   0.03113   0.00000  Uiso   1.00
H211   H     0.09934   0.63513   0.04769   0.00000  Uiso   1.00
H212   H     0.11679   0.34065   0.21275   0.00000  Uiso   1.00
H213   H     0.70014   0.58716   0.99711   0.00000  Uiso   1.00
H214   H     0.94013   0.75938   0.03202   0.00000  Uiso   1.00
H215   H     0.29825   0.75557   0.17309   0.00000  Uiso   1.00
H216   H     0.23532   0.65612   0.23848   0.00000  Uiso   1.00
H217   H     0.51199   0.77302   0.13622   0.00000  Uiso   1.00
H218   H     0.15157   0.85469   0.15277   0.00000  Uiso   1.00
H219   H     0.15919   0.51886   0.29804   0.00000  Uiso   1.00
H220   H     0.74253   0.76537   0.08240   0.00000  Uiso   1.00
H221   H     0.98252   0.93758   0.11731   0.00000  Uiso   1.00
O222   O     0.09574   0.36058   0.29661   0.00000  Uiso   1.00
O223   O     0.86105   0.68400   0.01370   0.00000  Uiso   1.00
O224   O     0.86394   0.90993   0.05950   0.00000  Uiso   1.00
N225   N     0.13538   0.39625   0.22385   0.00000  Uiso   1.00
N226   N     0.68078   0.62671   0.02225   0.00000  Uiso   1.00
N227   N     0.97026   0.78772   0.05488   0.00000  Uiso   1.00
N228   N     0.15819   0.49214   0.26975   0.00000  Uiso   1.00
N229   N     0.70359   0.72260   0.06814   0.00000  Uiso   1.00
N230   N     0.99307   0.88361   0.10077   0.00000  Uiso   1.00
C231   C     0.76007   0.09511   0.09630   0.00000  Uiso   1.00
C232   C     0.73127   0.06374   0.14267   0.00000  Uiso   1.00
C233   C     0.69436   0.98395   0.15609   0.00000  Uiso   1.00
C234   C     0.67250   0.96755   0.19992   0.00000  Uiso   1.00
C235   C     0.62561   0.90951   0.26746   0.00000  Uiso   1.00
C236   C     0.88159   0.12725   0.08711   0.00000  Uiso   1.00
C237   C     0.97106   0.10086   0.05381   0.00000  Uiso   1.00
C238   C     0.07575   0.13793   0.05087   0.00000  Uiso   1.00
C239   C     0.26222   0.17853   0.03213   0.00000  Uiso   1.00
C240   C     0.68576   0.17161   0.09611   0.00000  Uiso   1.00
C241   C     0.61060   0.18254   0.07037   0.00000  Uiso   1.00
C242   C     0.55043   0.25698   0.07499   0.00000  Uiso   1.00
C243   C     0.43284   0.36647   0.07022   0.00000  Uiso   1.00
C244   C     0.78690   0.20788   0.15027   0.00000  Uiso   1.00
C245   C     0.74584   0.12499   0.17198   0.00000  Uiso   1.00
C246   C     0.72404   0.10871   0.21580   0.00000  Uiso   1.00
C247   C     0.68710   0.02891   0.22929   0.00000  Uiso   1.00
C248   C     0.89617   0.18850   0.11642   0.00000  Uiso   1.00
C249   C     0.00075   0.22562   0.11353   0.00000  Uiso   1.00
C250   C     0.09035   0.19929   0.08024   0.00000  Uiso   1.00
C251   C     0.70033   0.23287   0.12542   0.00000  Uiso   1.00
C252   C     0.64028   0.30730   0.13008   0.00000  Uiso   1.00
C253   C     0.56503   0.31834   0.10436   0.00000  Uiso   1.00
H254   H     0.74874   0.04742   0.07348   0.00000  Uiso   1.00
H255   H     0.68310   0.93656   0.13339   0.00000  Uiso   1.00
H256   H     0.95976   0.05346   0.03113   0.00000  Uiso   1.00
H257   H     0.59934   0.13513   0.04769   0.00000  Uiso   1.00
H258   H     0.61679   0.84065   0.21275   0.00000  Uiso   1.00
H259   H     0.20014   0.08716   0.99711   0.00000  Uiso   1.00
H260   H     0.44013   0.25938   0.03202   0.00000  Uiso   1.00
H261   H     0.79825   0.25557   0.17309   0.00000  Uiso   1.00
H262   H     0.73532   0.15612   0.23848   0.00000  Uiso   1.00
H263   H     0.01199   0.27302   0.13622   0.00000  Uiso   1.00
H264   H     0.65157   0.35469   0.15277   0.00000  Uiso   1.00
H265   H     0.65919   0.01886   0.29804   0.00000  Uiso   1.00
H266   H     0.24253   0.26537   0.08240   0.00000  Uiso   1.00
H267   H     0.48252   0.43758   0.11731   0.00000  Uiso   1.00
O268   O     0.59574   0.86058   0.29661   0.00000  Uiso   1.00
O269   O     0.36105   0.18400   0.01370   0.00000  Uiso   1.00
O270   O     0.36394   0.40993   0.05950   0.00000  Uiso   1.00
N271   N     0.63538   0.89625   0.22385   0.00000  Uiso   1.00
N272   N     0.18078   0.12671   0.02225   0.00000  Uiso   1.00
N273   N     0.47026   0.28772   0.05488   0.00000  Uiso   1.00
N274   N     0.65819   0.99214   0.26975   0.00000  Uiso   1.00
N275   N     0.20359   0.22260   0.06814   0.00000  Uiso   1.00
N276   N     0.49307   0.38361   0.10077   0.00000  Uiso   1.00
C277   C     0.73993   0.59511   0.40370   0.00000  Uiso   1.00
C278   C     0.76873   0.56374   0.35733   0.00000  Uiso   1.00
C279   C     0.80564   0.48395   0.34391   0.00000  Uiso   1.00
C280   C     0.82750   0.46755   0.30008   0.00000  Uiso   1.00
C281   C     0.87439   0.40951   0.23254   0.00000  Uiso   1.00
C282   C     0.61841   0.62725   0.41289   0.00000  Uiso   1.00
C283   C     0.52894   0.60086   0.44619   0.00000  Uiso   1.00
C284   C     0.42425   0.63793   0.44913   0.00000  Uiso   1.00
C285   C     0.23778   0.67853   0.46787   0.00000  Uiso   1.00
C286   C     0.81424   0.67161   0.40389   0.00000  Uiso   1.00
C287   C     0.88940   0.68254   0.42963   0.00000  Uiso   1.00
C288   C     0.94957   0.75698   0.42501   0.00000  Uiso   1.00
C289   C     0.06716   0.86647   0.42978   0.00000  Uiso   1.00
C290   C     0.71310   0.70788   0.34973   0.00000  Uiso   1.00
C291   C     0.75416   0.62499   0.32802   0.00000  Uiso   1.00
C292   C     0.77596   0.60871   0.28420   0.00000  Uiso   1.00
C293   C     0.81290   0.52891   0.27071   0.00000  Uiso   1.00
C294   C     0.60383   0.68850   0.38358   0.00000  Uiso   1.00
C295   C     0.49925   0.72562   0.38647   0.00000  Uiso   1.00
C296   C     0.40965   0.69929   0.41976   0.00000  Uiso   1.00
C297   C     0.79967   0.73287   0.37458   0.00000  Uiso   1.00
C298   C     0.85972   0.80730   0.36992   0.00000  Uiso   1.00
C299   C     0.93497   0.81834   0.39564   0.00000  Uiso   1.00
H300   H     0.75126   0.54742   0.42652   0.00000  Uiso   1.00
H301   H     0.81690   0.43656   0.36661   0.00000  Uiso   1.00
H302   H     0.54024   0.55346   0.46887   0.00000  Uiso   1.00
H303   H     0.90066   0.63513   0.45231   0.00000  Uiso   1.00
H304   H     0.88321   0.34065   0.28725   0.00000  Uiso   1.00
H305   H     0.29986   0.58716   0.50289   0.00000  Uiso   1.00
H306   H     0.05987   0.75938   0.46798   0.00000  Uiso   1.00
H307   H     0.70175   0.75557   0.32691   0.00000  Uiso   1.00
H308   H     0.76468   0.65612   0.26152   0.00000  Uiso   1.00
H309   H     0.48801   0.77302   0.36378   0.00000  Uiso   1.00
H310   H     0.84843   0.85469   0.34723   0.00000  Uiso   1.00
H311   H     0.84081   0.51886   0.20196   0.00000  Uiso   1.00
H312   H     0.25747   0.76537   0.41760   0.00000  Uiso   1.00
H313   H     0.01748   0.93758   0.38269   0.00000  Uiso   1.00
O314   O     0.90426   0.36058   0.20339   0.00000  Uiso   1.00
O315   O     0.13895   0.68400   0.48630   0.00000  Uiso   1.00
O316   O     0.13606   0.90993   0.44050   0.00000  Uiso   1.00
N317   N     0.86462   0.39625   0.27615   0.00000  Uiso   1.00
N318   N     0.31922   0.62671   0.47775   0.00000  Uiso   1.00
N319   N     0.02974   0.78772   0.44512   0.00000  Uiso   1.00
N320   N     0.84181   0.49214   0.23025   0.00000  Uiso   1.00
N321   N     0.29641   0.72260   0.43186   0.00000  Uiso   1.00
N322   N     0.00693   0.88361   0.39923   0.00000  Uiso   1.00
C323   C     0.23993   0.09511   0.40370   0.00000  Uiso   1.00
C324   C     0.26873   0.06374   0.35733   0.00000  Uiso   1.00
C325   C     0.30564   0.98395   0.34391   0.00000  Uiso   1.00
C326   C     0.32750   0.96755   0.30008   0.00000  Uiso   1.00
C327   C     0.37439   0.90951   0.23254   0.00000  Uiso   1.00
C328   C     0.11841   0.12725   0.41289   0.00000  Uiso   1.00
C329   C     0.02894   0.10086   0.44619   0.00000  Uiso   1.00
C330   C     0.92425   0.13793   0.44913   0.00000  Uiso   1.00
C331   C     0.73778   0.17853   0.46787   0.00000  Uiso   1.00
C332   C     0.31424   0.17161   0.40389   0.00000  Uiso   1.00
C333   C     0.38940   0.18254   0.42963   0.00000  Uiso   1.00
C334   C     0.44957   0.25698   0.42501   0.00000  Uiso   1.00
C335   C     0.56716   0.36647   0.42978   0.00000  Uiso   1.00
C336   C     0.21310   0.20788   0.34973   0.00000  Uiso   1.00
C337   C     0.25416   0.12499   0.32802   0.00000  Uiso   1.00
C338   C     0.27596   0.10871   0.28420   0.00000  Uiso   1.00
C339   C     0.31290   0.02891   0.27071   0.00000  Uiso   1.00
C340   C     0.10383   0.18850   0.38358   0.00000  Uiso   1.00
C341   C     0.99925   0.22562   0.38647   0.00000  Uiso   1.00
C342   C     0.90965   0.19929   0.41976   0.00000  Uiso   1.00
C343   C     0.29967   0.23287   0.37458   0.00000  Uiso   1.00
C344   C     0.35972   0.30730   0.36992   0.00000  Uiso   1.00
C345   C     0.43497   0.31834   0.39564   0.00000  Uiso   1.00
H346   H     0.25126   0.04742   0.42652   0.00000  Uiso   1.00
H347   H     0.31690   0.93656   0.36661   0.00000  Uiso   1.00
H348   H     0.04024   0.05346   0.46887   0.00000  Uiso   1.00
H349   H     0.40066   0.13513   0.45231   0.00000  Uiso   1.00
H350   H     0.38321   0.84065   0.28725   0.00000  Uiso   1.00
H351   H     0.79986   0.08716   0.50289   0.00000  Uiso   1.00
H352   H     0.55987   0.25938   0.46798   0.00000  Uiso   1.00
H353   H     0.20175   0.25557   0.32691   0.00000  Uiso   1.00
H354   H     0.26468   0.15612   0.26152   0.00000  Uiso   1.00
H355   H     0.98801   0.27302   0.36378   0.00000  Uiso   1.00
H356   H     0.34843   0.35469   0.34723   0.00000  Uiso   1.00
H357   H     0.34081   0.01886   0.20196   0.00000  Uiso   1.00
H358   H     0.75747   0.26537   0.41760   0.00000  Uiso   1.00
H359   H     0.51748   0.43758   0.38269   0.00000  Uiso   1.00
O360   O     0.40426   0.86058   0.20339   0.00000  Uiso   1.00
O361   O     0.63895   0.18400   0.48630   0.00000  Uiso   1.00
O362   O     0.63606   0.40993   0.44050   0.00000  Uiso   1.00
N363   N     0.36462   0.89625   0.27615   0.00000  Uiso   1.00
N364   N     0.81922   0.12671   0.47775   0.00000  Uiso   1.00
N365   N     0.52974   0.28772   0.44512   0.00000  Uiso   1.00
N366   N     0.34181   0.99214   0.23025   0.00000  Uiso   1.00
N367   N     0.79641   0.22260   0.43186   0.00000  Uiso   1.00
N368   N     0.50693   0.38361   0.39923   0.00000  Uiso   1.00
