data_job_03677
_audit_creation_date              2018-12-19
_audit_creation_method            'Materials Studio'
_symmetry_space_group_name_H-M    'P1'
_symmetry_Int_Tables_number       1
_symmetry_cell_setting            triclinic
loop_
_symmetry_equiv_pos_as_xyz
  x,y,z
_cell_length_a                    22.0927
_cell_length_b                    14.7555
_cell_length_c                    29.4941
_cell_angle_alpha                 90.0000
_cell_angle_beta                  34.1819
_cell_angle_gamma                 90.0000
loop_
_atom_site_label
_atom_site_type_symbol
_atom_site_fract_x
_atom_site_fract_y
_atom_site_fract_z
_atom_site_U_iso_or_equiv
_atom_site_adp_type
_atom_site_occupancy
C1     C     0.37445   0.04520   0.97274   0.00000  Uiso   1.00
C2     C     0.27930   0.04872   0.99904   0.00000  Uiso   1.00
C3     C     0.18253   0.09330   0.06663   0.00000  Uiso   1.00
C4     C     0.10556   0.08844   0.08025   0.00000  Uiso   1.00
C5     C     0.95487   0.10112   0.12905   0.00000  Uiso   1.00
C6     C     0.39727   0.94496   0.96673   0.00000  Uiso   1.00
C7     C     0.39970   0.90231   0.00715   0.00000  Uiso   1.00
C8     C     0.42205   0.81011   0.99357   0.00000  Uiso   1.00
C9     C     0.45459   0.66173   0.99215   0.00000  Uiso   1.00
C10    C     0.47103   0.08168   0.88666   0.00000  Uiso   1.00
C11    C     0.53550   0.15397   0.85975   0.00000  Uiso   1.00
C12    C     0.61997   0.17687   0.77875   0.00000  Uiso   1.00
C13    C     0.76703   0.24077   0.65302   0.00000  Uiso   1.00
C14    C     0.40984   0.95731   0.87674   0.00000  Uiso   1.00
C15    C     0.29852   0.00097   0.94689   0.00000  Uiso   1.00
C16    C     0.22168   0.99605   0.96042   0.00000  Uiso   1.00
C17    C     0.12481   0.04062   0.02802   0.00000  Uiso   1.00
C18    C     0.41649   0.89722   0.91459   0.00000  Uiso   1.00
C19    C     0.43885   0.80507   0.90094   0.00000  Uiso   1.00
C20    C     0.44131   0.76229   0.94133   0.00000  Uiso   1.00
C21    C     0.49025   0.03394   0.83452   0.00000  Uiso   1.00
C22    C     0.57464   0.05673   0.75354   0.00000  Uiso   1.00
C23    C     0.63923   0.12904   0.72651   0.00000  Uiso   1.00
H24    H     0.35949   0.08236   0.01333   0.00000  Uiso   1.00
H25    H     0.16768   0.13023   0.10697   0.00000  Uiso   1.00
H26    H     0.38484   0.93928   0.04749   0.00000  Uiso   1.00
H27    H     0.52060   0.19090   0.90011   0.00000  Uiso   1.00
H28    H     0.96350   0.16221   0.18781   0.00000  Uiso   1.00
H29    H     0.42140   0.75958   0.06237   0.00000  Uiso   1.00
H30    H     0.70770   0.29018   0.75160   0.00000  Uiso   1.00
H31    H     0.42480   0.92014   0.83614   0.00000  Uiso   1.00
H32    H     0.23658   0.95910   0.92006   0.00000  Uiso   1.00
H33    H     0.45372   0.76815   0.86058   0.00000  Uiso   1.00
H34    H     0.58949   0.01977   0.71321   0.00000  Uiso   1.00
H35    H     0.01941   0.02331   0.03611   0.00000  Uiso   1.00
H36    H     0.47732   0.62069   0.91067   0.00000  Uiso   1.00
H37    H     0.76361   0.15129   0.59990   0.00000  Uiso   1.00
O38    O     0.86644   0.12130   0.17037   0.00000  Uiso   1.00
O39    O     0.46722   0.59307   0.00579   0.00000  Uiso   1.00
O40    O     0.84283   0.28921   0.59807   0.00000  Uiso   1.00
N41    N     0.00249   0.12419   0.14058   0.00000  Uiso   1.00
N42    N     0.43059   0.74775   0.02331   0.00000  Uiso   1.00
N43    N     0.69828   0.24380   0.73277   0.00000  Uiso   1.00
N44    N     0.03258   0.04945   0.05895   0.00000  Uiso   1.00
N45    N     0.46068   0.67302   0.94168   0.00000  Uiso   1.00
N46    N     0.72836   0.16907   0.65114   0.00000  Uiso   1.00
C47    C     0.87445   0.54520   0.97274   0.00000  Uiso   1.00
C48    C     0.77930   0.54872   0.99904   0.00000  Uiso   1.00
C49    C     0.68253   0.59330   0.06663   0.00000  Uiso   1.00
C50    C     0.60556   0.58844   0.08025   0.00000  Uiso   1.00
C51    C     0.45487   0.60112   0.12905   0.00000  Uiso   1.00
C52    C     0.89727   0.44496   0.96673   0.00000  Uiso   1.00
C53    C     0.89970   0.40231   0.00715   0.00000  Uiso   1.00
C54    C     0.92205   0.31011   0.99357   0.00000  Uiso   1.00
C55    C     0.95459   0.16173   0.99215   0.00000  Uiso   1.00
C56    C     0.97103   0.58168   0.88666   0.00000  Uiso   1.00
C57    C     0.03550   0.65397   0.85975   0.00000  Uiso   1.00
C58    C     0.11997   0.67687   0.77875   0.00000  Uiso   1.00
C59    C     0.26703   0.74077   0.65302   0.00000  Uiso   1.00
C60    C     0.90984   0.45731   0.87674   0.00000  Uiso   1.00
C61    C     0.79852   0.50097   0.94689   0.00000  Uiso   1.00
C62    C     0.72168   0.49605   0.96042   0.00000  Uiso   1.00
C63    C     0.62481   0.54062   0.02802   0.00000  Uiso   1.00
C64    C     0.91649   0.39722   0.91459   0.00000  Uiso   1.00
C65    C     0.93885   0.30507   0.90094   0.00000  Uiso   1.00
C66    C     0.94131   0.26229   0.94133   0.00000  Uiso   1.00
C67    C     0.99025   0.53394   0.83452   0.00000  Uiso   1.00
C68    C     0.07464   0.55673   0.75354   0.00000  Uiso   1.00
C69    C     0.13923   0.62904   0.72651   0.00000  Uiso   1.00
H70    H     0.85949   0.58236   0.01333   0.00000  Uiso   1.00
H71    H     0.66768   0.63023   0.10697   0.00000  Uiso   1.00
H72    H     0.88484   0.43928   0.04749   0.00000  Uiso   1.00
H73    H     0.02060   0.69090   0.90011   0.00000  Uiso   1.00
H74    H     0.46350   0.66221   0.18781   0.00000  Uiso   1.00
H75    H     0.92140   0.25958   0.06237   0.00000  Uiso   1.00
H76    H     0.20770   0.79018   0.75160   0.00000  Uiso   1.00
H77    H     0.92480   0.42014   0.83614   0.00000  Uiso   1.00
H78    H     0.73658   0.45910   0.92006   0.00000  Uiso   1.00
H79    H     0.95372   0.26815   0.86058   0.00000  Uiso   1.00
H80    H     0.08949   0.51977   0.71321   0.00000  Uiso   1.00
H81    H     0.51941   0.52331   0.03611   0.00000  Uiso   1.00
H82    H     0.97732   0.12069   0.91067   0.00000  Uiso   1.00
H83    H     0.26361   0.65129   0.59990   0.00000  Uiso   1.00
O84    O     0.36644   0.62130   0.17037   0.00000  Uiso   1.00
O85    O     0.96722   0.09307   0.00579   0.00000  Uiso   1.00
O86    O     0.34283   0.78921   0.59807   0.00000  Uiso   1.00
N87    N     0.50249   0.62419   0.14058   0.00000  Uiso   1.00
N88    N     0.93059   0.24775   0.02331   0.00000  Uiso   1.00
N89    N     0.19828   0.74380   0.73277   0.00000  Uiso   1.00
N90    N     0.53258   0.54945   0.05895   0.00000  Uiso   1.00
N91    N     0.96068   0.17302   0.94168   0.00000  Uiso   1.00
N92    N     0.22836   0.66907   0.65114   0.00000  Uiso   1.00
C93    C     0.62555   0.04520   0.52726   0.00000  Uiso   1.00
C94    C     0.72070   0.04872   0.50096   0.00000  Uiso   1.00
C95    C     0.81747   0.09330   0.43337   0.00000  Uiso   1.00
C96    C     0.89444   0.08844   0.41975   0.00000  Uiso   1.00
C97    C     0.04513   0.10112   0.37095   0.00000  Uiso   1.00
C98    C     0.60273   0.94496   0.53327   0.00000  Uiso   1.00
C99    C     0.60030   0.90231   0.49285   0.00000  Uiso   1.00
C100   C     0.57795   0.81011   0.50643   0.00000  Uiso   1.00
C101   C     0.54541   0.66173   0.50785   0.00000  Uiso   1.00
C102   C     0.52897   0.08168   0.61334   0.00000  Uiso   1.00
C103   C     0.46450   0.15397   0.64025   0.00000  Uiso   1.00
C104   C     0.38003   0.17687   0.72125   0.00000  Uiso   1.00
C105   C     0.23297   0.24077   0.84698   0.00000  Uiso   1.00
C106   C     0.59016   0.95731   0.62326   0.00000  Uiso   1.00
C107   C     0.70148   0.00097   0.55311   0.00000  Uiso   1.00
C108   C     0.77832   0.99605   0.53958   0.00000  Uiso   1.00
C109   C     0.87519   0.04062   0.47198   0.00000  Uiso   1.00
C110   C     0.58351   0.89722   0.58541   0.00000  Uiso   1.00
C111   C     0.56115   0.80507   0.59906   0.00000  Uiso   1.00
C112   C     0.55869   0.76229   0.55867   0.00000  Uiso   1.00
C113   C     0.50975   0.03394   0.66548   0.00000  Uiso   1.00
C114   C     0.42536   0.05673   0.74646   0.00000  Uiso   1.00
C115   C     0.36077   0.12904   0.77349   0.00000  Uiso   1.00
H116   H     0.64051   0.08236   0.48667   0.00000  Uiso   1.00
H117   H     0.83232   0.13023   0.39303   0.00000  Uiso   1.00
H118   H     0.61516   0.93928   0.45251   0.00000  Uiso   1.00
H119   H     0.47940   0.19090   0.59989   0.00000  Uiso   1.00
H120   H     0.03650   0.16221   0.31219   0.00000  Uiso   1.00
H121   H     0.57860   0.75958   0.43763   0.00000  Uiso   1.00
H122   H     0.29230   0.29018   0.74840   0.00000  Uiso   1.00
H123   H     0.57520   0.92014   0.66386   0.00000  Uiso   1.00
H124   H     0.76342   0.95910   0.57994   0.00000  Uiso   1.00
H125   H     0.54628   0.76815   0.63942   0.00000  Uiso   1.00
H126   H     0.41051   0.01977   0.78679   0.00000  Uiso   1.00
H127   H     0.98059   0.02331   0.46389   0.00000  Uiso   1.00
H128   H     0.52268   0.62069   0.58933   0.00000  Uiso   1.00
H129   H     0.23639   0.15129   0.90010   0.00000  Uiso   1.00
O130   O     0.13356   0.12130   0.32963   0.00000  Uiso   1.00
O131   O     0.53278   0.59307   0.49421   0.00000  Uiso   1.00
O132   O     0.15717   0.28921   0.90193   0.00000  Uiso   1.00
N133   N     0.99751   0.12419   0.35942   0.00000  Uiso   1.00
N134   N     0.56941   0.74775   0.47669   0.00000  Uiso   1.00
N135   N     0.30172   0.24380   0.76723   0.00000  Uiso   1.00
N136   N     0.96742   0.04945   0.44105   0.00000  Uiso   1.00
N137   N     0.53932   0.67302   0.55832   0.00000  Uiso   1.00
N138   N     0.27164   0.16907   0.84886   0.00000  Uiso   1.00
C139   C     0.12555   0.54520   0.52726   0.00000  Uiso   1.00
C140   C     0.22070   0.54872   0.50096   0.00000  Uiso   1.00
C141   C     0.31747   0.59330   0.43337   0.00000  Uiso   1.00
C142   C     0.39444   0.58844   0.41975   0.00000  Uiso   1.00
C143   C     0.54513   0.60112   0.37095   0.00000  Uiso   1.00
C144   C     0.10273   0.44496   0.53327   0.00000  Uiso   1.00
C145   C     0.10030   0.40231   0.49285   0.00000  Uiso   1.00
C146   C     0.07795   0.31011   0.50643   0.00000  Uiso   1.00
C147   C     0.04541   0.16173   0.50785   0.00000  Uiso   1.00
C148   C     0.02897   0.58168   0.61334   0.00000  Uiso   1.00
C149   C     0.96450   0.65397   0.64025   0.00000  Uiso   1.00
C150   C     0.88003   0.67687   0.72125   0.00000  Uiso   1.00
C151   C     0.73297   0.74077   0.84698   0.00000  Uiso   1.00
C152   C     0.09016   0.45731   0.62326   0.00000  Uiso   1.00
C153   C     0.20148   0.50097   0.55311   0.00000  Uiso   1.00
C154   C     0.27832   0.49605   0.53958   0.00000  Uiso   1.00
C155   C     0.37519   0.54062   0.47198   0.00000  Uiso   1.00
C156   C     0.08351   0.39722   0.58541   0.00000  Uiso   1.00
C157   C     0.06115   0.30507   0.59906   0.00000  Uiso   1.00
C158   C     0.05869   0.26229   0.55867   0.00000  Uiso   1.00
C159   C     0.00975   0.53394   0.66548   0.00000  Uiso   1.00
C160   C     0.92536   0.55673   0.74646   0.00000  Uiso   1.00
C161   C     0.86077   0.62904   0.77349   0.00000  Uiso   1.00
H162   H     0.14051   0.58236   0.48667   0.00000  Uiso   1.00
H163   H     0.33232   0.63023   0.39303   0.00000  Uiso   1.00
H164   H     0.11516   0.43928   0.45251   0.00000  Uiso   1.00
H165   H     0.97940   0.69090   0.59989   0.00000  Uiso   1.00
H166   H     0.53650   0.66221   0.31219   0.00000  Uiso   1.00
H167   H     0.07860   0.25958   0.43763   0.00000  Uiso   1.00
H168   H     0.79230   0.79018   0.74840   0.00000  Uiso   1.00
H169   H     0.07520   0.42014   0.66386   0.00000  Uiso   1.00
H170   H     0.26342   0.45910   0.57994   0.00000  Uiso   1.00
H171   H     0.04628   0.26815   0.63942   0.00000  Uiso   1.00
H172   H     0.91051   0.51977   0.78679   0.00000  Uiso   1.00
H173   H     0.48059   0.52331   0.46389   0.00000  Uiso   1.00
H174   H     0.02268   0.12069   0.58933   0.00000  Uiso   1.00
H175   H     0.73639   0.65129   0.90010   0.00000  Uiso   1.00
O176   O     0.63356   0.62130   0.32963   0.00000  Uiso   1.00
O177   O     0.03278   0.09307   0.49421   0.00000  Uiso   1.00
O178   O     0.65717   0.78921   0.90193   0.00000  Uiso   1.00
N179   N     0.49751   0.62419   0.35942   0.00000  Uiso   1.00
N180   N     0.06941   0.24775   0.47669   0.00000  Uiso   1.00
N181   N     0.80172   0.74380   0.76723   0.00000  Uiso   1.00
N182   N     0.46742   0.54945   0.44105   0.00000  Uiso   1.00
N183   N     0.03932   0.17302   0.55832   0.00000  Uiso   1.00
N184   N     0.77164   0.66907   0.84886   0.00000  Uiso   1.00
C185   C     0.62555   0.95480   0.02726   0.00000  Uiso   1.00
C186   C     0.72070   0.95128   0.00096   0.00000  Uiso   1.00
C187   C     0.81747   0.90670   0.93337   0.00000  Uiso   1.00
C188   C     0.89444   0.91156   0.91975   0.00000  Uiso   1.00
C189   C     0.04513   0.89888   0.87095   0.00000  Uiso   1.00
C190   C     0.60273   0.05504   0.03327   0.00000  Uiso   1.00
C191   C     0.60030   0.09769   0.99285   0.00000  Uiso   1.00
C192   C     0.57795   0.18989   0.00643   0.00000  Uiso   1.00
C193   C     0.54541   0.33827   0.00785   0.00000  Uiso   1.00
C194   C     0.52897   0.91832   0.11334   0.00000  Uiso   1.00
C195   C     0.46450   0.84603   0.14025   0.00000  Uiso   1.00
C196   C     0.38003   0.82313   0.22125   0.00000  Uiso   1.00
C197   C     0.23297   0.75923   0.34698   0.00000  Uiso   1.00
C198   C     0.59016   0.04269   0.12326   0.00000  Uiso   1.00
C199   C     0.70148   0.99903   0.05311   0.00000  Uiso   1.00
C200   C     0.77832   0.00395   0.03958   0.00000  Uiso   1.00
C201   C     0.87519   0.95938   0.97198   0.00000  Uiso   1.00
C202   C     0.58351   0.10278   0.08541   0.00000  Uiso   1.00
C203   C     0.56115   0.19493   0.09906   0.00000  Uiso   1.00
C204   C     0.55869   0.23771   0.05867   0.00000  Uiso   1.00
C205   C     0.50975   0.96606   0.16548   0.00000  Uiso   1.00
C206   C     0.42536   0.94327   0.24646   0.00000  Uiso   1.00
C207   C     0.36077   0.87096   0.27349   0.00000  Uiso   1.00
H208   H     0.64051   0.91764   0.98667   0.00000  Uiso   1.00
H209   H     0.83232   0.86977   0.89303   0.00000  Uiso   1.00
H210   H     0.61516   0.06072   0.95251   0.00000  Uiso   1.00
H211   H     0.47940   0.80910   0.09989   0.00000  Uiso   1.00
H212   H     0.03650   0.83779   0.81219   0.00000  Uiso   1.00
H213   H     0.57860   0.24042   0.93763   0.00000  Uiso   1.00
H214   H     0.29230   0.70982   0.24840   0.00000  Uiso   1.00
H215   H     0.57520   0.07986   0.16386   0.00000  Uiso   1.00
H216   H     0.76342   0.04090   0.07994   0.00000  Uiso   1.00
H217   H     0.54628   0.23185   0.13942   0.00000  Uiso   1.00
H218   H     0.41051   0.98023   0.28679   0.00000  Uiso   1.00
H219   H     0.98059   0.97669   0.96389   0.00000  Uiso   1.00
H220   H     0.52268   0.37931   0.08933   0.00000  Uiso   1.00
H221   H     0.23639   0.84871   0.40010   0.00000  Uiso   1.00
O222   O     0.13356   0.87870   0.82963   0.00000  Uiso   1.00
O223   O     0.53278   0.40693   0.99421   0.00000  Uiso   1.00
O224   O     0.15717   0.71079   0.40193   0.00000  Uiso   1.00
N225   N     0.99751   0.87581   0.85942   0.00000  Uiso   1.00
N226   N     0.56941   0.25225   0.97669   0.00000  Uiso   1.00
N227   N     0.30172   0.75620   0.26723   0.00000  Uiso   1.00
N228   N     0.96742   0.95055   0.94105   0.00000  Uiso   1.00
N229   N     0.53932   0.32698   0.05832   0.00000  Uiso   1.00
N230   N     0.27164   0.83093   0.34886   0.00000  Uiso   1.00
C231   C     0.12555   0.45480   0.02726   0.00000  Uiso   1.00
C232   C     0.22070   0.45128   0.00096   0.00000  Uiso   1.00
C233   C     0.31747   0.40670   0.93337   0.00000  Uiso   1.00
C234   C     0.39444   0.41156   0.91975   0.00000  Uiso   1.00
C235   C     0.54513   0.39888   0.87095   0.00000  Uiso   1.00
C236   C     0.10273   0.55504   0.03327   0.00000  Uiso   1.00
C237   C     0.10030   0.59769   0.99285   0.00000  Uiso   1.00
C238   C     0.07795   0.68989   0.00643   0.00000  Uiso   1.00
C239   C     0.04541   0.83827   0.00785   0.00000  Uiso   1.00
C240   C     0.02897   0.41832   0.11334   0.00000  Uiso   1.00
C241   C     0.96450   0.34603   0.14025   0.00000  Uiso   1.00
C242   C     0.88003   0.32313   0.22125   0.00000  Uiso   1.00
C243   C     0.73297   0.25923   0.34698   0.00000  Uiso   1.00
C244   C     0.09016   0.54269   0.12326   0.00000  Uiso   1.00
C245   C     0.20148   0.49903   0.05311   0.00000  Uiso   1.00
C246   C     0.27832   0.50395   0.03958   0.00000  Uiso   1.00
C247   C     0.37519   0.45938   0.97198   0.00000  Uiso   1.00
C248   C     0.08351   0.60278   0.08541   0.00000  Uiso   1.00
C249   C     0.06115   0.69493   0.09906   0.00000  Uiso   1.00
C250   C     0.05869   0.73771   0.05867   0.00000  Uiso   1.00
C251   C     0.00975   0.46606   0.16548   0.00000  Uiso   1.00
C252   C     0.92536   0.44327   0.24646   0.00000  Uiso   1.00
C253   C     0.86077   0.37096   0.27349   0.00000  Uiso   1.00
H254   H     0.14051   0.41764   0.98667   0.00000  Uiso   1.00
H255   H     0.33232   0.36977   0.89303   0.00000  Uiso   1.00
H256   H     0.11516   0.56072   0.95251   0.00000  Uiso   1.00
H257   H     0.97940   0.30910   0.09989   0.00000  Uiso   1.00
H258   H     0.53650   0.33779   0.81219   0.00000  Uiso   1.00
H259   H     0.07860   0.74042   0.93763   0.00000  Uiso   1.00
H260   H     0.79230   0.20982   0.24840   0.00000  Uiso   1.00
H261   H     0.07520   0.57986   0.16386   0.00000  Uiso   1.00
H262   H     0.26342   0.54090   0.07994   0.00000  Uiso   1.00
H263   H     0.04628   0.73185   0.13942   0.00000  Uiso   1.00
H264   H     0.91051   0.48023   0.28679   0.00000  Uiso   1.00
H265   H     0.48059   0.47669   0.96389   0.00000  Uiso   1.00
H266   H     0.02268   0.87931   0.08933   0.00000  Uiso   1.00
H267   H     0.73639   0.34871   0.40010   0.00000  Uiso   1.00
O268   O     0.63356   0.37870   0.82963   0.00000  Uiso   1.00
O269   O     0.03278   0.90693   0.99421   0.00000  Uiso   1.00
O270   O     0.65717   0.21079   0.40193   0.00000  Uiso   1.00
N271   N     0.49751   0.37581   0.85942   0.00000  Uiso   1.00
N272   N     0.06941   0.75225   0.97669   0.00000  Uiso   1.00
N273   N     0.80172   0.25620   0.26723   0.00000  Uiso   1.00
N274   N     0.46742   0.45055   0.94105   0.00000  Uiso   1.00
N275   N     0.03932   0.82698   0.05832   0.00000  Uiso   1.00
N276   N     0.77164   0.33093   0.34886   0.00000  Uiso   1.00
C277   C     0.37445   0.95480   0.47274   0.00000  Uiso   1.00
C278   C     0.27930   0.95128   0.49904   0.00000  Uiso   1.00
C279   C     0.18253   0.90670   0.56663   0.00000  Uiso   1.00
C280   C     0.10556   0.91156   0.58025   0.00000  Uiso   1.00
C281   C     0.95487   0.89888   0.62905   0.00000  Uiso   1.00
C282   C     0.39727   0.05504   0.46673   0.00000  Uiso   1.00
C283   C     0.39970   0.09769   0.50715   0.00000  Uiso   1.00
C284   C     0.42205   0.18989   0.49357   0.00000  Uiso   1.00
C285   C     0.45459   0.33827   0.49215   0.00000  Uiso   1.00
C286   C     0.47103   0.91832   0.38666   0.00000  Uiso   1.00
C287   C     0.53550   0.84603   0.35975   0.00000  Uiso   1.00
C288   C     0.61997   0.82313   0.27875   0.00000  Uiso   1.00
C289   C     0.76703   0.75923   0.15302   0.00000  Uiso   1.00
C290   C     0.40984   0.04269   0.37674   0.00000  Uiso   1.00
C291   C     0.29852   0.99903   0.44689   0.00000  Uiso   1.00
C292   C     0.22168   0.00395   0.46042   0.00000  Uiso   1.00
C293   C     0.12481   0.95938   0.52802   0.00000  Uiso   1.00
C294   C     0.41649   0.10278   0.41459   0.00000  Uiso   1.00
C295   C     0.43885   0.19493   0.40094   0.00000  Uiso   1.00
C296   C     0.44131   0.23771   0.44133   0.00000  Uiso   1.00
C297   C     0.49025   0.96606   0.33452   0.00000  Uiso   1.00
C298   C     0.57464   0.94327   0.25354   0.00000  Uiso   1.00
C299   C     0.63923   0.87096   0.22651   0.00000  Uiso   1.00
H300   H     0.35949   0.91764   0.51333   0.00000  Uiso   1.00
H301   H     0.16768   0.86977   0.60697   0.00000  Uiso   1.00
H302   H     0.38484   0.06072   0.54749   0.00000  Uiso   1.00
H303   H     0.52060   0.80910   0.40011   0.00000  Uiso   1.00
H304   H     0.96350   0.83779   0.68781   0.00000  Uiso   1.00
H305   H     0.42140   0.24042   0.56237   0.00000  Uiso   1.00
H306   H     0.70770   0.70982   0.25160   0.00000  Uiso   1.00
H307   H     0.42480   0.07986   0.33614   0.00000  Uiso   1.00
H308   H     0.23658   0.04090   0.42006   0.00000  Uiso   1.00
H309   H     0.45372   0.23185   0.36058   0.00000  Uiso   1.00
H310   H     0.58949   0.98023   0.21321   0.00000  Uiso   1.00
H311   H     0.01941   0.97669   0.53611   0.00000  Uiso   1.00
H312   H     0.47732   0.37931   0.41067   0.00000  Uiso   1.00
H313   H     0.76361   0.84871   0.09990   0.00000  Uiso   1.00
O314   O     0.86644   0.87870   0.67037   0.00000  Uiso   1.00
O315   O     0.46722   0.40693   0.50579   0.00000  Uiso   1.00
O316   O     0.84283   0.71079   0.09807   0.00000  Uiso   1.00
N317   N     0.00249   0.87581   0.64058   0.00000  Uiso   1.00
N318   N     0.43059   0.25225   0.52331   0.00000  Uiso   1.00
N319   N     0.69828   0.75620   0.23277   0.00000  Uiso   1.00
N320   N     0.03258   0.95055   0.55895   0.00000  Uiso   1.00
N321   N     0.46068   0.32698   0.44168   0.00000  Uiso   1.00
N322   N     0.72836   0.83093   0.15114   0.00000  Uiso   1.00
C323   C     0.87445   0.45480   0.47274   0.00000  Uiso   1.00
C324   C     0.77930   0.45128   0.49904   0.00000  Uiso   1.00
C325   C     0.68253   0.40670   0.56663   0.00000  Uiso   1.00
C326   C     0.60556   0.41156   0.58025   0.00000  Uiso   1.00
C327   C     0.45487   0.39888   0.62905   0.00000  Uiso   1.00
C328   C     0.89727   0.55504   0.46673   0.00000  Uiso   1.00
C329   C     0.89970   0.59769   0.50715   0.00000  Uiso   1.00
C330   C     0.92205   0.68989   0.49357   0.00000  Uiso   1.00
C331   C     0.95459   0.83827   0.49215   0.00000  Uiso   1.00
C332   C     0.97103   0.41832   0.38666   0.00000  Uiso   1.00
C333   C     0.03550   0.34603   0.35975   0.00000  Uiso   1.00
C334   C     0.11997   0.32313   0.27875   0.00000  Uiso   1.00
C335   C     0.26703   0.25923   0.15302   0.00000  Uiso   1.00
C336   C     0.90984   0.54269   0.37674   0.00000  Uiso   1.00
C337   C     0.79852   0.49903   0.44689   0.00000  Uiso   1.00
C338   C     0.72168   0.50395   0.46042   0.00000  Uiso   1.00
C339   C     0.62481   0.45938   0.52802   0.00000  Uiso   1.00
C340   C     0.91649   0.60278   0.41459   0.00000  Uiso   1.00
C341   C     0.93885   0.69493   0.40094   0.00000  Uiso   1.00
C342   C     0.94131   0.73771   0.44133   0.00000  Uiso   1.00
C343   C     0.99025   0.46606   0.33452   0.00000  Uiso   1.00
C344   C     0.07464   0.44327   0.25354   0.00000  Uiso   1.00
C345   C     0.13923   0.37096   0.22651   0.00000  Uiso   1.00
H346   H     0.85949   0.41764   0.51333   0.00000  Uiso   1.00
H347   H     0.66768   0.36977   0.60697   0.00000  Uiso   1.00
H348   H     0.88484   0.56072   0.54749   0.00000  Uiso   1.00
H349   H     0.02060   0.30910   0.40011   0.00000  Uiso   1.00
H350   H     0.46350   0.33779   0.68781   0.00000  Uiso   1.00
H351   H     0.92140   0.74042   0.56237   0.00000  Uiso   1.00
H352   H     0.20770   0.20982   0.25160   0.00000  Uiso   1.00
H353   H     0.92480   0.57986   0.33614   0.00000  Uiso   1.00
H354   H     0.73658   0.54090   0.42006   0.00000  Uiso   1.00
H355   H     0.95372   0.73185   0.36058   0.00000  Uiso   1.00
H356   H     0.08949   0.48023   0.21321   0.00000  Uiso   1.00
H357   H     0.51941   0.47669   0.53611   0.00000  Uiso   1.00
H358   H     0.97732   0.87931   0.41067   0.00000  Uiso   1.00
H359   H     0.26361   0.34871   0.09990   0.00000  Uiso   1.00
O360   O     0.36644   0.37870   0.67037   0.00000  Uiso   1.00
O361   O     0.96722   0.90693   0.50579   0.00000  Uiso   1.00
O362   O     0.34283   0.21079   0.09807   0.00000  Uiso   1.00
N363   N     0.50249   0.37581   0.64058   0.00000  Uiso   1.00
N364   N     0.93059   0.75225   0.52331   0.00000  Uiso   1.00
N365   N     0.19828   0.25620   0.23277   0.00000  Uiso   1.00
N366   N     0.53258   0.45055   0.55895   0.00000  Uiso   1.00
N367   N     0.96068   0.82698   0.44168   0.00000  Uiso   1.00
N368   N     0.22836   0.33093   0.15114   0.00000  Uiso   1.00
