data_job_03347
_audit_creation_date              2018-12-19
_audit_creation_method            'Materials Studio'
_symmetry_space_group_name_H-M    'P1'
_symmetry_Int_Tables_number       1
_symmetry_cell_setting            triclinic
loop_
_symmetry_equiv_pos_as_xyz
  x,y,z
_cell_length_a                    9.6621
_cell_length_b                    21.6807
_cell_length_c                    12.8636
_cell_angle_alpha                 90.0000
_cell_angle_beta                  76.6957
_cell_angle_gamma                 90.0000
loop_
_atom_site_label
_atom_site_type_symbol
_atom_site_fract_x
_atom_site_fract_y
_atom_site_fract_z
_atom_site_U_iso_or_equiv
_atom_site_adp_type
_atom_site_occupancy
C1     C     0.73859   0.59380   0.39200   0.00000  Uiso   1.00
C2     C     0.63865   0.64707   0.38368   0.00000  Uiso   1.00
C3     C     0.49834   0.64149   0.37581   0.00000  Uiso   1.00
C4     C     0.42476   0.69578   0.36894   0.00000  Uiso   1.00
C5     C     0.25978   0.76970   0.35581   0.00000  Uiso   1.00
C6     C     0.86825   0.60209   0.29977   0.00000  Uiso   1.00
C7     C     0.92099   0.55868   0.22136   0.00000  Uiso   1.00
C8     C     0.04070   0.57511   0.14387   0.00000  Uiso   1.00
C9     C     0.23224   0.57918   0.00051   0.00000  Uiso   1.00
C10    C     0.79031   0.60512   0.49378   0.00000  Uiso   1.00
C11    C     0.77756   0.56425   0.57850   0.00000  Uiso   1.00
C12    C     0.83168   0.58323   0.66434   0.00000  Uiso   1.00
C13    C     0.90221   0.59201   0.82222   0.00000  Uiso   1.00
C14    C     0.85742   0.70015   0.39379   0.00000  Uiso   1.00
C15    C     0.70320   0.70484   0.38465   0.00000  Uiso   1.00
C16    C     0.62981   0.75915   0.37779   0.00000  Uiso   1.00
C17    C     0.48942   0.75365   0.36992   0.00000  Uiso   1.00
C18    C     0.93279   0.65985   0.30074   0.00000  Uiso   1.00
C19    C     0.05246   0.67635   0.22334   0.00000  Uiso   1.00
C20    C     0.10536   0.63298   0.14484   0.00000  Uiso   1.00
C21    C     0.85485   0.66289   0.49476   0.00000  Uiso   1.00
C22    C     0.90902   0.68192   0.58048   0.00000  Uiso   1.00
C23    C     0.89635   0.64110   0.66532   0.00000  Uiso   1.00
H24    H     0.68835   0.54883   0.39124   0.00000  Uiso   1.00
H25    H     0.44843   0.59677   0.37505   0.00000  Uiso   1.00
H26    H     0.87103   0.51398   0.22063   0.00000  Uiso   1.00
H27    H     0.72761   0.51956   0.57772   0.00000  Uiso   1.00
H28    H     0.21092   0.67540   0.35749   0.00000  Uiso   1.00
H29    H     0.10201   0.50082   0.03192   0.00000  Uiso   1.00
H30    H     0.79959   0.51258   0.78489   0.00000  Uiso   1.00
H31    H     0.90768   0.74513   0.39455   0.00000  Uiso   1.00
H32    H     0.67979   0.80385   0.37855   0.00000  Uiso   1.00
H33    H     0.10238   0.72105   0.22413   0.00000  Uiso   1.00
H34    H     0.95896   0.72663   0.58121   0.00000  Uiso   1.00
H35    H     0.39870   0.84347   0.36032   0.00000  Uiso   1.00
H36    H     0.28980   0.66889   0.03475   0.00000  Uiso   1.00
H37    H     0.98737   0.68065   0.78773   0.00000  Uiso   1.00
O38    O     0.15096   0.79452   0.34828   0.00000  Uiso   1.00
O39    O     0.32005   0.56547   0.92116   0.00000  Uiso   1.00
O40    O     0.92327   0.58090   0.90904   0.00000  Uiso   1.00
N41    N     0.28638   0.70690   0.36038   0.00000  Uiso   1.00
N42    N     0.11948   0.54368   0.05597   0.00000  Uiso   1.00
N43    N     0.83678   0.55466   0.75993   0.00000  Uiso   1.00
N44    N     0.38742   0.79734   0.36190   0.00000  Uiso   1.00
N45    N     0.22053   0.63412   0.05750   0.00000  Uiso   1.00
N46    N     0.93782   0.64510   0.76146   0.00000  Uiso   1.00
C47    C     0.26141   0.09380   0.10800   0.00000  Uiso   1.00
C48    C     0.36135   0.14707   0.11632   0.00000  Uiso   1.00
C49    C     0.50166   0.14149   0.12419   0.00000  Uiso   1.00
C50    C     0.57524   0.19578   0.13106   0.00000  Uiso   1.00
C51    C     0.74022   0.26970   0.14419   0.00000  Uiso   1.00
C52    C     0.13175   0.10209   0.20023   0.00000  Uiso   1.00
C53    C     0.07901   0.05868   0.27864   0.00000  Uiso   1.00
C54    C     0.95930   0.07511   0.35613   0.00000  Uiso   1.00
C55    C     0.76776   0.07918   0.49949   0.00000  Uiso   1.00
C56    C     0.20969   0.10512   0.00622   0.00000  Uiso   1.00
C57    C     0.22244   0.06425   0.92150   0.00000  Uiso   1.00
C58    C     0.16832   0.08323   0.83566   0.00000  Uiso   1.00
C59    C     0.09779   0.09201   0.67778   0.00000  Uiso   1.00
C60    C     0.14258   0.20015   0.10621   0.00000  Uiso   1.00
C61    C     0.29680   0.20484   0.11535   0.00000  Uiso   1.00
C62    C     0.37019   0.25915   0.12221   0.00000  Uiso   1.00
C63    C     0.51058   0.25365   0.13008   0.00000  Uiso   1.00
C64    C     0.06721   0.15985   0.19926   0.00000  Uiso   1.00
C65    C     0.94754   0.17635   0.27666   0.00000  Uiso   1.00
C66    C     0.89464   0.13298   0.35516   0.00000  Uiso   1.00
C67    C     0.14515   0.16289   0.00524   0.00000  Uiso   1.00
C68    C     0.09098   0.18192   0.91952   0.00000  Uiso   1.00
C69    C     0.10365   0.14110   0.83468   0.00000  Uiso   1.00
H70    H     0.31165   0.04883   0.10876   0.00000  Uiso   1.00
H71    H     0.55157   0.09677   0.12495   0.00000  Uiso   1.00
H72    H     0.12897   0.01398   0.27937   0.00000  Uiso   1.00
H73    H     0.27239   0.01956   0.92228   0.00000  Uiso   1.00
H74    H     0.78908   0.17540   0.14251   0.00000  Uiso   1.00
H75    H     0.89799   0.00082   0.46808   0.00000  Uiso   1.00
H76    H     0.20041   0.01258   0.71511   0.00000  Uiso   1.00
H77    H     0.09232   0.24513   0.10545   0.00000  Uiso   1.00
H78    H     0.32021   0.30385   0.12145   0.00000  Uiso   1.00
H79    H     0.89762   0.22105   0.27587   0.00000  Uiso   1.00
H80    H     0.04104   0.22663   0.91879   0.00000  Uiso   1.00
H81    H     0.60130   0.34347   0.13968   0.00000  Uiso   1.00
H82    H     0.71020   0.16889   0.46525   0.00000  Uiso   1.00
H83    H     0.01263   0.18065   0.71227   0.00000  Uiso   1.00
O84    O     0.84904   0.29452   0.15172   0.00000  Uiso   1.00
O85    O     0.67995   0.06547   0.57884   0.00000  Uiso   1.00
O86    O     0.07673   0.08090   0.59096   0.00000  Uiso   1.00
N87    N     0.71362   0.20690   0.13962   0.00000  Uiso   1.00
N88    N     0.88052   0.04368   0.44403   0.00000  Uiso   1.00
N89    N     0.16322   0.05466   0.74007   0.00000  Uiso   1.00
N90    N     0.61258   0.29734   0.13810   0.00000  Uiso   1.00
N91    N     0.77947   0.13412   0.44250   0.00000  Uiso   1.00
N92    N     0.06218   0.14510   0.73854   0.00000  Uiso   1.00
C93    C     0.26141   0.40620   0.60800   0.00000  Uiso   1.00
C94    C     0.36135   0.35293   0.61632   0.00000  Uiso   1.00
C95    C     0.50166   0.35851   0.62419   0.00000  Uiso   1.00
C96    C     0.57524   0.30422   0.63106   0.00000  Uiso   1.00
C97    C     0.74022   0.23030   0.64419   0.00000  Uiso   1.00
C98    C     0.13175   0.39791   0.70023   0.00000  Uiso   1.00
C99    C     0.07901   0.44132   0.77864   0.00000  Uiso   1.00
C100   C     0.95930   0.42489   0.85613   0.00000  Uiso   1.00
C101   C     0.76776   0.42082   0.99949   0.00000  Uiso   1.00
C102   C     0.20969   0.39488   0.50622   0.00000  Uiso   1.00
C103   C     0.22244   0.43575   0.42150   0.00000  Uiso   1.00
C104   C     0.16832   0.41677   0.33566   0.00000  Uiso   1.00
C105   C     0.09779   0.40799   0.17778   0.00000  Uiso   1.00
C106   C     0.14258   0.29985   0.60621   0.00000  Uiso   1.00
C107   C     0.29680   0.29516   0.61535   0.00000  Uiso   1.00
C108   C     0.37019   0.24085   0.62221   0.00000  Uiso   1.00
C109   C     0.51058   0.24635   0.63008   0.00000  Uiso   1.00
C110   C     0.06721   0.34015   0.69926   0.00000  Uiso   1.00
C111   C     0.94754   0.32365   0.77666   0.00000  Uiso   1.00
C112   C     0.89464   0.36702   0.85516   0.00000  Uiso   1.00
C113   C     0.14515   0.33711   0.50524   0.00000  Uiso   1.00
C114   C     0.09098   0.31808   0.41952   0.00000  Uiso   1.00
C115   C     0.10365   0.35890   0.33468   0.00000  Uiso   1.00
H116   H     0.31165   0.45117   0.60876   0.00000  Uiso   1.00
H117   H     0.55157   0.40323   0.62495   0.00000  Uiso   1.00
H118   H     0.12897   0.48602   0.77937   0.00000  Uiso   1.00
H119   H     0.27239   0.48044   0.42228   0.00000  Uiso   1.00
H120   H     0.78908   0.32460   0.64251   0.00000  Uiso   1.00
H121   H     0.89799   0.49918   0.96808   0.00000  Uiso   1.00
H122   H     0.20041   0.48742   0.21511   0.00000  Uiso   1.00
H123   H     0.09232   0.25487   0.60545   0.00000  Uiso   1.00
H124   H     0.32021   0.19615   0.62145   0.00000  Uiso   1.00
H125   H     0.89762   0.27895   0.77587   0.00000  Uiso   1.00
H126   H     0.04104   0.27337   0.41879   0.00000  Uiso   1.00
H127   H     0.60130   0.15653   0.63968   0.00000  Uiso   1.00
H128   H     0.71020   0.33111   0.96525   0.00000  Uiso   1.00
H129   H     0.01263   0.31935   0.21227   0.00000  Uiso   1.00
O130   O     0.84904   0.20548   0.65172   0.00000  Uiso   1.00
O131   O     0.67995   0.43453   0.07884   0.00000  Uiso   1.00
O132   O     0.07673   0.41910   0.09096   0.00000  Uiso   1.00
N133   N     0.71362   0.29310   0.63962   0.00000  Uiso   1.00
N134   N     0.88052   0.45632   0.94403   0.00000  Uiso   1.00
N135   N     0.16322   0.44534   0.24007   0.00000  Uiso   1.00
N136   N     0.61258   0.20266   0.63810   0.00000  Uiso   1.00
N137   N     0.77947   0.36588   0.94250   0.00000  Uiso   1.00
N138   N     0.06218   0.35490   0.23854   0.00000  Uiso   1.00
C139   C     0.73859   0.90620   0.89200   0.00000  Uiso   1.00
C140   C     0.63865   0.85293   0.88368   0.00000  Uiso   1.00
C141   C     0.49834   0.85851   0.87581   0.00000  Uiso   1.00
C142   C     0.42476   0.80422   0.86894   0.00000  Uiso   1.00
C143   C     0.25978   0.73030   0.85581   0.00000  Uiso   1.00
C144   C     0.86825   0.89791   0.79977   0.00000  Uiso   1.00
C145   C     0.92099   0.94132   0.72136   0.00000  Uiso   1.00
C146   C     0.04070   0.92489   0.64387   0.00000  Uiso   1.00
C147   C     0.23224   0.92082   0.50051   0.00000  Uiso   1.00
C148   C     0.79031   0.89488   0.99378   0.00000  Uiso   1.00
C149   C     0.77756   0.93575   0.07850   0.00000  Uiso   1.00
C150   C     0.83168   0.91677   0.16434   0.00000  Uiso   1.00
C151   C     0.90221   0.90799   0.32222   0.00000  Uiso   1.00
C152   C     0.85742   0.79985   0.89379   0.00000  Uiso   1.00
C153   C     0.70320   0.79516   0.88465   0.00000  Uiso   1.00
C154   C     0.62981   0.74085   0.87779   0.00000  Uiso   1.00
C155   C     0.48942   0.74635   0.86992   0.00000  Uiso   1.00
C156   C     0.93279   0.84015   0.80074   0.00000  Uiso   1.00
C157   C     0.05246   0.82365   0.72334   0.00000  Uiso   1.00
C158   C     0.10536   0.86702   0.64484   0.00000  Uiso   1.00
C159   C     0.85485   0.83711   0.99476   0.00000  Uiso   1.00
C160   C     0.90902   0.81808   0.08048   0.00000  Uiso   1.00
C161   C     0.89635   0.85890   0.16532   0.00000  Uiso   1.00
H162   H     0.68835   0.95117   0.89124   0.00000  Uiso   1.00
H163   H     0.44843   0.90323   0.87505   0.00000  Uiso   1.00
H164   H     0.87103   0.98602   0.72063   0.00000  Uiso   1.00
H165   H     0.72761   0.98044   0.07772   0.00000  Uiso   1.00
H166   H     0.21092   0.82460   0.85749   0.00000  Uiso   1.00
H167   H     0.10201   0.99918   0.53192   0.00000  Uiso   1.00
H168   H     0.79959   0.98742   0.28489   0.00000  Uiso   1.00
H169   H     0.90768   0.75487   0.89455   0.00000  Uiso   1.00
H170   H     0.67979   0.69615   0.87855   0.00000  Uiso   1.00
H171   H     0.10238   0.77895   0.72413   0.00000  Uiso   1.00
H172   H     0.95896   0.77337   0.08121   0.00000  Uiso   1.00
H173   H     0.39870   0.65653   0.86032   0.00000  Uiso   1.00
H174   H     0.28980   0.83111   0.53475   0.00000  Uiso   1.00
H175   H     0.98737   0.81935   0.28773   0.00000  Uiso   1.00
O176   O     0.15096   0.70548   0.84828   0.00000  Uiso   1.00
O177   O     0.32005   0.93453   0.42116   0.00000  Uiso   1.00
O178   O     0.92327   0.91910   0.40904   0.00000  Uiso   1.00
N179   N     0.28638   0.79310   0.86038   0.00000  Uiso   1.00
N180   N     0.11948   0.95632   0.55597   0.00000  Uiso   1.00
N181   N     0.83678   0.94534   0.25993   0.00000  Uiso   1.00
N182   N     0.38742   0.70266   0.86190   0.00000  Uiso   1.00
N183   N     0.22053   0.86588   0.55750   0.00000  Uiso   1.00
N184   N     0.93782   0.85490   0.26146   0.00000  Uiso   1.00
