data_job_04228
_audit_creation_date              2018-12-19
_audit_creation_method            'Materials Studio'
_symmetry_space_group_name_H-M    'P1'
_symmetry_Int_Tables_number       1
_symmetry_cell_setting            triclinic
loop_
_symmetry_equiv_pos_as_xyz
  x,y,z
_cell_length_a                    20.9254
_cell_length_b                    20.9254
_cell_length_c                    12.4861
_cell_angle_alpha                 90.0000
_cell_angle_beta                  90.0000
_cell_angle_gamma                 120.0000
loop_
_atom_site_label
_atom_site_type_symbol
_atom_site_fract_x
_atom_site_fract_y
_atom_site_fract_z
_atom_site_U_iso_or_equiv
_atom_site_adp_type
_atom_site_occupancy
C1     C     0.27123   0.35240   0.88358   0.00000  Uiso   1.00
C2     C     0.29214   0.39222   0.99115   0.00000  Uiso   1.00
C3     C     0.35017   0.40184   0.05596   0.00000  Uiso   1.00
C4     C     0.36018   0.43982   0.15134   0.00000  Uiso   1.00
C5     C     0.39968   0.49746   0.31394   0.00000  Uiso   1.00
C6     C     0.19071   0.29186   0.89379   0.00000  Uiso   1.00
C7     C     0.16348   0.21710   0.87672   0.00000  Uiso   1.00
C8     C     0.08810   0.17060   0.89014   0.00000  Uiso   1.00
C9     C     0.97013   0.07243   0.90150   0.00000  Uiso   1.00
C10    C     0.27228   0.40763   0.80289   0.00000  Uiso   1.00
C11    C     0.31362   0.43019   0.70938   0.00000  Uiso   1.00
C12    C     0.30691   0.48115   0.64625   0.00000  Uiso   1.00
C13    C     0.31560   0.56272   0.51648   0.00000  Uiso   1.00
C14    C     0.18579   0.40276   0.93772   0.00000  Uiso   1.00
C15    C     0.24573   0.41957   0.02056   0.00000  Uiso   1.00
C16    C     0.25565   0.45756   0.11587   0.00000  Uiso   1.00
C17    C     0.31370   0.46723   0.18081   0.00000  Uiso   1.00
C18    C     0.14431   0.31921   0.92320   0.00000  Uiso   1.00
C19    C     0.06896   0.27282   0.93663   0.00000  Uiso   1.00
C20    C     0.04161   0.19800   0.91960   0.00000  Uiso   1.00
C21    C     0.22588   0.43498   0.83230   0.00000  Uiso   1.00
C22    C     0.21910   0.48591   0.76930   0.00000  Uiso   1.00
C23    C     0.26042   0.50855   0.67571   0.00000  Uiso   1.00
H24    H     0.30735   0.33110   0.86068   0.00000  Uiso   1.00
H25    H     0.38607   0.38066   0.03318   0.00000  Uiso   1.00
H26    H     0.19940   0.19595   0.85396   0.00000  Uiso   1.00
H27    H     0.34952   0.40901   0.68665   0.00000  Uiso   1.00
H28    H     0.45286   0.44764   0.23741   0.00000  Uiso   1.00
H29    H     0.05926   0.05817   0.85948   0.00000  Uiso   1.00
H30    H     0.37582   0.50745   0.50667   0.00000  Uiso   1.00
H31    H     0.14966   0.42406   0.96062   0.00000  Uiso   1.00
H32    H     0.21973   0.47872   0.13861   0.00000  Uiso   1.00
H33    H     0.03306   0.29401   0.95939   0.00000  Uiso   1.00
H34    H     0.18319   0.50707   0.79208   0.00000  Uiso   1.00
H35    H     0.31785   0.52722   0.32299   0.00000  Uiso   1.00
H36    H     0.92425   0.13776   0.94505   0.00000  Uiso   1.00
H37    H     0.24082   0.58704   0.59225   0.00000  Uiso   1.00
O38    O     0.43428   0.52169   0.39550   0.00000  Uiso   1.00
O39    O     0.91789   0.01073   0.89965   0.00000  Uiso   1.00
O40    O     0.33322   0.60017   0.43678   0.00000  Uiso   1.00
N41    N     0.41148   0.45888   0.23312   0.00000  Uiso   1.00
N42    N     0.04348   0.09475   0.87979   0.00000  Uiso   1.00
N43    N     0.33943   0.51477   0.54993   0.00000  Uiso   1.00
N44    N     0.33884   0.50171   0.27916   0.00000  Uiso   1.00
N45    N     0.97084   0.13758   0.92584   0.00000  Uiso   1.00
N46    N     0.26679   0.55760   0.59598   0.00000  Uiso   1.00
C47    C     0.64760   0.91882   0.55024   0.00000  Uiso   1.00
C48    C     0.60778   0.89991   0.65782   0.00000  Uiso   1.00
C49    C     0.59816   0.94833   0.72263   0.00000  Uiso   1.00
C50    C     0.56018   0.92036   0.81801   0.00000  Uiso   1.00
C51    C     0.50254   0.90222   0.98060   0.00000  Uiso   1.00
C52    C     0.70814   0.89885   0.56046   0.00000  Uiso   1.00
C53    C     0.78290   0.94638   0.54339   0.00000  Uiso   1.00
C54    C     0.82940   0.91750   0.55680   0.00000  Uiso   1.00
C55    C     0.92757   0.89770   0.56816   0.00000  Uiso   1.00
C56    C     0.59237   0.86466   0.46956   0.00000  Uiso   1.00
C57    C     0.56981   0.88343   0.37605   0.00000  Uiso   1.00
C58    C     0.51885   0.82576   0.31292   0.00000  Uiso   1.00
C59    C     0.43728   0.75287   0.18314   0.00000  Uiso   1.00
C60    C     0.59724   0.78303   0.60439   0.00000  Uiso   1.00
C61    C     0.58043   0.82615   0.68723   0.00000  Uiso   1.00
C62    C     0.54244   0.79809   0.78254   0.00000  Uiso   1.00
C63    C     0.53277   0.84647   0.84747   0.00000  Uiso   1.00
C64    C     0.68079   0.82509   0.58987   0.00000  Uiso   1.00
C65    C     0.72718   0.79614   0.60330   0.00000  Uiso   1.00
C66    C     0.80200   0.84361   0.58627   0.00000  Uiso   1.00
C67    C     0.56502   0.79090   0.49897   0.00000  Uiso   1.00
C68    C     0.51409   0.73319   0.43596   0.00000  Uiso   1.00
C69    C     0.49145   0.75187   0.34238   0.00000  Uiso   1.00
H70    H     0.66890   0.97625   0.52734   0.00000  Uiso   1.00
H71    H     0.61934   0.00541   0.69984   0.00000  Uiso   1.00
H72    H     0.80405   0.00345   0.52062   0.00000  Uiso   1.00
H73    H     0.59099   0.94051   0.35331   0.00000  Uiso   1.00
H74    H     0.55236   0.00523   0.90408   0.00000  Uiso   1.00
H75    H     0.94183   0.00109   0.52615   0.00000  Uiso   1.00
H76    H     0.49255   0.86837   0.17334   0.00000  Uiso   1.00
H77    H     0.57594   0.72560   0.62729   0.00000  Uiso   1.00
H78    H     0.52128   0.74101   0.80528   0.00000  Uiso   1.00
H79    H     0.70599   0.73905   0.62606   0.00000  Uiso   1.00
H80    H     0.49293   0.67612   0.45875   0.00000  Uiso   1.00
H81    H     0.47278   0.79063   0.98966   0.00000  Uiso   1.00
H82    H     0.86224   0.78649   0.61172   0.00000  Uiso   1.00
H83    H     0.41296   0.65378   0.25892   0.00000  Uiso   1.00
O84    O     0.47831   0.91259   0.06217   0.00000  Uiso   1.00
O85    O     0.98927   0.90716   0.56632   0.00000  Uiso   1.00
O86    O     0.39983   0.73304   0.10345   0.00000  Uiso   1.00
N87    N     0.54112   0.95260   0.89978   0.00000  Uiso   1.00
N88    N     0.90525   0.94874   0.54646   0.00000  Uiso   1.00
N89    N     0.48523   0.82466   0.21660   0.00000  Uiso   1.00
N90    N     0.49829   0.83713   0.94583   0.00000  Uiso   1.00
N91    N     0.86242   0.83326   0.59251   0.00000  Uiso   1.00
N92    N     0.44240   0.70919   0.26264   0.00000  Uiso   1.00
C93    C     0.08118   0.72877   0.21691   0.00000  Uiso   1.00
C94    C     0.10009   0.70786   0.32449   0.00000  Uiso   1.00
C95    C     0.05167   0.64983   0.38929   0.00000  Uiso   1.00
C96    C     0.07964   0.63982   0.48468   0.00000  Uiso   1.00
C97    C     0.09778   0.60032   0.64727   0.00000  Uiso   1.00
C98    C     0.10115   0.80929   0.22713   0.00000  Uiso   1.00
C99    C     0.05362   0.83652   0.21006   0.00000  Uiso   1.00
C100   C     0.08250   0.91190   0.22347   0.00000  Uiso   1.00
C101   C     0.10230   0.02987   0.23483   0.00000  Uiso   1.00
C102   C     0.13534   0.72772   0.13623   0.00000  Uiso   1.00
C103   C     0.11657   0.68638   0.04271   0.00000  Uiso   1.00
C104   C     0.17424   0.69309   0.97958   0.00000  Uiso   1.00
C105   C     0.24713   0.68440   0.84981   0.00000  Uiso   1.00
C106   C     0.21697   0.81421   0.27106   0.00000  Uiso   1.00
C107   C     0.17385   0.75427   0.35390   0.00000  Uiso   1.00
C108   C     0.20191   0.74435   0.44920   0.00000  Uiso   1.00
C109   C     0.15353   0.68630   0.51414   0.00000  Uiso   1.00
C110   C     0.17491   0.85569   0.25654   0.00000  Uiso   1.00
C111   C     0.20386   0.93104   0.26997   0.00000  Uiso   1.00
C112   C     0.15639   0.95839   0.25293   0.00000  Uiso   1.00
C113   C     0.20910   0.77412   0.16564   0.00000  Uiso   1.00
C114   C     0.26681   0.78090   0.10263   0.00000  Uiso   1.00
C115   C     0.24813   0.73958   0.00905   0.00000  Uiso   1.00
H116   H     0.02375   0.69265   0.19401   0.00000  Uiso   1.00
H117   H     0.99459   0.61393   0.36651   0.00000  Uiso   1.00
H118   H     0.99655   0.80060   0.18729   0.00000  Uiso   1.00
H119   H     0.05949   0.65048   0.01998   0.00000  Uiso   1.00
H120   H     0.99477   0.54714   0.57075   0.00000  Uiso   1.00
H121   H     0.99891   0.94074   0.19282   0.00000  Uiso   1.00
H122   H     0.13163   0.62418   0.84001   0.00000  Uiso   1.00
H123   H     0.27440   0.85034   0.29395   0.00000  Uiso   1.00
H124   H     0.25899   0.78027   0.47194   0.00000  Uiso   1.00
H125   H     0.26095   0.96694   0.29272   0.00000  Uiso   1.00
H126   H     0.32388   0.81681   0.12541   0.00000  Uiso   1.00
H127   H     0.20937   0.68215   0.65632   0.00000  Uiso   1.00
H128   H     0.21351   0.07575   0.27839   0.00000  Uiso   1.00
H129   H     0.34622   0.75918   0.92558   0.00000  Uiso   1.00
O130   O     0.08741   0.56572   0.72883   0.00000  Uiso   1.00
O131   O     0.09284   0.08211   0.23298   0.00000  Uiso   1.00
O132   O     0.26696   0.66678   0.77011   0.00000  Uiso   1.00
N133   N     0.04740   0.58852   0.56645   0.00000  Uiso   1.00
N134   N     0.05126   0.95652   0.21312   0.00000  Uiso   1.00
N135   N     0.17534   0.66057   0.88326   0.00000  Uiso   1.00
N136   N     0.16287   0.66116   0.61250   0.00000  Uiso   1.00
N137   N     0.16674   0.02916   0.25917   0.00000  Uiso   1.00
N138   N     0.29081   0.73321   0.92931   0.00000  Uiso   1.00
C139   C     0.72877   0.64760   0.88358   0.00000  Uiso   1.00
C140   C     0.70786   0.60778   0.99115   0.00000  Uiso   1.00
C141   C     0.64983   0.59816   0.05596   0.00000  Uiso   1.00
C142   C     0.63982   0.56018   0.15134   0.00000  Uiso   1.00
C143   C     0.60032   0.50254   0.31394   0.00000  Uiso   1.00
C144   C     0.80929   0.70814   0.89379   0.00000  Uiso   1.00
C145   C     0.83652   0.78290   0.87672   0.00000  Uiso   1.00
C146   C     0.91190   0.82940   0.89014   0.00000  Uiso   1.00
C147   C     0.02987   0.92757   0.90150   0.00000  Uiso   1.00
C148   C     0.72772   0.59237   0.80289   0.00000  Uiso   1.00
C149   C     0.68638   0.56981   0.70938   0.00000  Uiso   1.00
C150   C     0.69309   0.51885   0.64625   0.00000  Uiso   1.00
C151   C     0.68440   0.43728   0.51648   0.00000  Uiso   1.00
C152   C     0.81421   0.59724   0.93772   0.00000  Uiso   1.00
C153   C     0.75427   0.58043   0.02056   0.00000  Uiso   1.00
C154   C     0.74435   0.54244   0.11587   0.00000  Uiso   1.00
C155   C     0.68630   0.53277   0.18081   0.00000  Uiso   1.00
C156   C     0.85569   0.68079   0.92320   0.00000  Uiso   1.00
C157   C     0.93104   0.72718   0.93663   0.00000  Uiso   1.00
C158   C     0.95839   0.80200   0.91960   0.00000  Uiso   1.00
C159   C     0.77412   0.56502   0.83230   0.00000  Uiso   1.00
C160   C     0.78090   0.51409   0.76930   0.00000  Uiso   1.00
C161   C     0.73958   0.49145   0.67571   0.00000  Uiso   1.00
H162   H     0.69265   0.66890   0.86068   0.00000  Uiso   1.00
H163   H     0.61393   0.61934   0.03318   0.00000  Uiso   1.00
H164   H     0.80060   0.80405   0.85396   0.00000  Uiso   1.00
H165   H     0.65048   0.59099   0.68665   0.00000  Uiso   1.00
H166   H     0.54714   0.55236   0.23741   0.00000  Uiso   1.00
H167   H     0.94074   0.94183   0.85948   0.00000  Uiso   1.00
H168   H     0.62418   0.49255   0.50667   0.00000  Uiso   1.00
H169   H     0.85034   0.57594   0.96062   0.00000  Uiso   1.00
H170   H     0.78027   0.52128   0.13861   0.00000  Uiso   1.00
H171   H     0.96694   0.70599   0.95939   0.00000  Uiso   1.00
H172   H     0.81681   0.49293   0.79208   0.00000  Uiso   1.00
H173   H     0.68215   0.47278   0.32299   0.00000  Uiso   1.00
H174   H     0.07575   0.86224   0.94505   0.00000  Uiso   1.00
H175   H     0.75918   0.41296   0.59225   0.00000  Uiso   1.00
O176   O     0.56572   0.47831   0.39550   0.00000  Uiso   1.00
O177   O     0.08211   0.98927   0.89965   0.00000  Uiso   1.00
O178   O     0.66678   0.39983   0.43678   0.00000  Uiso   1.00
N179   N     0.58852   0.54112   0.23312   0.00000  Uiso   1.00
N180   N     0.95652   0.90525   0.87979   0.00000  Uiso   1.00
N181   N     0.66057   0.48523   0.54993   0.00000  Uiso   1.00
N182   N     0.66116   0.49829   0.27916   0.00000  Uiso   1.00
N183   N     0.02916   0.86242   0.92584   0.00000  Uiso   1.00
N184   N     0.73321   0.44240   0.59598   0.00000  Uiso   1.00
C185   C     0.35240   0.08118   0.55024   0.00000  Uiso   1.00
C186   C     0.39222   0.10009   0.65782   0.00000  Uiso   1.00
C187   C     0.40184   0.05167   0.72263   0.00000  Uiso   1.00
C188   C     0.43982   0.07964   0.81801   0.00000  Uiso   1.00
C189   C     0.49746   0.09778   0.98060   0.00000  Uiso   1.00
C190   C     0.29186   0.10115   0.56046   0.00000  Uiso   1.00
C191   C     0.21710   0.05362   0.54339   0.00000  Uiso   1.00
C192   C     0.17060   0.08250   0.55680   0.00000  Uiso   1.00
C193   C     0.07243   0.10230   0.56816   0.00000  Uiso   1.00
C194   C     0.40763   0.13534   0.46956   0.00000  Uiso   1.00
C195   C     0.43019   0.11657   0.37605   0.00000  Uiso   1.00
C196   C     0.48115   0.17424   0.31292   0.00000  Uiso   1.00
C197   C     0.56272   0.24713   0.18314   0.00000  Uiso   1.00
C198   C     0.40276   0.21697   0.60439   0.00000  Uiso   1.00
C199   C     0.41957   0.17385   0.68723   0.00000  Uiso   1.00
C200   C     0.45756   0.20191   0.78254   0.00000  Uiso   1.00
C201   C     0.46723   0.15353   0.84747   0.00000  Uiso   1.00
C202   C     0.31921   0.17491   0.58987   0.00000  Uiso   1.00
C203   C     0.27282   0.20386   0.60330   0.00000  Uiso   1.00
C204   C     0.19800   0.15639   0.58627   0.00000  Uiso   1.00
C205   C     0.43498   0.20910   0.49897   0.00000  Uiso   1.00
C206   C     0.48591   0.26681   0.43596   0.00000  Uiso   1.00
C207   C     0.50855   0.24813   0.34238   0.00000  Uiso   1.00
H208   H     0.33110   0.02375   0.52734   0.00000  Uiso   1.00
H209   H     0.38066   0.99459   0.69984   0.00000  Uiso   1.00
H210   H     0.19595   0.99655   0.52062   0.00000  Uiso   1.00
H211   H     0.40901   0.05949   0.35331   0.00000  Uiso   1.00
H212   H     0.44764   0.99477   0.90408   0.00000  Uiso   1.00
H213   H     0.05817   0.99891   0.52615   0.00000  Uiso   1.00
H214   H     0.50745   0.13163   0.17334   0.00000  Uiso   1.00
H215   H     0.42406   0.27440   0.62729   0.00000  Uiso   1.00
H216   H     0.47872   0.25899   0.80528   0.00000  Uiso   1.00
H217   H     0.29401   0.26095   0.62606   0.00000  Uiso   1.00
H218   H     0.50707   0.32388   0.45875   0.00000  Uiso   1.00
H219   H     0.52722   0.20937   0.98966   0.00000  Uiso   1.00
H220   H     0.13776   0.21351   0.61172   0.00000  Uiso   1.00
H221   H     0.58704   0.34622   0.25892   0.00000  Uiso   1.00
O222   O     0.52169   0.08741   0.06217   0.00000  Uiso   1.00
O223   O     0.01073   0.09284   0.56632   0.00000  Uiso   1.00
O224   O     0.60017   0.26696   0.10345   0.00000  Uiso   1.00
N225   N     0.45888   0.04740   0.89978   0.00000  Uiso   1.00
N226   N     0.09475   0.05126   0.54646   0.00000  Uiso   1.00
N227   N     0.51477   0.17534   0.21660   0.00000  Uiso   1.00
N228   N     0.50171   0.16287   0.94583   0.00000  Uiso   1.00
N229   N     0.13758   0.16674   0.59251   0.00000  Uiso   1.00
N230   N     0.55760   0.29081   0.26264   0.00000  Uiso   1.00
C231   C     0.91882   0.27123   0.21691   0.00000  Uiso   1.00
C232   C     0.89991   0.29214   0.32449   0.00000  Uiso   1.00
C233   C     0.94833   0.35017   0.38929   0.00000  Uiso   1.00
C234   C     0.92036   0.36018   0.48468   0.00000  Uiso   1.00
C235   C     0.90222   0.39968   0.64727   0.00000  Uiso   1.00
C236   C     0.89885   0.19071   0.22713   0.00000  Uiso   1.00
C237   C     0.94638   0.16348   0.21006   0.00000  Uiso   1.00
C238   C     0.91750   0.08810   0.22347   0.00000  Uiso   1.00
C239   C     0.89770   0.97013   0.23483   0.00000  Uiso   1.00
C240   C     0.86466   0.27228   0.13623   0.00000  Uiso   1.00
C241   C     0.88343   0.31362   0.04271   0.00000  Uiso   1.00
C242   C     0.82576   0.30691   0.97958   0.00000  Uiso   1.00
C243   C     0.75287   0.31560   0.84981   0.00000  Uiso   1.00
C244   C     0.78303   0.18579   0.27106   0.00000  Uiso   1.00
C245   C     0.82615   0.24573   0.35390   0.00000  Uiso   1.00
C246   C     0.79809   0.25565   0.44920   0.00000  Uiso   1.00
C247   C     0.84647   0.31370   0.51414   0.00000  Uiso   1.00
C248   C     0.82509   0.14431   0.25654   0.00000  Uiso   1.00
C249   C     0.79614   0.06896   0.26997   0.00000  Uiso   1.00
C250   C     0.84361   0.04161   0.25293   0.00000  Uiso   1.00
C251   C     0.79090   0.22588   0.16564   0.00000  Uiso   1.00
C252   C     0.73319   0.21910   0.10263   0.00000  Uiso   1.00
C253   C     0.75187   0.26042   0.00905   0.00000  Uiso   1.00
H254   H     0.97625   0.30735   0.19401   0.00000  Uiso   1.00
H255   H     0.00541   0.38607   0.36651   0.00000  Uiso   1.00
H256   H     0.00345   0.19940   0.18729   0.00000  Uiso   1.00
H257   H     0.94051   0.34952   0.01998   0.00000  Uiso   1.00
H258   H     0.00523   0.45286   0.57075   0.00000  Uiso   1.00
H259   H     0.00109   0.05926   0.19282   0.00000  Uiso   1.00
H260   H     0.86837   0.37582   0.84001   0.00000  Uiso   1.00
H261   H     0.72560   0.14966   0.29395   0.00000  Uiso   1.00
H262   H     0.74101   0.21973   0.47194   0.00000  Uiso   1.00
H263   H     0.73905   0.03306   0.29272   0.00000  Uiso   1.00
H264   H     0.67612   0.18319   0.12541   0.00000  Uiso   1.00
H265   H     0.79063   0.31785   0.65632   0.00000  Uiso   1.00
H266   H     0.78649   0.92425   0.27839   0.00000  Uiso   1.00
H267   H     0.65378   0.24082   0.92558   0.00000  Uiso   1.00
O268   O     0.91259   0.43428   0.72883   0.00000  Uiso   1.00
O269   O     0.90716   0.91789   0.23298   0.00000  Uiso   1.00
O270   O     0.73304   0.33322   0.77011   0.00000  Uiso   1.00
N271   N     0.95260   0.41148   0.56645   0.00000  Uiso   1.00
N272   N     0.94874   0.04348   0.21312   0.00000  Uiso   1.00
N273   N     0.82466   0.33943   0.88326   0.00000  Uiso   1.00
N274   N     0.83713   0.33884   0.61250   0.00000  Uiso   1.00
N275   N     0.83326   0.97084   0.25917   0.00000  Uiso   1.00
N276   N     0.70919   0.26679   0.92931   0.00000  Uiso   1.00
