data_job_02841
_audit_creation_date              2018-12-19
_audit_creation_method            'Materials Studio'
_symmetry_space_group_name_H-M    'P1'
_symmetry_Int_Tables_number       1
_symmetry_cell_setting            triclinic
loop_
_symmetry_equiv_pos_as_xyz
  x,y,z
_cell_length_a                    30.5164
_cell_length_b                    9.1170
_cell_length_c                    17.4488
_cell_angle_alpha                 90.0000
_cell_angle_beta                  90.0000
_cell_angle_gamma                 90.0000
loop_
_atom_site_label
_atom_site_type_symbol
_atom_site_fract_x
_atom_site_fract_y
_atom_site_fract_z
_atom_site_U_iso_or_equiv
_atom_site_adp_type
_atom_site_occupancy
C1     C     0.37277   0.71321   0.54088   0.00000  Uiso   1.00
C2     C     0.38296   0.77136   0.62086   0.00000  Uiso   1.00
C3     C     0.40016   0.90855   0.63769   0.00000  Uiso   1.00
C4     C     0.40713   0.94094   0.71447   0.00000  Uiso   1.00
C5     C     0.42448   0.04660   0.82987   0.00000  Uiso   1.00
C6     C     0.39839   0.57043   0.53286   0.00000  Uiso   1.00
C7     C     0.42855   0.53868   0.47568   0.00000  Uiso   1.00
C8     C     0.44850   0.40191   0.47838   0.00000  Uiso   1.00
C9     C     0.48978   0.19558   0.45711   0.00000  Uiso   1.00
C10    C     0.32450   0.67008   0.54187   0.00000  Uiso   1.00
C11    C     0.29252   0.72208   0.49226   0.00000  Uiso   1.00
C12    C     0.25026   0.66918   0.50254   0.00000  Uiso   1.00
C13    C     0.17681   0.61758   0.49527   0.00000  Uiso   1.00
C14    C     0.35458   0.52677   0.64733   0.00000  Uiso   1.00
C15    C     0.37308   0.67008   0.67868   0.00000  Uiso   1.00
C16    C     0.38003   0.70227   0.75546   0.00000  Uiso   1.00
C17    C     0.39723   0.83949   0.77240   0.00000  Uiso   1.00
C18    C     0.38851   0.46916   0.59067   0.00000  Uiso   1.00
C19    C     0.40842   0.33240   0.59345   0.00000  Uiso   1.00
C20    C     0.43860   0.30046   0.53630   0.00000  Uiso   1.00
C21    C     0.31461   0.56881   0.59969   0.00000  Uiso   1.00
C22    C     0.27239   0.51581   0.61004   0.00000  Uiso   1.00
C23    C     0.24036   0.56773   0.56046   0.00000  Uiso   1.00
H24    H     0.38047   0.79205   0.49586   0.00000  Uiso   1.00
H25    H     0.40780   0.98689   0.59292   0.00000  Uiso   1.00
H26    H     0.43619   0.61706   0.43094   0.00000  Uiso   1.00
H27    H     0.30018   0.80045   0.44752   0.00000  Uiso   1.00
H28    H     0.43377   0.15822   0.72603   0.00000  Uiso   1.00
H29    H     0.49361   0.37842   0.38446   0.00000  Uiso   1.00
H30    H     0.20681   0.76511   0.41943   0.00000  Uiso   1.00
H31    H     0.34688   0.44792   0.69235   0.00000  Uiso   1.00
H32    H     0.37238   0.62388   0.80019   0.00000  Uiso   1.00
H33    H     0.40076   0.25406   0.63820   0.00000  Uiso   1.00
H34    H     0.26476   0.43744   0.65479   0.00000  Uiso   1.00
H35    H     0.40502   0.86359   0.89426   0.00000  Uiso   1.00
H36    H     0.46486   0.08378   0.55268   0.00000  Uiso   1.00
H37    H     0.17806   0.47048   0.58766   0.00000  Uiso   1.00
O38    O     0.43679   0.13285   0.87754   0.00000  Uiso   1.00
O39    O     0.51528   0.10977   0.42940   0.00000  Uiso   1.00
O40    O     0.13902   0.61710   0.47529   0.00000  Uiso   1.00
N41    N     0.42350   0.06474   0.75082   0.00000  Uiso   1.00
N42    N     0.47944   0.33568   0.43148   0.00000  Uiso   1.00
N43    N     0.21132   0.69717   0.46416   0.00000  Uiso   1.00
N44    N     0.40803   0.90620   0.84135   0.00000  Uiso   1.00
N45    N     0.46397   0.17714   0.52200   0.00000  Uiso   1.00
N46    N     0.19585   0.53864   0.55468   0.00000  Uiso   1.00
C47    C     0.12723   0.78679   0.04088   0.00000  Uiso   1.00
C48    C     0.11704   0.72864   0.12086   0.00000  Uiso   1.00
C49    C     0.09984   0.59145   0.13769   0.00000  Uiso   1.00
C50    C     0.09287   0.55906   0.21447   0.00000  Uiso   1.00
C51    C     0.07552   0.45340   0.32987   0.00000  Uiso   1.00
C52    C     0.10161   0.92957   0.03286   0.00000  Uiso   1.00
C53    C     0.07145   0.96132   0.97568   0.00000  Uiso   1.00
C54    C     0.05150   0.09809   0.97838   0.00000  Uiso   1.00
C55    C     0.01022   0.30442   0.95711   0.00000  Uiso   1.00
C56    C     0.17550   0.82992   0.04187   0.00000  Uiso   1.00
C57    C     0.20748   0.77792   0.99226   0.00000  Uiso   1.00
C58    C     0.24974   0.83082   0.00254   0.00000  Uiso   1.00
C59    C     0.32319   0.88242   0.99527   0.00000  Uiso   1.00
C60    C     0.14542   0.97323   0.14733   0.00000  Uiso   1.00
C61    C     0.12692   0.82992   0.17868   0.00000  Uiso   1.00
C62    C     0.11997   0.79773   0.25546   0.00000  Uiso   1.00
C63    C     0.10277   0.66051   0.27240   0.00000  Uiso   1.00
C64    C     0.11149   0.03084   0.09067   0.00000  Uiso   1.00
C65    C     0.09158   0.16760   0.09345   0.00000  Uiso   1.00
C66    C     0.06140   0.19954   0.03630   0.00000  Uiso   1.00
C67    C     0.18539   0.93119   0.09969   0.00000  Uiso   1.00
C68    C     0.22761   0.98419   0.11004   0.00000  Uiso   1.00
C69    C     0.25964   0.93227   0.06046   0.00000  Uiso   1.00
H70    H     0.11953   0.70795   0.99586   0.00000  Uiso   1.00
H71    H     0.09220   0.51311   0.09292   0.00000  Uiso   1.00
H72    H     0.06381   0.88294   0.93094   0.00000  Uiso   1.00
H73    H     0.19982   0.69955   0.94752   0.00000  Uiso   1.00
H74    H     0.06623   0.34178   0.22603   0.00000  Uiso   1.00
H75    H     0.00639   0.12158   0.88446   0.00000  Uiso   1.00
H76    H     0.29319   0.73489   0.91943   0.00000  Uiso   1.00
H77    H     0.15312   0.05208   0.19235   0.00000  Uiso   1.00
H78    H     0.12762   0.87612   0.30019   0.00000  Uiso   1.00
H79    H     0.09924   0.24594   0.13820   0.00000  Uiso   1.00
H80    H     0.23524   0.06256   0.15479   0.00000  Uiso   1.00
H81    H     0.09498   0.63641   0.39426   0.00000  Uiso   1.00
H82    H     0.03514   0.41622   0.05268   0.00000  Uiso   1.00
H83    H     0.32194   0.02952   0.08766   0.00000  Uiso   1.00
O84    O     0.06321   0.36715   0.37754   0.00000  Uiso   1.00
O85    O     0.98472   0.39023   0.92940   0.00000  Uiso   1.00
O86    O     0.36098   0.88290   0.97529   0.00000  Uiso   1.00
N87    N     0.07650   0.43526   0.25082   0.00000  Uiso   1.00
N88    N     0.02056   0.16432   0.93148   0.00000  Uiso   1.00
N89    N     0.28868   0.80283   0.96416   0.00000  Uiso   1.00
N90    N     0.09197   0.59380   0.34135   0.00000  Uiso   1.00
N91    N     0.03603   0.32286   0.02200   0.00000  Uiso   1.00
N92    N     0.30415   0.96136   0.05468   0.00000  Uiso   1.00
C93    C     0.62723   0.71321   0.95912   0.00000  Uiso   1.00
C94    C     0.61704   0.77136   0.87914   0.00000  Uiso   1.00
C95    C     0.59984   0.90855   0.86231   0.00000  Uiso   1.00
C96    C     0.59287   0.94094   0.78553   0.00000  Uiso   1.00
C97    C     0.57552   0.04660   0.67013   0.00000  Uiso   1.00
C98    C     0.60161   0.57043   0.96714   0.00000  Uiso   1.00
C99    C     0.57145   0.53868   0.02432   0.00000  Uiso   1.00
C100   C     0.55150   0.40191   0.02162   0.00000  Uiso   1.00
C101   C     0.51022   0.19558   0.04289   0.00000  Uiso   1.00
C102   C     0.67550   0.67008   0.95813   0.00000  Uiso   1.00
C103   C     0.70748   0.72208   0.00774   0.00000  Uiso   1.00
C104   C     0.74974   0.66918   0.99746   0.00000  Uiso   1.00
C105   C     0.82319   0.61758   0.00473   0.00000  Uiso   1.00
C106   C     0.64542   0.52677   0.85267   0.00000  Uiso   1.00
C107   C     0.62692   0.67008   0.82132   0.00000  Uiso   1.00
C108   C     0.61997   0.70227   0.74454   0.00000  Uiso   1.00
C109   C     0.60277   0.83949   0.72760   0.00000  Uiso   1.00
C110   C     0.61149   0.46916   0.90933   0.00000  Uiso   1.00
C111   C     0.59158   0.33240   0.90655   0.00000  Uiso   1.00
C112   C     0.56140   0.30046   0.96370   0.00000  Uiso   1.00
C113   C     0.68539   0.56881   0.90031   0.00000  Uiso   1.00
C114   C     0.72761   0.51581   0.88996   0.00000  Uiso   1.00
C115   C     0.75964   0.56773   0.93954   0.00000  Uiso   1.00
H116   H     0.61953   0.79205   0.00414   0.00000  Uiso   1.00
H117   H     0.59220   0.98689   0.90708   0.00000  Uiso   1.00
H118   H     0.56381   0.61706   0.06906   0.00000  Uiso   1.00
H119   H     0.69982   0.80045   0.05248   0.00000  Uiso   1.00
H120   H     0.56623   0.15822   0.77397   0.00000  Uiso   1.00
H121   H     0.50639   0.37842   0.11554   0.00000  Uiso   1.00
H122   H     0.79319   0.76511   0.08057   0.00000  Uiso   1.00
H123   H     0.65312   0.44792   0.80765   0.00000  Uiso   1.00
H124   H     0.62762   0.62388   0.69981   0.00000  Uiso   1.00
H125   H     0.59924   0.25406   0.86180   0.00000  Uiso   1.00
H126   H     0.73524   0.43744   0.84521   0.00000  Uiso   1.00
H127   H     0.59498   0.86359   0.60574   0.00000  Uiso   1.00
H128   H     0.53514   0.08378   0.94732   0.00000  Uiso   1.00
H129   H     0.82194   0.47048   0.91234   0.00000  Uiso   1.00
O130   O     0.56321   0.13285   0.62246   0.00000  Uiso   1.00
O131   O     0.48472   0.10977   0.07060   0.00000  Uiso   1.00
O132   O     0.86098   0.61710   0.02471   0.00000  Uiso   1.00
N133   N     0.57650   0.06474   0.74918   0.00000  Uiso   1.00
N134   N     0.52056   0.33568   0.06852   0.00000  Uiso   1.00
N135   N     0.78868   0.69717   0.03584   0.00000  Uiso   1.00
N136   N     0.59197   0.90620   0.65865   0.00000  Uiso   1.00
N137   N     0.53603   0.17714   0.97800   0.00000  Uiso   1.00
N138   N     0.80415   0.53864   0.94532   0.00000  Uiso   1.00
C139   C     0.87277   0.78679   0.45912   0.00000  Uiso   1.00
C140   C     0.88296   0.72864   0.37914   0.00000  Uiso   1.00
C141   C     0.90016   0.59145   0.36231   0.00000  Uiso   1.00
C142   C     0.90713   0.55906   0.28553   0.00000  Uiso   1.00
C143   C     0.92448   0.45340   0.17013   0.00000  Uiso   1.00
C144   C     0.89839   0.92957   0.46714   0.00000  Uiso   1.00
C145   C     0.92855   0.96132   0.52432   0.00000  Uiso   1.00
C146   C     0.94850   0.09809   0.52162   0.00000  Uiso   1.00
C147   C     0.98978   0.30442   0.54289   0.00000  Uiso   1.00
C148   C     0.82450   0.82992   0.45813   0.00000  Uiso   1.00
C149   C     0.79252   0.77792   0.50774   0.00000  Uiso   1.00
C150   C     0.75026   0.83082   0.49746   0.00000  Uiso   1.00
C151   C     0.67681   0.88242   0.50473   0.00000  Uiso   1.00
C152   C     0.85458   0.97323   0.35267   0.00000  Uiso   1.00
C153   C     0.87308   0.82992   0.32132   0.00000  Uiso   1.00
C154   C     0.88003   0.79773   0.24454   0.00000  Uiso   1.00
C155   C     0.89723   0.66051   0.22760   0.00000  Uiso   1.00
C156   C     0.88851   0.03084   0.40933   0.00000  Uiso   1.00
C157   C     0.90842   0.16760   0.40655   0.00000  Uiso   1.00
C158   C     0.93860   0.19954   0.46370   0.00000  Uiso   1.00
C159   C     0.81461   0.93119   0.40031   0.00000  Uiso   1.00
C160   C     0.77239   0.98419   0.38996   0.00000  Uiso   1.00
C161   C     0.74036   0.93227   0.43954   0.00000  Uiso   1.00
H162   H     0.88047   0.70795   0.50414   0.00000  Uiso   1.00
H163   H     0.90780   0.51311   0.40708   0.00000  Uiso   1.00
H164   H     0.93619   0.88294   0.56906   0.00000  Uiso   1.00
H165   H     0.80018   0.69955   0.55248   0.00000  Uiso   1.00
H166   H     0.93377   0.34178   0.27397   0.00000  Uiso   1.00
H167   H     0.99361   0.12158   0.61554   0.00000  Uiso   1.00
H168   H     0.70681   0.73489   0.58057   0.00000  Uiso   1.00
H169   H     0.84688   0.05208   0.30765   0.00000  Uiso   1.00
H170   H     0.87238   0.87612   0.19981   0.00000  Uiso   1.00
H171   H     0.90076   0.24594   0.36180   0.00000  Uiso   1.00
H172   H     0.76476   0.06256   0.34521   0.00000  Uiso   1.00
H173   H     0.90502   0.63641   0.10574   0.00000  Uiso   1.00
H174   H     0.96486   0.41622   0.44732   0.00000  Uiso   1.00
H175   H     0.67806   0.02952   0.41234   0.00000  Uiso   1.00
O176   O     0.93679   0.36715   0.12246   0.00000  Uiso   1.00
O177   O     0.01528   0.39023   0.57060   0.00000  Uiso   1.00
O178   O     0.63902   0.88290   0.52471   0.00000  Uiso   1.00
N179   N     0.92350   0.43526   0.24918   0.00000  Uiso   1.00
N180   N     0.97944   0.16432   0.56852   0.00000  Uiso   1.00
N181   N     0.71132   0.80283   0.53584   0.00000  Uiso   1.00
N182   N     0.90803   0.59380   0.15865   0.00000  Uiso   1.00
N183   N     0.96397   0.32286   0.47800   0.00000  Uiso   1.00
N184   N     0.69585   0.96136   0.44532   0.00000  Uiso   1.00
C185   C     0.62723   0.28679   0.45912   0.00000  Uiso   1.00
C186   C     0.61704   0.22864   0.37914   0.00000  Uiso   1.00
C187   C     0.59984   0.09145   0.36231   0.00000  Uiso   1.00
C188   C     0.59287   0.05906   0.28553   0.00000  Uiso   1.00
C189   C     0.57552   0.95340   0.17013   0.00000  Uiso   1.00
C190   C     0.60161   0.42957   0.46714   0.00000  Uiso   1.00
C191   C     0.57145   0.46132   0.52432   0.00000  Uiso   1.00
C192   C     0.55150   0.59809   0.52162   0.00000  Uiso   1.00
C193   C     0.51022   0.80442   0.54289   0.00000  Uiso   1.00
C194   C     0.67550   0.32992   0.45813   0.00000  Uiso   1.00
C195   C     0.70748   0.27792   0.50774   0.00000  Uiso   1.00
C196   C     0.74974   0.33082   0.49746   0.00000  Uiso   1.00
C197   C     0.82319   0.38242   0.50473   0.00000  Uiso   1.00
C198   C     0.64542   0.47323   0.35267   0.00000  Uiso   1.00
C199   C     0.62692   0.32992   0.32132   0.00000  Uiso   1.00
C200   C     0.61997   0.29773   0.24454   0.00000  Uiso   1.00
C201   C     0.60277   0.16051   0.22760   0.00000  Uiso   1.00
C202   C     0.61149   0.53084   0.40933   0.00000  Uiso   1.00
C203   C     0.59158   0.66760   0.40655   0.00000  Uiso   1.00
C204   C     0.56140   0.69954   0.46370   0.00000  Uiso   1.00
C205   C     0.68539   0.43119   0.40031   0.00000  Uiso   1.00
C206   C     0.72761   0.48419   0.38996   0.00000  Uiso   1.00
C207   C     0.75964   0.43227   0.43954   0.00000  Uiso   1.00
H208   H     0.61953   0.20795   0.50414   0.00000  Uiso   1.00
H209   H     0.59220   0.01311   0.40708   0.00000  Uiso   1.00
H210   H     0.56381   0.38294   0.56906   0.00000  Uiso   1.00
H211   H     0.69982   0.19955   0.55248   0.00000  Uiso   1.00
H212   H     0.56623   0.84178   0.27397   0.00000  Uiso   1.00
H213   H     0.50639   0.62158   0.61554   0.00000  Uiso   1.00
H214   H     0.79319   0.23489   0.58057   0.00000  Uiso   1.00
H215   H     0.65312   0.55208   0.30765   0.00000  Uiso   1.00
H216   H     0.62762   0.37612   0.19981   0.00000  Uiso   1.00
H217   H     0.59924   0.74594   0.36180   0.00000  Uiso   1.00
H218   H     0.73524   0.56256   0.34521   0.00000  Uiso   1.00
H219   H     0.59498   0.13641   0.10574   0.00000  Uiso   1.00
H220   H     0.53514   0.91622   0.44732   0.00000  Uiso   1.00
H221   H     0.82194   0.52952   0.41234   0.00000  Uiso   1.00
O222   O     0.56321   0.86715   0.12246   0.00000  Uiso   1.00
O223   O     0.48472   0.89023   0.57060   0.00000  Uiso   1.00
O224   O     0.86098   0.38290   0.52471   0.00000  Uiso   1.00
N225   N     0.57650   0.93526   0.24918   0.00000  Uiso   1.00
N226   N     0.52056   0.66432   0.56852   0.00000  Uiso   1.00
N227   N     0.78868   0.30283   0.53584   0.00000  Uiso   1.00
N228   N     0.59197   0.09380   0.15865   0.00000  Uiso   1.00
N229   N     0.53603   0.82286   0.47800   0.00000  Uiso   1.00
N230   N     0.80415   0.46136   0.44532   0.00000  Uiso   1.00
C231   C     0.87277   0.21321   0.95912   0.00000  Uiso   1.00
C232   C     0.88296   0.27136   0.87914   0.00000  Uiso   1.00
C233   C     0.90016   0.40855   0.86231   0.00000  Uiso   1.00
C234   C     0.90713   0.44094   0.78553   0.00000  Uiso   1.00
C235   C     0.92448   0.54660   0.67013   0.00000  Uiso   1.00
C236   C     0.89839   0.07043   0.96714   0.00000  Uiso   1.00
C237   C     0.92855   0.03868   0.02432   0.00000  Uiso   1.00
C238   C     0.94850   0.90191   0.02162   0.00000  Uiso   1.00
C239   C     0.98978   0.69558   0.04289   0.00000  Uiso   1.00
C240   C     0.82450   0.17008   0.95813   0.00000  Uiso   1.00
C241   C     0.79252   0.22208   0.00774   0.00000  Uiso   1.00
C242   C     0.75026   0.16918   0.99746   0.00000  Uiso   1.00
C243   C     0.67681   0.11758   0.00473   0.00000  Uiso   1.00
C244   C     0.85458   0.02677   0.85267   0.00000  Uiso   1.00
C245   C     0.87308   0.17008   0.82132   0.00000  Uiso   1.00
C246   C     0.88003   0.20227   0.74454   0.00000  Uiso   1.00
C247   C     0.89723   0.33949   0.72760   0.00000  Uiso   1.00
C248   C     0.88851   0.96916   0.90933   0.00000  Uiso   1.00
C249   C     0.90842   0.83240   0.90655   0.00000  Uiso   1.00
C250   C     0.93860   0.80046   0.96370   0.00000  Uiso   1.00
C251   C     0.81461   0.06881   0.90031   0.00000  Uiso   1.00
C252   C     0.77239   0.01581   0.88996   0.00000  Uiso   1.00
C253   C     0.74036   0.06773   0.93954   0.00000  Uiso   1.00
H254   H     0.88047   0.29205   0.00414   0.00000  Uiso   1.00
H255   H     0.90780   0.48689   0.90708   0.00000  Uiso   1.00
H256   H     0.93619   0.11706   0.06906   0.00000  Uiso   1.00
H257   H     0.80018   0.30045   0.05248   0.00000  Uiso   1.00
H258   H     0.93377   0.65822   0.77397   0.00000  Uiso   1.00
H259   H     0.99361   0.87842   0.11554   0.00000  Uiso   1.00
H260   H     0.70681   0.26511   0.08057   0.00000  Uiso   1.00
H261   H     0.84688   0.94792   0.80765   0.00000  Uiso   1.00
H262   H     0.87238   0.12388   0.69981   0.00000  Uiso   1.00
H263   H     0.90076   0.75406   0.86180   0.00000  Uiso   1.00
H264   H     0.76476   0.93744   0.84521   0.00000  Uiso   1.00
H265   H     0.90502   0.36359   0.60574   0.00000  Uiso   1.00
H266   H     0.96486   0.58378   0.94732   0.00000  Uiso   1.00
H267   H     0.67806   0.97048   0.91234   0.00000  Uiso   1.00
O268   O     0.93679   0.63285   0.62246   0.00000  Uiso   1.00
O269   O     0.01528   0.60977   0.07060   0.00000  Uiso   1.00
O270   O     0.63902   0.11710   0.02471   0.00000  Uiso   1.00
N271   N     0.92350   0.56474   0.74918   0.00000  Uiso   1.00
N272   N     0.97944   0.83568   0.06852   0.00000  Uiso   1.00
N273   N     0.71132   0.19717   0.03584   0.00000  Uiso   1.00
N274   N     0.90803   0.40620   0.65865   0.00000  Uiso   1.00
N275   N     0.96397   0.67714   0.97800   0.00000  Uiso   1.00
N276   N     0.69585   0.03864   0.94532   0.00000  Uiso   1.00
C277   C     0.37277   0.28679   0.04088   0.00000  Uiso   1.00
C278   C     0.38296   0.22864   0.12086   0.00000  Uiso   1.00
C279   C     0.40016   0.09145   0.13769   0.00000  Uiso   1.00
C280   C     0.40713   0.05906   0.21447   0.00000  Uiso   1.00
C281   C     0.42448   0.95340   0.32987   0.00000  Uiso   1.00
C282   C     0.39839   0.42957   0.03286   0.00000  Uiso   1.00
C283   C     0.42855   0.46132   0.97568   0.00000  Uiso   1.00
C284   C     0.44850   0.59809   0.97838   0.00000  Uiso   1.00
C285   C     0.48978   0.80442   0.95711   0.00000  Uiso   1.00
C286   C     0.32450   0.32992   0.04187   0.00000  Uiso   1.00
C287   C     0.29252   0.27792   0.99226   0.00000  Uiso   1.00
C288   C     0.25026   0.33082   0.00254   0.00000  Uiso   1.00
C289   C     0.17681   0.38242   0.99527   0.00000  Uiso   1.00
C290   C     0.35458   0.47323   0.14733   0.00000  Uiso   1.00
C291   C     0.37308   0.32992   0.17868   0.00000  Uiso   1.00
C292   C     0.38003   0.29773   0.25546   0.00000  Uiso   1.00
C293   C     0.39723   0.16051   0.27240   0.00000  Uiso   1.00
C294   C     0.38851   0.53084   0.09067   0.00000  Uiso   1.00
C295   C     0.40842   0.66760   0.09345   0.00000  Uiso   1.00
C296   C     0.43860   0.69954   0.03630   0.00000  Uiso   1.00
C297   C     0.31461   0.43119   0.09969   0.00000  Uiso   1.00
C298   C     0.27239   0.48419   0.11004   0.00000  Uiso   1.00
C299   C     0.24036   0.43227   0.06046   0.00000  Uiso   1.00
H300   H     0.38047   0.20795   0.99586   0.00000  Uiso   1.00
H301   H     0.40780   0.01311   0.09292   0.00000  Uiso   1.00
H302   H     0.43619   0.38294   0.93094   0.00000  Uiso   1.00
H303   H     0.30018   0.19955   0.94752   0.00000  Uiso   1.00
H304   H     0.43377   0.84178   0.22603   0.00000  Uiso   1.00
H305   H     0.49361   0.62158   0.88446   0.00000  Uiso   1.00
H306   H     0.20681   0.23489   0.91943   0.00000  Uiso   1.00
H307   H     0.34688   0.55208   0.19235   0.00000  Uiso   1.00
H308   H     0.37238   0.37612   0.30019   0.00000  Uiso   1.00
H309   H     0.40076   0.74594   0.13820   0.00000  Uiso   1.00
H310   H     0.26476   0.56256   0.15479   0.00000  Uiso   1.00
H311   H     0.40502   0.13641   0.39426   0.00000  Uiso   1.00
H312   H     0.46486   0.91622   0.05268   0.00000  Uiso   1.00
H313   H     0.17806   0.52952   0.08766   0.00000  Uiso   1.00
O314   O     0.43679   0.86715   0.37754   0.00000  Uiso   1.00
O315   O     0.51528   0.89023   0.92940   0.00000  Uiso   1.00
O316   O     0.13902   0.38290   0.97529   0.00000  Uiso   1.00
N317   N     0.42350   0.93526   0.25082   0.00000  Uiso   1.00
N318   N     0.47944   0.66432   0.93148   0.00000  Uiso   1.00
N319   N     0.21132   0.30283   0.96416   0.00000  Uiso   1.00
N320   N     0.40803   0.09380   0.34135   0.00000  Uiso   1.00
N321   N     0.46397   0.82286   0.02200   0.00000  Uiso   1.00
N322   N     0.19585   0.46136   0.05468   0.00000  Uiso   1.00
C323   C     0.12723   0.21321   0.54088   0.00000  Uiso   1.00
C324   C     0.11704   0.27136   0.62086   0.00000  Uiso   1.00
C325   C     0.09984   0.40855   0.63769   0.00000  Uiso   1.00
C326   C     0.09287   0.44094   0.71447   0.00000  Uiso   1.00
C327   C     0.07552   0.54660   0.82987   0.00000  Uiso   1.00
C328   C     0.10161   0.07043   0.53286   0.00000  Uiso   1.00
C329   C     0.07145   0.03868   0.47568   0.00000  Uiso   1.00
C330   C     0.05150   0.90191   0.47838   0.00000  Uiso   1.00
C331   C     0.01022   0.69558   0.45711   0.00000  Uiso   1.00
C332   C     0.17550   0.17008   0.54187   0.00000  Uiso   1.00
C333   C     0.20748   0.22208   0.49226   0.00000  Uiso   1.00
C334   C     0.24974   0.16918   0.50254   0.00000  Uiso   1.00
C335   C     0.32319   0.11758   0.49527   0.00000  Uiso   1.00
C336   C     0.14542   0.02677   0.64733   0.00000  Uiso   1.00
C337   C     0.12692   0.17008   0.67868   0.00000  Uiso   1.00
C338   C     0.11997   0.20227   0.75546   0.00000  Uiso   1.00
C339   C     0.10277   0.33949   0.77240   0.00000  Uiso   1.00
C340   C     0.11149   0.96916   0.59067   0.00000  Uiso   1.00
C341   C     0.09158   0.83240   0.59345   0.00000  Uiso   1.00
C342   C     0.06140   0.80046   0.53630   0.00000  Uiso   1.00
C343   C     0.18539   0.06881   0.59969   0.00000  Uiso   1.00
C344   C     0.22761   0.01581   0.61004   0.00000  Uiso   1.00
C345   C     0.25964   0.06773   0.56046   0.00000  Uiso   1.00
H346   H     0.11953   0.29205   0.49586   0.00000  Uiso   1.00
H347   H     0.09220   0.48689   0.59292   0.00000  Uiso   1.00
H348   H     0.06381   0.11706   0.43094   0.00000  Uiso   1.00
H349   H     0.19982   0.30045   0.44752   0.00000  Uiso   1.00
H350   H     0.06623   0.65822   0.72603   0.00000  Uiso   1.00
H351   H     0.00639   0.87842   0.38446   0.00000  Uiso   1.00
H352   H     0.29319   0.26511   0.41943   0.00000  Uiso   1.00
H353   H     0.15312   0.94792   0.69235   0.00000  Uiso   1.00
H354   H     0.12762   0.12388   0.80019   0.00000  Uiso   1.00
H355   H     0.09924   0.75406   0.63820   0.00000  Uiso   1.00
H356   H     0.23524   0.93744   0.65479   0.00000  Uiso   1.00
H357   H     0.09498   0.36359   0.89426   0.00000  Uiso   1.00
H358   H     0.03514   0.58378   0.55268   0.00000  Uiso   1.00
H359   H     0.32194   0.97048   0.58766   0.00000  Uiso   1.00
O360   O     0.06321   0.63285   0.87754   0.00000  Uiso   1.00
O361   O     0.98472   0.60977   0.42940   0.00000  Uiso   1.00
O362   O     0.36098   0.11710   0.47529   0.00000  Uiso   1.00
N363   N     0.07650   0.56474   0.75082   0.00000  Uiso   1.00
N364   N     0.02056   0.83568   0.43148   0.00000  Uiso   1.00
N365   N     0.28868   0.19717   0.46416   0.00000  Uiso   1.00
N366   N     0.09197   0.40620   0.84135   0.00000  Uiso   1.00
N367   N     0.03603   0.67714   0.52200   0.00000  Uiso   1.00
N368   N     0.30415   0.03864   0.55468   0.00000  Uiso   1.00
