data_job_05818
_audit_creation_date              2018-12-19
_audit_creation_method            'Materials Studio'
_symmetry_space_group_name_H-M    'P1'
_symmetry_Int_Tables_number       1
_symmetry_cell_setting            triclinic
loop_
_symmetry_equiv_pos_as_xyz
  x,y,z
_cell_length_a                    20.1899
_cell_length_b                    7.1365
_cell_length_c                    16.8937
_cell_angle_alpha                 90.0000
_cell_angle_beta                  67.0300
_cell_angle_gamma                 90.0000
loop_
_atom_site_label
_atom_site_type_symbol
_atom_site_fract_x
_atom_site_fract_y
_atom_site_fract_z
_atom_site_U_iso_or_equiv
_atom_site_adp_type
_atom_site_occupancy
C1     C     0.85459   0.01214   0.71879   0.00000  Uiso   1.00
C2     C     0.79676   0.94190   0.80249   0.00000  Uiso   1.00
C3     C     0.73772   0.04379   0.85601   0.00000  Uiso   1.00
C4     C     0.69100   0.95450   0.92965   0.00000  Uiso   1.00
C5     C     0.59940   0.87353   0.05669   0.00000  Uiso   1.00
C6     C     0.92602   0.98847   0.72874   0.00000  Uiso   1.00
C7     C     0.97566   0.12953   0.72023   0.00000  Uiso   1.00
C8     C     0.03774   0.07943   0.73177   0.00000  Uiso   1.00
C9     C     0.14684   0.07075   0.74425   0.00000  Uiso   1.00
C10    C     0.85608   0.87320   0.64954   0.00000  Uiso   1.00
C11    C     0.84694   0.91733   0.57444   0.00000  Uiso   1.00
C12    C     0.85015   0.77018   0.51928   0.00000  Uiso   1.00
C13    C     0.85066   0.58253   0.40880   0.00000  Uiso   1.00
C14    C     0.87659   0.67235   0.75439   0.00000  Uiso   1.00
C15    C     0.80871   0.75733   0.82183   0.00000  Uiso   1.00
C16    C     0.76206   0.66785   0.89540   0.00000  Uiso   1.00
C17    C     0.70296   0.76960   0.94902   0.00000  Uiso   1.00
C18    C     0.93797   0.80392   0.74807   0.00000  Uiso   1.00
C19    C    -0.00001   0.75359   0.75962   0.00000  Uiso   1.00
C20    C     0.04971   0.89453   0.75114   0.00000  Uiso   1.00
C21    C     0.86802   0.68863   0.66888   0.00000  Uiso   1.00
C22    C     0.87127   0.54139   0.61383   0.00000  Uiso   1.00
C23    C     0.86213   0.58529   0.53865   0.00000  Uiso   1.00
H24    H     0.84530   0.15583   0.70374   0.00000  Uiso   1.00
H25    H     0.72850   0.18663   0.84103   0.00000  Uiso   1.00
H26    H     0.96640   0.27234   0.70526   0.00000  Uiso   1.00
H27    H     0.83769   0.06017   0.55950   0.00000  Uiso   1.00
H28    H     0.60429   0.13940   0.00179   0.00000  Uiso   1.00
H29    H     0.10593   0.32012   0.71549   0.00000  Uiso   1.00
H30    H     0.83453   0.87273   0.40810   0.00000  Uiso   1.00
H31    H     0.88589   0.52865   0.76944   0.00000  Uiso   1.00
H32    H     0.77132   0.52503   0.91034   0.00000  Uiso   1.00
H33    H     0.00922   0.61075   0.77458   0.00000  Uiso   1.00
H34    H     0.88051   0.39859   0.62881   0.00000  Uiso   1.00
H35    H     0.63905   0.60243   0.05805   0.00000  Uiso   1.00
H36    H     0.14069   0.78315   0.77174   0.00000  Uiso   1.00
H37    H     0.86928   0.33576   0.46436   0.00000  Uiso   1.00
O38    O     0.54558   0.87987   0.12143   0.00000  Uiso   1.00
O39    O     0.20372   0.11696   0.74580   0.00000  Uiso   1.00
O40    O     0.84763   0.53000   0.34253   0.00000  Uiso   1.00
N41    N     0.62819   0.01351   0.99568   0.00000  Uiso   1.00
N42    N     0.09719   0.18248   0.72802   0.00000  Uiso   1.00
N43    N     0.84346   0.76421   0.44063   0.00000  Uiso   1.00
N44    N     0.64689   0.72457   0.02595   0.00000  Uiso   1.00
N45    N     0.11589   0.89354   0.75829   0.00000  Uiso   1.00
N46    N     0.86216   0.47527   0.47090   0.00000  Uiso   1.00
C47    C     0.35459   0.51214   0.71879   0.00000  Uiso   1.00
C48    C     0.29676   0.44190   0.80249   0.00000  Uiso   1.00
C49    C     0.23772   0.54379   0.85601   0.00000  Uiso   1.00
C50    C     0.19100   0.45450   0.92965   0.00000  Uiso   1.00
C51    C     0.09940   0.37353   0.05669   0.00000  Uiso   1.00
C52    C     0.42602   0.48847   0.72874   0.00000  Uiso   1.00
C53    C     0.47566   0.62953   0.72023   0.00000  Uiso   1.00
C54    C     0.53774   0.57943   0.73177   0.00000  Uiso   1.00
C55    C     0.64684   0.57075   0.74425   0.00000  Uiso   1.00
C56    C     0.35608   0.37320   0.64954   0.00000  Uiso   1.00
C57    C     0.34694   0.41733   0.57444   0.00000  Uiso   1.00
C58    C     0.35015   0.27018   0.51928   0.00000  Uiso   1.00
C59    C     0.35066   0.08253   0.40880   0.00000  Uiso   1.00
C60    C     0.37659   0.17235   0.75439   0.00000  Uiso   1.00
C61    C     0.30871   0.25733   0.82183   0.00000  Uiso   1.00
C62    C     0.26206   0.16785   0.89540   0.00000  Uiso   1.00
C63    C     0.20296   0.26960   0.94902   0.00000  Uiso   1.00
C64    C     0.43797   0.30392   0.74807   0.00000  Uiso   1.00
C65    C     0.49999   0.25359   0.75962   0.00000  Uiso   1.00
C66    C     0.54971   0.39453   0.75114   0.00000  Uiso   1.00
C67    C     0.36802   0.18863   0.66888   0.00000  Uiso   1.00
C68    C     0.37127   0.04139   0.61383   0.00000  Uiso   1.00
C69    C     0.36213   0.08529   0.53865   0.00000  Uiso   1.00
H70    H     0.34530   0.65583   0.70374   0.00000  Uiso   1.00
H71    H     0.22850   0.68663   0.84103   0.00000  Uiso   1.00
H72    H     0.46640   0.77234   0.70526   0.00000  Uiso   1.00
H73    H     0.33769   0.56017   0.55950   0.00000  Uiso   1.00
H74    H     0.10429   0.63940   0.00179   0.00000  Uiso   1.00
H75    H     0.60593   0.82012   0.71549   0.00000  Uiso   1.00
H76    H     0.33453   0.37273   0.40810   0.00000  Uiso   1.00
H77    H     0.38589   0.02865   0.76944   0.00000  Uiso   1.00
H78    H     0.27132   0.02503   0.91034   0.00000  Uiso   1.00
H79    H     0.50922   0.11075   0.77458   0.00000  Uiso   1.00
H80    H     0.38051   0.89859   0.62881   0.00000  Uiso   1.00
H81    H     0.13905   0.10243   0.05805   0.00000  Uiso   1.00
H82    H     0.64069   0.28315   0.77174   0.00000  Uiso   1.00
H83    H     0.36928   0.83576   0.46436   0.00000  Uiso   1.00
O84    O     0.04558   0.37987   0.12143   0.00000  Uiso   1.00
O85    O     0.70372   0.61696   0.74580   0.00000  Uiso   1.00
O86    O     0.34763   0.03000   0.34253   0.00000  Uiso   1.00
N87    N     0.12819   0.51351   0.99568   0.00000  Uiso   1.00
N88    N     0.59719   0.68248   0.72802   0.00000  Uiso   1.00
N89    N     0.34346   0.26421   0.44063   0.00000  Uiso   1.00
N90    N     0.14689   0.22457   0.02595   0.00000  Uiso   1.00
N91    N     0.61589   0.39354   0.75829   0.00000  Uiso   1.00
N92    N     0.36216   0.97527   0.47090   0.00000  Uiso   1.00
C93    C     0.14541   0.01214   0.28121   0.00000  Uiso   1.00
C94    C     0.20324   0.94190   0.19751   0.00000  Uiso   1.00
C95    C     0.26228   0.04379   0.14399   0.00000  Uiso   1.00
C96    C     0.30900   0.95450   0.07035   0.00000  Uiso   1.00
C97    C     0.40060   0.87353   0.94331   0.00000  Uiso   1.00
C98    C     0.07398   0.98847   0.27126   0.00000  Uiso   1.00
C99    C     0.02434   0.12953   0.27977   0.00000  Uiso   1.00
C100   C     0.96226   0.07943   0.26823   0.00000  Uiso   1.00
C101   C     0.85316   0.07075   0.25575   0.00000  Uiso   1.00
C102   C     0.14392   0.87320   0.35046   0.00000  Uiso   1.00
C103   C     0.15306   0.91733   0.42556   0.00000  Uiso   1.00
C104   C     0.14985   0.77018   0.48072   0.00000  Uiso   1.00
C105   C     0.14934   0.58253   0.59120   0.00000  Uiso   1.00
C106   C     0.12341   0.67235   0.24561   0.00000  Uiso   1.00
C107   C     0.19129   0.75733   0.17817   0.00000  Uiso   1.00
C108   C     0.23794   0.66785   0.10460   0.00000  Uiso   1.00
C109   C     0.29704   0.76960   0.05098   0.00000  Uiso   1.00
C110   C     0.06203   0.80392   0.25193   0.00000  Uiso   1.00
C111   C     0.00001   0.75359   0.24038   0.00000  Uiso   1.00
C112   C     0.95029   0.89453   0.24886   0.00000  Uiso   1.00
C113   C     0.13198   0.68863   0.33112   0.00000  Uiso   1.00
C114   C     0.12873   0.54139   0.38617   0.00000  Uiso   1.00
C115   C     0.13787   0.58529   0.46135   0.00000  Uiso   1.00
H116   H     0.15470   0.15583   0.29626   0.00000  Uiso   1.00
H117   H     0.27150   0.18663   0.15897   0.00000  Uiso   1.00
H118   H     0.03360   0.27234   0.29474   0.00000  Uiso   1.00
H119   H     0.16231   0.06017   0.44050   0.00000  Uiso   1.00
H120   H     0.39571   0.13940   0.99821   0.00000  Uiso   1.00
H121   H     0.89407   0.32012   0.28451   0.00000  Uiso   1.00
H122   H     0.16547   0.87273   0.59190   0.00000  Uiso   1.00
H123   H     0.11411   0.52865   0.23056   0.00000  Uiso   1.00
H124   H     0.22868   0.52503   0.08966   0.00000  Uiso   1.00
H125   H     0.99078   0.61075   0.22542   0.00000  Uiso   1.00
H126   H     0.11949   0.39859   0.37119   0.00000  Uiso   1.00
H127   H     0.36095   0.60243   0.94195   0.00000  Uiso   1.00
H128   H     0.85931   0.78315   0.22826   0.00000  Uiso   1.00
H129   H     0.13072   0.33576   0.53564   0.00000  Uiso   1.00
O130   O     0.45442   0.87987   0.87857   0.00000  Uiso   1.00
O131   O     0.79628   0.11696   0.25420   0.00000  Uiso   1.00
O132   O     0.15237   0.53000   0.65747   0.00000  Uiso   1.00
N133   N     0.37181   0.01351   0.00432   0.00000  Uiso   1.00
N134   N     0.90281   0.18248   0.27198   0.00000  Uiso   1.00
N135   N     0.15654   0.76421   0.55937   0.00000  Uiso   1.00
N136   N     0.35311   0.72457   0.97405   0.00000  Uiso   1.00
N137   N     0.88411   0.89354   0.24171   0.00000  Uiso   1.00
N138   N     0.13784   0.47527   0.52910   0.00000  Uiso   1.00
C139   C     0.64541   0.51214   0.28121   0.00000  Uiso   1.00
C140   C     0.70324   0.44190   0.19751   0.00000  Uiso   1.00
C141   C     0.76228   0.54379   0.14399   0.00000  Uiso   1.00
C142   C     0.80900   0.45450   0.07035   0.00000  Uiso   1.00
C143   C     0.90060   0.37353   0.94331   0.00000  Uiso   1.00
C144   C     0.57398   0.48847   0.27126   0.00000  Uiso   1.00
C145   C     0.52434   0.62953   0.27977   0.00000  Uiso   1.00
C146   C     0.46226   0.57943   0.26823   0.00000  Uiso   1.00
C147   C     0.35316   0.57075   0.25575   0.00000  Uiso   1.00
C148   C     0.64392   0.37320   0.35046   0.00000  Uiso   1.00
C149   C     0.65306   0.41733   0.42556   0.00000  Uiso   1.00
C150   C     0.64985   0.27018   0.48072   0.00000  Uiso   1.00
C151   C     0.64934   0.08253   0.59120   0.00000  Uiso   1.00
C152   C     0.62341   0.17235   0.24561   0.00000  Uiso   1.00
C153   C     0.69129   0.25733   0.17817   0.00000  Uiso   1.00
C154   C     0.73794   0.16785   0.10460   0.00000  Uiso   1.00
C155   C     0.79704   0.26960   0.05098   0.00000  Uiso   1.00
C156   C     0.56203   0.30392   0.25193   0.00000  Uiso   1.00
C157   C     0.50001   0.25359   0.24038   0.00000  Uiso   1.00
C158   C     0.45029   0.39453   0.24886   0.00000  Uiso   1.00
C159   C     0.63198   0.18863   0.33112   0.00000  Uiso   1.00
C160   C     0.62873   0.04139   0.38617   0.00000  Uiso   1.00
C161   C     0.63787   0.08529   0.46135   0.00000  Uiso   1.00
H162   H     0.65470   0.65583   0.29626   0.00000  Uiso   1.00
H163   H     0.77150   0.68663   0.15897   0.00000  Uiso   1.00
H164   H     0.53360   0.77234   0.29474   0.00000  Uiso   1.00
H165   H     0.66231   0.56017   0.44050   0.00000  Uiso   1.00
H166   H     0.89571   0.63940   0.99821   0.00000  Uiso   1.00
H167   H     0.39407   0.82012   0.28451   0.00000  Uiso   1.00
H168   H     0.66547   0.37273   0.59190   0.00000  Uiso   1.00
H169   H     0.61411   0.02865   0.23056   0.00000  Uiso   1.00
H170   H     0.72868   0.02503   0.08966   0.00000  Uiso   1.00
H171   H     0.49078   0.11075   0.22542   0.00000  Uiso   1.00
H172   H     0.61949   0.89859   0.37119   0.00000  Uiso   1.00
H173   H     0.86095   0.10243   0.94195   0.00000  Uiso   1.00
H174   H     0.35931   0.28315   0.22826   0.00000  Uiso   1.00
H175   H     0.63072   0.83576   0.53564   0.00000  Uiso   1.00
O176   O     0.95442   0.37987   0.87857   0.00000  Uiso   1.00
O177   O     0.29628   0.61696   0.25420   0.00000  Uiso   1.00
O178   O     0.65237   0.03000   0.65747   0.00000  Uiso   1.00
N179   N     0.87181   0.51351   0.00432   0.00000  Uiso   1.00
N180   N     0.40281   0.68248   0.27198   0.00000  Uiso   1.00
N181   N     0.65654   0.26421   0.55937   0.00000  Uiso   1.00
N182   N     0.85311   0.22457   0.97405   0.00000  Uiso   1.00
N183   N     0.38411   0.39354   0.24171   0.00000  Uiso   1.00
N184   N     0.63784   0.97527   0.52910   0.00000  Uiso   1.00
