data_job_04392
_audit_creation_date              2018-12-19
_audit_creation_method            'Materials Studio'
_symmetry_space_group_name_H-M    'P1'
_symmetry_Int_Tables_number       1
_symmetry_cell_setting            triclinic
loop_
_symmetry_equiv_pos_as_xyz
  x,y,z
_cell_length_a                    12.5747
_cell_length_b                    25.5891
_cell_length_c                    13.6830
_cell_angle_alpha                 90.0000
_cell_angle_beta                  90.0000
_cell_angle_gamma                 90.0000
loop_
_atom_site_label
_atom_site_type_symbol
_atom_site_fract_x
_atom_site_fract_y
_atom_site_fract_z
_atom_site_U_iso_or_equiv
_atom_site_adp_type
_atom_site_occupancy
C1     C     0.05730   0.83056   0.69900   0.00000  Uiso   1.00
C2     C     0.13711   0.85867   0.63360   0.00000  Uiso   1.00
C3     C     0.22977   0.83719   0.59588   0.00000  Uiso   1.00
C4     C     0.29219   0.86932   0.53760   0.00000  Uiso   1.00
C5     C     0.42060   0.90510   0.43910   0.00000  Uiso   1.00
C6     C     0.04760   0.86367   0.79123   0.00000  Uiso   1.00
C7     C     0.06498   0.84640   0.88604   0.00000  Uiso   1.00
C8     C     0.05202   0.88274   0.96045   0.00000  Uiso   1.00
C9     C     0.04138   0.92628   0.10668   0.00000  Uiso   1.00
C10    C     0.95024   0.83460   0.64721   0.00000  Uiso   1.00
C11    C     0.88574   0.79289   0.62095   0.00000  Uiso   1.00
C12    C     0.79080   0.80476   0.57413   0.00000  Uiso   1.00
C13    C     0.62900   0.80317   0.49675   0.00000  Uiso   1.00
C14    C     0.00337   0.92580   0.66256   0.00000  Uiso   1.00
C15    C     0.10782   0.91040   0.61381   0.00000  Uiso   1.00
C16    C     0.17011   0.94256   0.55557   0.00000  Uiso   1.00
C17    C     0.26284   0.92114   0.51777   0.00000  Uiso   1.00
C18    C     0.01831   0.91540   0.77144   0.00000  Uiso   1.00
C19    C     0.00531   0.95177   0.84573   0.00000  Uiso   1.00
C20    C     0.02267   0.93456   0.94063   0.00000  Uiso   1.00
C21    C     0.92095   0.88633   0.62742   0.00000  Uiso   1.00
C22    C     0.82608   0.89827   0.58064   0.00000  Uiso   1.00
C23    C     0.76146   0.85658   0.55431   0.00000  Uiso   1.00
H24    H     0.08010   0.79029   0.71441   0.00000  Uiso   1.00
H25    H     0.25242   0.79716   0.61122   0.00000  Uiso   1.00
H26    H     0.08763   0.80636   0.90133   0.00000  Uiso   1.00
H27    H     0.90843   0.75287   0.63628   0.00000  Uiso   1.00
H28    H     0.43056   0.82760   0.48811   0.00000  Uiso   1.00
H29    H     0.08307   0.84700   0.09983   0.00000  Uiso   1.00
H30    H     0.70519   0.73420   0.54093   0.00000  Uiso   1.00
H31    H     0.98057   0.96607   0.64716   0.00000  Uiso   1.00
H32    H     0.14742   0.98259   0.54027   0.00000  Uiso   1.00
H33    H     0.98264   0.99180   0.83039   0.00000  Uiso   1.00
H34    H     0.80344   0.93830   0.56534   0.00000  Uiso   1.00
H35    H     0.34535   0.97810   0.43053   0.00000  Uiso   1.00
H36    H     0.99785   0.99751   0.04226   0.00000  Uiso   1.00
H37    H     0.61997   0.88470   0.48335   0.00000  Uiso   1.00
O38    O     0.49953   0.91055   0.39025   0.00000  Uiso   1.00
O39    O     0.04362   0.93601   0.19280   0.00000  Uiso   1.00
O40    O     0.54785   0.78801   0.45953   0.00000  Uiso   1.00
N41    N     0.38760   0.86075   0.48921   0.00000  Uiso   1.00
N42    N     0.06273   0.87889   0.06114   0.00000  Uiso   1.00
N43    N     0.70943   0.77343   0.53863   0.00000  Uiso   1.00
N44    N     0.34174   0.94173   0.45823   0.00000  Uiso   1.00
N45    N     0.01688   0.95988   0.03015   0.00000  Uiso   1.00
N46    N     0.66357   0.85441   0.50764   0.00000  Uiso   1.00
C47    C     0.94036   0.17615   0.57413   0.00000  Uiso   1.00
C48    C     0.86134   0.15049   0.64373   0.00000  Uiso   1.00
C49    C     0.76884   0.17321   0.67917   0.00000  Uiso   1.00
C50    C     0.70719   0.14330   0.74208   0.00000  Uiso   1.00
C51    C     0.57992   0.11118   0.84609   0.00000  Uiso   1.00
C52    C     0.94953   0.13960   0.48651   0.00000  Uiso   1.00
C53    C     0.93120   0.15315   0.38976   0.00000  Uiso   1.00
C54    C     0.94380   0.11408   0.32032   0.00000  Uiso   1.00
C55    C     0.95352   0.06505   0.18024   0.00000  Uiso   1.00
C56    C     0.04790   0.17428   0.62551   0.00000  Uiso   1.00
C57    C     0.11229   0.21700   0.64561   0.00000  Uiso   1.00
C58    C     0.20772   0.20712   0.69319   0.00000  Uiso   1.00
C59    C     0.37018   0.21194   0.76893   0.00000  Uiso   1.00
C60    C     0.99536   0.08265   0.62284   0.00000  Uiso   1.00
C61    C     0.89122   0.09971   0.67019   0.00000  Uiso   1.00
C62    C     0.82969   0.06976   0.73307   0.00000  Uiso   1.00
C63    C     0.73712   0.09243   0.76859   0.00000  Uiso   1.00
C64    C     0.97941   0.08881   0.51297   0.00000  Uiso   1.00
C65    C     0.99205   0.04970   0.44366   0.00000  Uiso   1.00
C66    C     0.97373   0.06320   0.34683   0.00000  Uiso   1.00
C67    C     0.07777   0.12349   0.65198   0.00000  Uiso   1.00
C68    C     0.17313   0.11354   0.69952   0.00000  Uiso   1.00
C69    C     0.23765   0.15624   0.71970   0.00000  Uiso   1.00
H70    H     0.91710   0.21569   0.55352   0.00000  Uiso   1.00
H71    H     0.74574   0.21251   0.65866   0.00000  Uiso   1.00
H72    H     0.90809   0.19246   0.36930   0.00000  Uiso   1.00
H73    H     0.08914   0.25629   0.62513   0.00000  Uiso   1.00
H74    H     0.56892   0.18659   0.78688   0.00000  Uiso   1.00
H75    H     0.91126   0.14431   0.17674   0.00000  Uiso   1.00
H76    H     0.29306   0.27891   0.71619   0.00000  Uiso   1.00
H77    H     0.01862   0.04310   0.64344   0.00000  Uiso   1.00
H78    H     0.85283   0.03046   0.75353   0.00000  Uiso   1.00
H79    H     0.01517   0.01041   0.46416   0.00000  Uiso   1.00
H80    H     0.19623   0.07424   0.71999   0.00000  Uiso   1.00
H81    H     0.65583   0.03882   0.86387   0.00000  Uiso   1.00
H82    H     0.99818   0.99655   0.25373   0.00000  Uiso   1.00
H83    H     0.37997   0.13115   0.79318   0.00000  Uiso   1.00
O84    O     0.50146   0.10749   0.89614   0.00000  Uiso   1.00
O85    O     0.95062   0.05204   0.09566   0.00000  Uiso   1.00
O86    O     0.45152   0.22863   0.80341   0.00000  Uiso   1.00
N87    N     0.61213   0.15355   0.78991   0.00000  Uiso   1.00
N88    N     0.93219   0.11402   0.21946   0.00000  Uiso   1.00
N89    N     0.28915   0.23986   0.72378   0.00000  Uiso   1.00
N90    N     0.65890   0.07404   0.83134   0.00000  Uiso   1.00
N91    N     0.97896   0.03451   0.26089   0.00000  Uiso   1.00
N92    N     0.33592   0.16035   0.76521   0.00000  Uiso   1.00
C93    C     0.44270   0.16944   0.19900   0.00000  Uiso   1.00
C94    C     0.36289   0.14133   0.13360   0.00000  Uiso   1.00
C95    C     0.27023   0.16281   0.09588   0.00000  Uiso   1.00
C96    C     0.20781   0.13068   0.03760   0.00000  Uiso   1.00
C97    C     0.07940   0.09490   0.93910   0.00000  Uiso   1.00
C98    C     0.45240   0.13633   0.29123   0.00000  Uiso   1.00
C99    C     0.43502   0.15360   0.38604   0.00000  Uiso   1.00
C100   C     0.44798   0.11726   0.46045   0.00000  Uiso   1.00
C101   C     0.45862   0.07372   0.60668   0.00000  Uiso   1.00
C102   C     0.54976   0.16540   0.14721   0.00000  Uiso   1.00
C103   C     0.61426   0.20711   0.12095   0.00000  Uiso   1.00
C104   C     0.70920   0.19524   0.07413   0.00000  Uiso   1.00
C105   C     0.87100   0.19683   0.99675   0.00000  Uiso   1.00
C106   C     0.49663   0.07420   0.16256   0.00000  Uiso   1.00
C107   C     0.39218   0.08960   0.11381   0.00000  Uiso   1.00
C108   C     0.32989   0.05744   0.05557   0.00000  Uiso   1.00
C109   C     0.23716   0.07886   0.01777   0.00000  Uiso   1.00
C110   C     0.48169   0.08460   0.27144   0.00000  Uiso   1.00
C111   C     0.49469   0.04823   0.34573   0.00000  Uiso   1.00
C112   C     0.47733   0.06544   0.44063   0.00000  Uiso   1.00
C113   C     0.57905   0.11367   0.12742   0.00000  Uiso   1.00
C114   C     0.67392   0.10173   0.08064   0.00000  Uiso   1.00
C115   C     0.73854   0.14342   0.05431   0.00000  Uiso   1.00
H116   H     0.41990   0.20971   0.21441   0.00000  Uiso   1.00
H117   H     0.24758   0.20284   0.11122   0.00000  Uiso   1.00
H118   H     0.41237   0.19364   0.40133   0.00000  Uiso   1.00
H119   H     0.59157   0.24713   0.13628   0.00000  Uiso   1.00
H120   H     0.06944   0.17240   0.98811   0.00000  Uiso   1.00
H121   H     0.41693   0.15300   0.59983   0.00000  Uiso   1.00
H122   H     0.79481   0.26580   0.04093   0.00000  Uiso   1.00
H123   H     0.51943   0.03393   0.14716   0.00000  Uiso   1.00
H124   H     0.35258   0.01741   0.04027   0.00000  Uiso   1.00
H125   H     0.51736   0.00820   0.33039   0.00000  Uiso   1.00
H126   H     0.69656   0.06170   0.06534   0.00000  Uiso   1.00
H127   H     0.15465   0.02190   0.93053   0.00000  Uiso   1.00
H128   H     0.50215   0.00249   0.54226   0.00000  Uiso   1.00
H129   H     0.88003   0.11530   0.98335   0.00000  Uiso   1.00
O130   O     0.00047   0.08945   0.89025   0.00000  Uiso   1.00
O131   O     0.45638   0.06399   0.69280   0.00000  Uiso   1.00
O132   O     0.95215   0.21199   0.95953   0.00000  Uiso   1.00
N133   N     0.11240   0.13925   0.98921   0.00000  Uiso   1.00
N134   N     0.43727   0.12111   0.56114   0.00000  Uiso   1.00
N135   N     0.79057   0.22657   0.03863   0.00000  Uiso   1.00
N136   N     0.15826   0.05827   0.95823   0.00000  Uiso   1.00
N137   N     0.48312   0.04012   0.53015   0.00000  Uiso   1.00
N138   N     0.83643   0.14559   0.00764   0.00000  Uiso   1.00
C139   C     0.55964   0.82385   0.07413   0.00000  Uiso   1.00
C140   C     0.63866   0.84951   0.14373   0.00000  Uiso   1.00
C141   C     0.73116   0.82679   0.17917   0.00000  Uiso   1.00
C142   C     0.79281   0.85670   0.24208   0.00000  Uiso   1.00
C143   C     0.92008   0.88882   0.34609   0.00000  Uiso   1.00
C144   C     0.55047   0.86040   0.98651   0.00000  Uiso   1.00
C145   C     0.56880   0.84685   0.88976   0.00000  Uiso   1.00
C146   C     0.55620   0.88592   0.82032   0.00000  Uiso   1.00
C147   C     0.54648   0.93495   0.68024   0.00000  Uiso   1.00
C148   C     0.45210   0.82572   0.12551   0.00000  Uiso   1.00
C149   C     0.38771   0.78300   0.14561   0.00000  Uiso   1.00
C150   C     0.29228   0.79288   0.19319   0.00000  Uiso   1.00
C151   C     0.12982   0.78806   0.26893   0.00000  Uiso   1.00
C152   C     0.50464   0.91735   0.12284   0.00000  Uiso   1.00
C153   C     0.60878   0.90029   0.17019   0.00000  Uiso   1.00
C154   C     0.67031   0.93024   0.23307   0.00000  Uiso   1.00
C155   C     0.76288   0.90757   0.26859   0.00000  Uiso   1.00
C156   C     0.52059   0.91119   0.01297   0.00000  Uiso   1.00
C157   C     0.50795   0.95030   0.94366   0.00000  Uiso   1.00
C158   C     0.52627   0.93680   0.84683   0.00000  Uiso   1.00
C159   C     0.42223   0.87651   0.15198   0.00000  Uiso   1.00
C160   C     0.32687   0.88646   0.19952   0.00000  Uiso   1.00
C161   C     0.26235   0.84376   0.21970   0.00000  Uiso   1.00
H162   H     0.58290   0.78431   0.05352   0.00000  Uiso   1.00
H163   H     0.75426   0.78749   0.15866   0.00000  Uiso   1.00
H164   H     0.59191   0.80754   0.86930   0.00000  Uiso   1.00
H165   H     0.41086   0.74371   0.12513   0.00000  Uiso   1.00
H166   H     0.93108   0.81341   0.28688   0.00000  Uiso   1.00
H167   H     0.58874   0.85569   0.67674   0.00000  Uiso   1.00
H168   H     0.20694   0.72109   0.21619   0.00000  Uiso   1.00
H169   H     0.48138   0.95690   0.14344   0.00000  Uiso   1.00
H170   H     0.64717   0.96954   0.25353   0.00000  Uiso   1.00
H171   H     0.48483   0.98959   0.96416   0.00000  Uiso   1.00
H172   H     0.30377   0.92576   0.21999   0.00000  Uiso   1.00
H173   H     0.84417   0.96118   0.36387   0.00000  Uiso   1.00
H174   H     0.50182   0.00345   0.75373   0.00000  Uiso   1.00
H175   H     0.12003   0.86885   0.29318   0.00000  Uiso   1.00
O176   O     0.99854   0.89251   0.39614   0.00000  Uiso   1.00
O177   O     0.54938   0.94796   0.59566   0.00000  Uiso   1.00
O178   O     0.04848   0.77137   0.30341   0.00000  Uiso   1.00
N179   N     0.88787   0.84645   0.28991   0.00000  Uiso   1.00
N180   N     0.56781   0.88598   0.71946   0.00000  Uiso   1.00
N181   N     0.21085   0.76014   0.22378   0.00000  Uiso   1.00
N182   N     0.84110   0.92596   0.33134   0.00000  Uiso   1.00
N183   N     0.52104   0.96549   0.76089   0.00000  Uiso   1.00
N184   N     0.16408   0.83965   0.26521   0.00000  Uiso   1.00
C185   C     0.94270   0.33056   0.80100   0.00000  Uiso   1.00
C186   C     0.86289   0.35867   0.86640   0.00000  Uiso   1.00
C187   C     0.77023   0.33719   0.90412   0.00000  Uiso   1.00
C188   C     0.70781   0.36932   0.96240   0.00000  Uiso   1.00
C189   C     0.57940   0.40510   0.06090   0.00000  Uiso   1.00
C190   C     0.95240   0.36367   0.70877   0.00000  Uiso   1.00
C191   C     0.93502   0.34640   0.61396   0.00000  Uiso   1.00
C192   C     0.94798   0.38274   0.53955   0.00000  Uiso   1.00
C193   C     0.95862   0.42628   0.39332   0.00000  Uiso   1.00
C194   C     0.04976   0.33460   0.85279   0.00000  Uiso   1.00
C195   C     0.11426   0.29289   0.87905   0.00000  Uiso   1.00
C196   C     0.20920   0.30476   0.92587   0.00000  Uiso   1.00
C197   C     0.37100   0.30317   0.00325   0.00000  Uiso   1.00
C198   C     0.99663   0.42580   0.83744   0.00000  Uiso   1.00
C199   C     0.89218   0.41040   0.88619   0.00000  Uiso   1.00
C200   C     0.82989   0.44256   0.94443   0.00000  Uiso   1.00
C201   C     0.73716   0.42114   0.98223   0.00000  Uiso   1.00
C202   C     0.98169   0.41540   0.72856   0.00000  Uiso   1.00
C203   C     0.99469   0.45177   0.65427   0.00000  Uiso   1.00
C204   C     0.97733   0.43456   0.55937   0.00000  Uiso   1.00
C205   C     0.07905   0.38633   0.87258   0.00000  Uiso   1.00
C206   C     0.17392   0.39827   0.91936   0.00000  Uiso   1.00
C207   C     0.23854   0.35658   0.94569   0.00000  Uiso   1.00
H208   H     0.91990   0.29029   0.78559   0.00000  Uiso   1.00
H209   H     0.74758   0.29716   0.88878   0.00000  Uiso   1.00
H210   H     0.91237   0.30636   0.59867   0.00000  Uiso   1.00
H211   H     0.09157   0.25287   0.86372   0.00000  Uiso   1.00
H212   H     0.56944   0.32760   0.01189   0.00000  Uiso   1.00
H213   H     0.91693   0.34700   0.40017   0.00000  Uiso   1.00
H214   H     0.29481   0.23420   0.95907   0.00000  Uiso   1.00
H215   H     0.01943   0.46607   0.85284   0.00000  Uiso   1.00
H216   H     0.85258   0.48259   0.95973   0.00000  Uiso   1.00
H217   H     0.01736   0.49180   0.66961   0.00000  Uiso   1.00
H218   H     0.19656   0.43830   0.93466   0.00000  Uiso   1.00
H219   H     0.65465   0.47810   0.06947   0.00000  Uiso   1.00
H220   H     0.00215   0.49751   0.45774   0.00000  Uiso   1.00
H221   H     0.38003   0.38470   0.01665   0.00000  Uiso   1.00
O222   O     0.50047   0.41055   0.10975   0.00000  Uiso   1.00
O223   O     0.95638   0.43601   0.30720   0.00000  Uiso   1.00
O224   O     0.45215   0.28801   0.04047   0.00000  Uiso   1.00
N225   N     0.61240   0.36075   0.01079   0.00000  Uiso   1.00
N226   N     0.93727   0.37889   0.43886   0.00000  Uiso   1.00
N227   N     0.29057   0.27343   0.96137   0.00000  Uiso   1.00
N228   N     0.65826   0.44173   0.04177   0.00000  Uiso   1.00
N229   N     0.98312   0.45988   0.46985   0.00000  Uiso   1.00
N230   N     0.33643   0.35441   0.99236   0.00000  Uiso   1.00
C231   C     0.05964   0.67615   0.92587   0.00000  Uiso   1.00
C232   C     0.13866   0.65049   0.85627   0.00000  Uiso   1.00
C233   C     0.23116   0.67321   0.82083   0.00000  Uiso   1.00
C234   C     0.29281   0.64330   0.75792   0.00000  Uiso   1.00
C235   C     0.42008   0.61118   0.65391   0.00000  Uiso   1.00
C236   C     0.05047   0.63960   0.01349   0.00000  Uiso   1.00
C237   C     0.06880   0.65315   0.11024   0.00000  Uiso   1.00
C238   C     0.05620   0.61408   0.17968   0.00000  Uiso   1.00
C239   C     0.04648   0.56505   0.31976   0.00000  Uiso   1.00
C240   C     0.95210   0.67428   0.87449   0.00000  Uiso   1.00
C241   C     0.88771   0.71700   0.85439   0.00000  Uiso   1.00
C242   C     0.79228   0.70712   0.80681   0.00000  Uiso   1.00
C243   C     0.62982   0.71194   0.73107   0.00000  Uiso   1.00
C244   C     0.00464   0.58265   0.87716   0.00000  Uiso   1.00
C245   C     0.10878   0.59971   0.82981   0.00000  Uiso   1.00
C246   C     0.17031   0.56976   0.76693   0.00000  Uiso   1.00
C247   C     0.26288   0.59243   0.73141   0.00000  Uiso   1.00
C248   C     0.02059   0.58881   0.98703   0.00000  Uiso   1.00
C249   C     0.00795   0.54970   0.05634   0.00000  Uiso   1.00
C250   C     0.02627   0.56320   0.15317   0.00000  Uiso   1.00
C251   C     0.92223   0.62349   0.84802   0.00000  Uiso   1.00
C252   C     0.82687   0.61354   0.80048   0.00000  Uiso   1.00
C253   C     0.76235   0.65624   0.78030   0.00000  Uiso   1.00
H254   H     0.08290   0.71569   0.94648   0.00000  Uiso   1.00
H255   H     0.25426   0.71251   0.84134   0.00000  Uiso   1.00
H256   H     0.09191   0.69246   0.13070   0.00000  Uiso   1.00
H257   H     0.91086   0.75629   0.87487   0.00000  Uiso   1.00
H258   H     0.43108   0.68659   0.71312   0.00000  Uiso   1.00
H259   H     0.08874   0.64431   0.32326   0.00000  Uiso   1.00
H260   H     0.70694   0.77891   0.78381   0.00000  Uiso   1.00
H261   H     0.98138   0.54310   0.85656   0.00000  Uiso   1.00
H262   H     0.14717   0.53046   0.74647   0.00000  Uiso   1.00
H263   H     0.98483   0.51041   0.03584   0.00000  Uiso   1.00
H264   H     0.80377   0.57424   0.78001   0.00000  Uiso   1.00
H265   H     0.34417   0.53882   0.63613   0.00000  Uiso   1.00
H266   H     0.00182   0.49655   0.24627   0.00000  Uiso   1.00
H267   H     0.62003   0.63115   0.70682   0.00000  Uiso   1.00
O268   O     0.49854   0.60749   0.60386   0.00000  Uiso   1.00
O269   O     0.04938   0.55204   0.40434   0.00000  Uiso   1.00
O270   O     0.54848   0.72863   0.69659   0.00000  Uiso   1.00
N271   N     0.38787   0.65355   0.71009   0.00000  Uiso   1.00
N272   N     0.06781   0.61402   0.28054   0.00000  Uiso   1.00
N273   N     0.71085   0.73986   0.77622   0.00000  Uiso   1.00
N274   N     0.34110   0.57404   0.66866   0.00000  Uiso   1.00
N275   N     0.02104   0.53451   0.23911   0.00000  Uiso   1.00
N276   N     0.66408   0.66035   0.73479   0.00000  Uiso   1.00
C277   C     0.55730   0.66944   0.30100   0.00000  Uiso   1.00
C278   C     0.63711   0.64133   0.36640   0.00000  Uiso   1.00
C279   C     0.72977   0.66281   0.40412   0.00000  Uiso   1.00
C280   C     0.79219   0.63068   0.46240   0.00000  Uiso   1.00
C281   C     0.92060   0.59490   0.56090   0.00000  Uiso   1.00
C282   C     0.54760   0.63633   0.20877   0.00000  Uiso   1.00
C283   C     0.56498   0.65360   0.11396   0.00000  Uiso   1.00
C284   C     0.55202   0.61726   0.03955   0.00000  Uiso   1.00
C285   C     0.54138   0.57372   0.89332   0.00000  Uiso   1.00
C286   C     0.45024   0.66540   0.35279   0.00000  Uiso   1.00
C287   C     0.38574   0.70711   0.37905   0.00000  Uiso   1.00
C288   C     0.29080   0.69524   0.42587   0.00000  Uiso   1.00
C289   C     0.12900   0.69683   0.50325   0.00000  Uiso   1.00
C290   C     0.50337   0.57420   0.33744   0.00000  Uiso   1.00
C291   C     0.60782   0.58960   0.38619   0.00000  Uiso   1.00
C292   C     0.67011   0.55744   0.44443   0.00000  Uiso   1.00
C293   C     0.76284   0.57886   0.48223   0.00000  Uiso   1.00
C294   C     0.51831   0.58460   0.22856   0.00000  Uiso   1.00
C295   C     0.50531   0.54823   0.15427   0.00000  Uiso   1.00
C296   C     0.52267   0.56544   0.05937   0.00000  Uiso   1.00
C297   C     0.42095   0.61367   0.37258   0.00000  Uiso   1.00
C298   C     0.32608   0.60173   0.41936   0.00000  Uiso   1.00
C299   C     0.26146   0.64342   0.44569   0.00000  Uiso   1.00
H300   H     0.58010   0.70971   0.28559   0.00000  Uiso   1.00
H301   H     0.75242   0.70284   0.38878   0.00000  Uiso   1.00
H302   H     0.58763   0.69364   0.09867   0.00000  Uiso   1.00
H303   H     0.40843   0.74713   0.36372   0.00000  Uiso   1.00
H304   H     0.93056   0.67240   0.51189   0.00000  Uiso   1.00
H305   H     0.58307   0.65300   0.90017   0.00000  Uiso   1.00
H306   H     0.20519   0.76580   0.45907   0.00000  Uiso   1.00
H307   H     0.48057   0.53393   0.35284   0.00000  Uiso   1.00
H308   H     0.64742   0.51741   0.45973   0.00000  Uiso   1.00
H309   H     0.48264   0.50820   0.16961   0.00000  Uiso   1.00
H310   H     0.30344   0.56170   0.43466   0.00000  Uiso   1.00
H311   H     0.84535   0.52190   0.56947   0.00000  Uiso   1.00
H312   H     0.49785   0.50249   0.95774   0.00000  Uiso   1.00
H313   H     0.11997   0.61530   0.51665   0.00000  Uiso   1.00
O314   O     0.99953   0.58945   0.60975   0.00000  Uiso   1.00
O315   O     0.54362   0.56399   0.80720   0.00000  Uiso   1.00
O316   O     0.04785   0.71199   0.54047   0.00000  Uiso   1.00
N317   N     0.88760   0.63925   0.51079   0.00000  Uiso   1.00
N318   N     0.56273   0.62111   0.93886   0.00000  Uiso   1.00
N319   N     0.20943   0.72657   0.46137   0.00000  Uiso   1.00
N320   N     0.84174   0.55827   0.54177   0.00000  Uiso   1.00
N321   N     0.51688   0.54012   0.96985   0.00000  Uiso   1.00
N322   N     0.16357   0.64559   0.49236   0.00000  Uiso   1.00
C323   C     0.44036   0.32385   0.42587   0.00000  Uiso   1.00
C324   C     0.36134   0.34951   0.35627   0.00000  Uiso   1.00
C325   C     0.26884   0.32679   0.32083   0.00000  Uiso   1.00
C326   C     0.20719   0.35670   0.25792   0.00000  Uiso   1.00
C327   C     0.07992   0.38882   0.15391   0.00000  Uiso   1.00
C328   C     0.44953   0.36040   0.51349   0.00000  Uiso   1.00
C329   C     0.43120   0.34685   0.61024   0.00000  Uiso   1.00
C330   C     0.44380   0.38592   0.67968   0.00000  Uiso   1.00
C331   C     0.45352   0.43495   0.81976   0.00000  Uiso   1.00
C332   C     0.54790   0.32572   0.37449   0.00000  Uiso   1.00
C333   C     0.61229   0.28300   0.35439   0.00000  Uiso   1.00
C334   C     0.70772   0.29288   0.30681   0.00000  Uiso   1.00
C335   C     0.87018   0.28806   0.23107   0.00000  Uiso   1.00
C336   C     0.49536   0.41735   0.37716   0.00000  Uiso   1.00
C337   C     0.39122   0.40029   0.32981   0.00000  Uiso   1.00
C338   C     0.32969   0.43024   0.26693   0.00000  Uiso   1.00
C339   C     0.23712   0.40757   0.23141   0.00000  Uiso   1.00
C340   C     0.47941   0.41119   0.48703   0.00000  Uiso   1.00
C341   C     0.49205   0.45030   0.55634   0.00000  Uiso   1.00
C342   C     0.47373   0.43680   0.65317   0.00000  Uiso   1.00
C343   C     0.57777   0.37651   0.34802   0.00000  Uiso   1.00
C344   C     0.67313   0.38646   0.30048   0.00000  Uiso   1.00
C345   C     0.73765   0.34376   0.28030   0.00000  Uiso   1.00
H346   H     0.41710   0.28431   0.44648   0.00000  Uiso   1.00
H347   H     0.24574   0.28749   0.34134   0.00000  Uiso   1.00
H348   H     0.40809   0.30754   0.63070   0.00000  Uiso   1.00
H349   H     0.58914   0.24371   0.37487   0.00000  Uiso   1.00
H350   H     0.06892   0.31341   0.21312   0.00000  Uiso   1.00
H351   H     0.41126   0.35569   0.82326   0.00000  Uiso   1.00
H352   H     0.79306   0.22109   0.28381   0.00000  Uiso   1.00
H353   H     0.51862   0.45690   0.35656   0.00000  Uiso   1.00
H354   H     0.35283   0.46954   0.24647   0.00000  Uiso   1.00
H355   H     0.51517   0.48959   0.53584   0.00000  Uiso   1.00
H356   H     0.69623   0.42576   0.28001   0.00000  Uiso   1.00
H357   H     0.15583   0.46118   0.13613   0.00000  Uiso   1.00
H358   H     0.49818   0.50345   0.74627   0.00000  Uiso   1.00
H359   H     0.87997   0.36885   0.20682   0.00000  Uiso   1.00
O360   O     0.00146   0.39251   0.10386   0.00000  Uiso   1.00
O361   O     0.45062   0.44796   0.90434   0.00000  Uiso   1.00
O362   O     0.95152   0.27137   0.19659   0.00000  Uiso   1.00
N363   N     0.11213   0.34645   0.21009   0.00000  Uiso   1.00
N364   N     0.43219   0.38598   0.78054   0.00000  Uiso   1.00
N365   N     0.78915   0.26014   0.27622   0.00000  Uiso   1.00
N366   N     0.15890   0.42596   0.16866   0.00000  Uiso   1.00
N367   N     0.47896   0.46549   0.73911   0.00000  Uiso   1.00
N368   N     0.83592   0.33965   0.23479   0.00000  Uiso   1.00
