data_job_01047
_audit_creation_date              2018-12-19
_audit_creation_method            'Materials Studio'
_symmetry_space_group_name_H-M    'P1'
_symmetry_Int_Tables_number       1
_symmetry_cell_setting            triclinic
loop_
_symmetry_equiv_pos_as_xyz
  x,y,z
_cell_length_a                    27.1261
_cell_length_b                    9.3597
_cell_length_c                    25.4290
_cell_angle_alpha                 90.0000
_cell_angle_beta                  157.0095
_cell_angle_gamma                 90.0000
loop_
_atom_site_label
_atom_site_type_symbol
_atom_site_fract_x
_atom_site_fract_y
_atom_site_fract_z
_atom_site_U_iso_or_equiv
_atom_site_adp_type
_atom_site_occupancy
C1     C     0.84141   0.98527   0.21027   0.00000  Uiso   1.00
C2     C     0.81485   0.89194   0.13629   0.00000  Uiso   1.00
C3     C     0.88470   0.89016   0.15872   0.00000  Uiso   1.00
C4     C     0.84505   0.79723   0.08056   0.00000  Uiso   1.00
C5     C     0.81985   0.66573   0.98042   0.00000  Uiso   1.00
C6     C     0.72074   0.06978   0.10181   0.00000  Uiso   1.00
C7     C     0.71147   0.21752   0.09526   0.00000  Uiso   1.00
C8     C     0.59259   0.27429   0.98808   0.00000  Uiso   1.00
C9     C     0.42130   0.41890   0.83446   0.00000  Uiso   1.00
C10    C     0.85526   0.88317   0.27023   0.00000  Uiso   1.00
C11    C     0.95907   0.87403   0.40529   0.00000  Uiso   1.00
C12    C     0.95343   0.77371   0.43991   0.00000  Uiso   1.00
C13    C     0.99100   0.62858   0.54779   0.00000  Uiso   1.00
C14    C     0.64679   0.82339   0.03159   0.00000  Uiso   1.00
C15    C     0.70914   0.80401   0.03924   0.00000  Uiso   1.00
C16    C     0.66937   0.71105   0.96103   0.00000  Uiso   1.00
C17    C     0.73915   0.70913   0.98334   0.00000  Uiso   1.00
C18    C     0.61503   0.98186   0.00476   0.00000  Uiso   1.00
C19    C     0.49614   0.03842   0.89757   0.00000  Uiso   1.00
C20    C     0.48668   0.18621   0.89085   0.00000  Uiso   1.00
C21    C     0.74955   0.79524   0.17318   0.00000  Uiso   1.00
C22    C     0.74374   0.69493   0.20760   0.00000  Uiso   1.00
C23    C     0.84753   0.68563   0.34268   0.00000  Uiso   1.00
H24    H     0.92370   0.05373   0.28582   0.00000  Uiso   1.00
H25    H     0.96650   0.95823   0.23383   0.00000  Uiso   1.00
H26    H     0.79329   0.28554   0.17038   0.00000  Uiso   1.00
H27    H     0.04086   0.94209   0.48037   0.00000  Uiso   1.00
H28    H     0.96729   0.81361   0.13335   0.00000  Uiso   1.00
H29    H     0.60209   0.50376   0.99960   0.00000  Uiso   1.00
H30    H     0.12413   0.77955   0.65326   0.00000  Uiso   1.00
H31    H     0.56448   0.75494   0.95602   0.00000  Uiso   1.00
H32    H     0.58756   0.64303   0.88593   0.00000  Uiso   1.00
H33    H     0.41436   0.97035   0.82249   0.00000  Uiso   1.00
H34    H     0.66192   0.62690   0.13247   0.00000  Uiso   1.00
H35    H     0.65973   0.55778   0.85098   0.00000  Uiso   1.00
H36    H     0.29453   0.24794   0.71724   0.00000  Uiso   1.00
H37    H     0.81657   0.52372   0.37090   0.00000  Uiso   1.00
O38    O     0.83515   0.61751   0.95198   0.00000  Uiso   1.00
O39    O     0.35603   0.52296   0.77653   0.00000  Uiso   1.00
O40    O     0.04093   0.57280   0.63411   0.00000  Uiso   1.00
N41    N     0.89175   0.76874   0.07653   0.00000  Uiso   1.00
N42    N     0.55031   0.41399   0.95148   0.00000  Uiso   1.00
N43    N     0.03836   0.73694   0.56259   0.00000  Uiso   1.00
N44    N     0.72626   0.63108   0.92460   0.00000  Uiso   1.00
N45    N     0.38481   0.27633   0.79954   0.00000  Uiso   1.00
N46    N     0.87286   0.59928   0.41065   0.00000  Uiso   1.00
C47    C     0.15859   0.48527   0.28973   0.00000  Uiso   1.00
C48    C     0.18515   0.39194   0.36371   0.00000  Uiso   1.00
C49    C     0.11530   0.39016   0.34128   0.00000  Uiso   1.00
C50    C     0.15495   0.29723   0.41944   0.00000  Uiso   1.00
C51    C     0.18015   0.16573   0.51958   0.00000  Uiso   1.00
C52    C     0.27926   0.56978   0.39819   0.00000  Uiso   1.00
C53    C     0.28853   0.71752   0.40474   0.00000  Uiso   1.00
C54    C     0.40741   0.77429   0.51192   0.00000  Uiso   1.00
C55    C     0.57870   0.91890   0.66554   0.00000  Uiso   1.00
C56    C     0.14474   0.38317   0.22977   0.00000  Uiso   1.00
C57    C     0.04093   0.37403   0.09471   0.00000  Uiso   1.00
C58    C     0.04657   0.27371   0.06009   0.00000  Uiso   1.00
C59    C     0.00900   0.12858   0.95221   0.00000  Uiso   1.00
C60    C     0.35321   0.32339   0.46841   0.00000  Uiso   1.00
C61    C     0.29086   0.30401   0.46076   0.00000  Uiso   1.00
C62    C     0.33063   0.21105   0.53897   0.00000  Uiso   1.00
C63    C     0.26085   0.20913   0.51666   0.00000  Uiso   1.00
C64    C     0.38497   0.48186   0.49524   0.00000  Uiso   1.00
C65    C     0.50386   0.53842   0.60243   0.00000  Uiso   1.00
C66    C     0.51332   0.68621   0.60915   0.00000  Uiso   1.00
C67    C     0.25045   0.29524   0.32682   0.00000  Uiso   1.00
C68    C     0.25626   0.19493   0.29240   0.00000  Uiso   1.00
C69    C     0.15247   0.18563   0.15732   0.00000  Uiso   1.00
H70    H     0.07630   0.55373   0.21418   0.00000  Uiso   1.00
H71    H     0.03350   0.45823   0.26617   0.00000  Uiso   1.00
H72    H     0.20671   0.78554   0.32962   0.00000  Uiso   1.00
H73    H     0.95914   0.44209   0.01963   0.00000  Uiso   1.00
H74    H     0.03271   0.31361   0.36665   0.00000  Uiso   1.00
H75    H     0.39791   0.00376   0.50040   0.00000  Uiso   1.00
H76    H     0.87587   0.27955   0.84674   0.00000  Uiso   1.00
H77    H     0.43552   0.25494   0.54398   0.00000  Uiso   1.00
H78    H     0.41244   0.14303   0.61407   0.00000  Uiso   1.00
H79    H     0.58564   0.47035   0.67751   0.00000  Uiso   1.00
H80    H     0.33808   0.12690   0.36753   0.00000  Uiso   1.00
H81    H     0.34027   0.05778   0.64902   0.00000  Uiso   1.00
H82    H     0.70547   0.74794   0.78276   0.00000  Uiso   1.00
H83    H     0.18343   0.02372   0.12910   0.00000  Uiso   1.00
O84    O     0.16485   0.11751   0.54802   0.00000  Uiso   1.00
O85    O     0.64397   0.02296   0.72347   0.00000  Uiso   1.00
O86    O     0.95907   0.07280   0.86589   0.00000  Uiso   1.00
N87    N     0.10825   0.26874   0.42347   0.00000  Uiso   1.00
N88    N     0.44969   0.91399   0.54852   0.00000  Uiso   1.00
N89    N     0.96164   0.23694   0.93741   0.00000  Uiso   1.00
N90    N     0.27374   0.13108   0.57540   0.00000  Uiso   1.00
N91    N     0.61519   0.77633   0.70046   0.00000  Uiso   1.00
N92    N     0.12714   0.09928   0.08935   0.00000  Uiso   1.00
C93    C     0.15859   0.01473   0.78973   0.00000  Uiso   1.00
C94    C     0.18515   0.10806   0.86371   0.00000  Uiso   1.00
C95    C     0.11530   0.10984   0.84128   0.00000  Uiso   1.00
C96    C     0.15495   0.20277   0.91944   0.00000  Uiso   1.00
C97    C     0.18015   0.33427   0.01958   0.00000  Uiso   1.00
C98    C     0.27926   0.93022   0.89819   0.00000  Uiso   1.00
C99    C     0.28853   0.78248   0.90474   0.00000  Uiso   1.00
C100   C     0.40741   0.72571   0.01192   0.00000  Uiso   1.00
C101   C     0.57870   0.58110   0.16554   0.00000  Uiso   1.00
C102   C     0.14474   0.11683   0.72977   0.00000  Uiso   1.00
C103   C     0.04093   0.12597   0.59471   0.00000  Uiso   1.00
C104   C     0.04657   0.22629   0.56009   0.00000  Uiso   1.00
C105   C     0.00900   0.37142   0.45221   0.00000  Uiso   1.00
C106   C     0.35321   0.17661   0.96841   0.00000  Uiso   1.00
C107   C     0.29086   0.19599   0.96076   0.00000  Uiso   1.00
C108   C     0.33063   0.28895   0.03897   0.00000  Uiso   1.00
C109   C     0.26085   0.29087   0.01666   0.00000  Uiso   1.00
C110   C     0.38497   0.01814   0.99524   0.00000  Uiso   1.00
C111   C     0.50386   0.96158   0.10243   0.00000  Uiso   1.00
C112   C     0.51332   0.81379   0.10915   0.00000  Uiso   1.00
C113   C     0.25045   0.20476   0.82682   0.00000  Uiso   1.00
C114   C     0.25626   0.30507   0.79240   0.00000  Uiso   1.00
C115   C     0.15247   0.31437   0.65732   0.00000  Uiso   1.00
H116   H     0.07630   0.94627   0.71418   0.00000  Uiso   1.00
H117   H     0.03350   0.04177   0.76617   0.00000  Uiso   1.00
H118   H     0.20671   0.71446   0.82962   0.00000  Uiso   1.00
H119   H     0.95914   0.05791   0.51963   0.00000  Uiso   1.00
H120   H     0.03271   0.18639   0.86665   0.00000  Uiso   1.00
H121   H     0.39791   0.49624   0.00040   0.00000  Uiso   1.00
H122   H     0.87587   0.22045   0.34674   0.00000  Uiso   1.00
H123   H     0.43552   0.24506   0.04398   0.00000  Uiso   1.00
H124   H     0.41244   0.35697   0.11407   0.00000  Uiso   1.00
H125   H     0.58564   0.02965   0.17751   0.00000  Uiso   1.00
H126   H     0.33808   0.37310   0.86753   0.00000  Uiso   1.00
H127   H     0.34027   0.44222   0.14902   0.00000  Uiso   1.00
H128   H     0.70547   0.75206   0.28276   0.00000  Uiso   1.00
H129   H     0.18343   0.47628   0.62910   0.00000  Uiso   1.00
O130   O     0.16485   0.38249   0.04802   0.00000  Uiso   1.00
O131   O     0.64397   0.47704   0.22347   0.00000  Uiso   1.00
O132   O     0.95907   0.42720   0.36589   0.00000  Uiso   1.00
N133   N     0.10825   0.23126   0.92347   0.00000  Uiso   1.00
N134   N     0.44969   0.58601   0.04852   0.00000  Uiso   1.00
N135   N     0.96164   0.26306   0.43741   0.00000  Uiso   1.00
N136   N     0.27374   0.36892   0.07540   0.00000  Uiso   1.00
N137   N     0.61519   0.72367   0.20046   0.00000  Uiso   1.00
N138   N     0.12714   0.40072   0.58935   0.00000  Uiso   1.00
C139   C     0.84141   0.51473   0.71027   0.00000  Uiso   1.00
C140   C     0.81485   0.60806   0.63629   0.00000  Uiso   1.00
C141   C     0.88470   0.60984   0.65872   0.00000  Uiso   1.00
C142   C     0.84505   0.70277   0.58056   0.00000  Uiso   1.00
C143   C     0.81985   0.83427   0.48042   0.00000  Uiso   1.00
C144   C     0.72074   0.43022   0.60181   0.00000  Uiso   1.00
C145   C     0.71147   0.28248   0.59526   0.00000  Uiso   1.00
C146   C     0.59259   0.22571   0.48808   0.00000  Uiso   1.00
C147   C     0.42130   0.08110   0.33446   0.00000  Uiso   1.00
C148   C     0.85526   0.61683   0.77023   0.00000  Uiso   1.00
C149   C     0.95907   0.62597   0.90529   0.00000  Uiso   1.00
C150   C     0.95343   0.72629   0.93991   0.00000  Uiso   1.00
C151   C     0.99100   0.87142   0.04779   0.00000  Uiso   1.00
C152   C     0.64679   0.67661   0.53159   0.00000  Uiso   1.00
C153   C     0.70914   0.69599   0.53924   0.00000  Uiso   1.00
C154   C     0.66937   0.78895   0.46103   0.00000  Uiso   1.00
C155   C     0.73915   0.79087   0.48334   0.00000  Uiso   1.00
C156   C     0.61503   0.51814   0.50476   0.00000  Uiso   1.00
C157   C     0.49614   0.46158   0.39757   0.00000  Uiso   1.00
C158   C     0.48668   0.31379   0.39085   0.00000  Uiso   1.00
C159   C     0.74955   0.70476   0.67318   0.00000  Uiso   1.00
C160   C     0.74374   0.80507   0.70760   0.00000  Uiso   1.00
C161   C     0.84753   0.81437   0.84268   0.00000  Uiso   1.00
H162   H     0.92370   0.44627   0.78582   0.00000  Uiso   1.00
H163   H     0.96650   0.54177   0.73383   0.00000  Uiso   1.00
H164   H     0.79329   0.21446   0.67038   0.00000  Uiso   1.00
H165   H     0.04086   0.55791   0.98037   0.00000  Uiso   1.00
H166   H     0.96729   0.68639   0.63335   0.00000  Uiso   1.00
H167   H     0.60209   0.99624   0.49960   0.00000  Uiso   1.00
H168   H     0.12413   0.72045   0.15326   0.00000  Uiso   1.00
H169   H     0.56448   0.74506   0.45602   0.00000  Uiso   1.00
H170   H     0.58756   0.85697   0.38593   0.00000  Uiso   1.00
H171   H     0.41436   0.52965   0.32249   0.00000  Uiso   1.00
H172   H     0.66192   0.87310   0.63247   0.00000  Uiso   1.00
H173   H     0.65973   0.94222   0.35098   0.00000  Uiso   1.00
H174   H     0.29453   0.25206   0.21724   0.00000  Uiso   1.00
H175   H     0.81657   0.97628   0.87090   0.00000  Uiso   1.00
O176   O     0.83515   0.88249   0.45198   0.00000  Uiso   1.00
O177   O     0.35603   0.97704   0.27653   0.00000  Uiso   1.00
O178   O     0.04093   0.92720   0.13411   0.00000  Uiso   1.00
N179   N     0.89175   0.73126   0.57653   0.00000  Uiso   1.00
N180   N     0.55031   0.08601   0.45148   0.00000  Uiso   1.00
N181   N     0.03836   0.76306   0.06259   0.00000  Uiso   1.00
N182   N     0.72626   0.86892   0.42460   0.00000  Uiso   1.00
N183   N     0.38481   0.22367   0.29954   0.00000  Uiso   1.00
N184   N     0.87286   0.90072   0.91065   0.00000  Uiso   1.00
