data_job_05887
_audit_creation_date              2018-12-19
_audit_creation_method            'Materials Studio'
_symmetry_space_group_name_H-M    'P1'
_symmetry_Int_Tables_number       1
_symmetry_cell_setting            triclinic
loop_
_symmetry_equiv_pos_as_xyz
  x,y,z
_cell_length_a                    12.7924
_cell_length_b                    24.8299
_cell_length_c                    8.6647
_cell_angle_alpha                 90.0000
_cell_angle_beta                  90.0000
_cell_angle_gamma                 90.0000
loop_
_atom_site_label
_atom_site_type_symbol
_atom_site_fract_x
_atom_site_fract_y
_atom_site_fract_z
_atom_site_U_iso_or_equiv
_atom_site_adp_type
_atom_site_occupancy
C1     C     0.17490   0.12357   0.78345   0.00000  Uiso   1.00
C2     C     0.16702   0.18185   0.83775   0.00000  Uiso   1.00
C3     C     0.18381   0.19988   0.98730   0.00000  Uiso   1.00
C4     C     0.17276   0.25475   0.01354   0.00000  Uiso   1.00
C5     C     0.16455   0.33984   0.11598   0.00000  Uiso   1.00
C6     C     0.06963   0.11021   0.71032   0.00000  Uiso   1.00
C7     C     0.00455   0.06800   0.75272   0.00000  Uiso   1.00
C8     C     0.91152   0.06256   0.67167   0.00000  Uiso   1.00
C9     C     0.75214   0.03640   0.57621   0.00000  Uiso   1.00
C10    C     0.25414   0.12345   0.65198   0.00000  Uiso   1.00
C11    C     0.34419   0.09237   0.64530   0.00000  Uiso   1.00
C12    C     0.40650   0.09806   0.51511   0.00000  Uiso   1.00
C13    C     0.53362   0.09246   0.32906   0.00000  Uiso   1.00
C14    C     0.12541   0.18894   0.56410   0.00000  Uiso   1.00
C15    C     0.14013   0.21735   0.71860   0.00000  Uiso   1.00
C16    C     0.12905   0.27221   0.74462   0.00000  Uiso   1.00
C17    C     0.14583   0.29032   0.89418   0.00000  Uiso   1.00
C18    C     0.04274   0.14571   0.59118   0.00000  Uiso   1.00
C19    C     0.94979   0.14033   0.51004   0.00000  Uiso   1.00
C20    C     0.88458   0.09813   0.55232   0.00000  Uiso   1.00
C21    C     0.22726   0.15896   0.53283   0.00000  Uiso   1.00
C22    C     0.28943   0.16469   0.40262   0.00000  Uiso   1.00
C23    C     0.37957   0.13363   0.39575   0.00000  Uiso   1.00
H24    H     0.19583   0.09593   0.87620   0.00000  Uiso   1.00
H25    H     0.20461   0.17239   0.07947   0.00000  Uiso   1.00
H26    H     0.02538   0.04053   0.84492   0.00000  Uiso   1.00
H27    H     0.36497   0.06490   0.73752   0.00000  Uiso   1.00
H28    H     0.20245   0.27283   0.25230   0.00000  Uiso   1.00
H29    H     0.82455   0.99478   0.75770   0.00000  Uiso   1.00
H30    H     0.54065   0.04615   0.53122   0.00000  Uiso   1.00
H31    H     0.10447   0.21658   0.47134   0.00000  Uiso   1.00
H32    H     0.10825   0.29967   0.65240   0.00000  Uiso   1.00
H33    H     0.92901   0.16781   0.41785   0.00000  Uiso   1.00
H34    H     0.26860   0.19217   0.31044   0.00000  Uiso   1.00
H35    H     0.12423   0.37613   0.90567   0.00000  Uiso   1.00
H36    H     0.74633   0.09808   0.41107   0.00000  Uiso   1.00
H37    H     0.46243   0.14946   0.18459   0.00000  Uiso   1.00
O38    O     0.16743   0.37696   0.20541   0.00000  Uiso   1.00
O39    O     0.67166   0.01217   0.55649   0.00000  Uiso   1.00
O40    O     0.61116   0.07957   0.25936   0.00000  Uiso   1.00
N41    N     0.18354   0.28574   0.14587   0.00000  Uiso   1.00
N42    N     0.83022   0.02578   0.68346   0.00000  Uiso   1.00
N43    N     0.49970   0.07380   0.47170   0.00000  Uiso   1.00
N44    N     0.14146   0.34132   0.95935   0.00000  Uiso   1.00
N45    N     0.78813   0.08137   0.49694   0.00000  Uiso   1.00
N46    N     0.45761   0.12939   0.28518   0.00000  Uiso   1.00
C47    C     0.32510   0.87643   0.28345   0.00000  Uiso   1.00
C48    C     0.33298   0.81815   0.33775   0.00000  Uiso   1.00
C49    C     0.31619   0.80012   0.48730   0.00000  Uiso   1.00
C50    C     0.32724   0.74525   0.51354   0.00000  Uiso   1.00
C51    C     0.33545   0.66016   0.61598   0.00000  Uiso   1.00
C52    C     0.43037   0.88979   0.21032   0.00000  Uiso   1.00
C53    C     0.49545   0.93200   0.25272   0.00000  Uiso   1.00
C54    C     0.58848   0.93744   0.17167   0.00000  Uiso   1.00
C55    C     0.74786   0.96360   0.07621   0.00000  Uiso   1.00
C56    C     0.24586   0.87655   0.15198   0.00000  Uiso   1.00
C57    C     0.15581   0.90763   0.14530   0.00000  Uiso   1.00
C58    C     0.09350   0.90194   0.01511   0.00000  Uiso   1.00
C59    C     0.96638   0.90754   0.82906   0.00000  Uiso   1.00
C60    C     0.37459   0.81106   0.06410   0.00000  Uiso   1.00
C61    C     0.35987   0.78265   0.21860   0.00000  Uiso   1.00
C62    C     0.37095   0.72779   0.24462   0.00000  Uiso   1.00
C63    C     0.35417   0.70968   0.39418   0.00000  Uiso   1.00
C64    C     0.45726   0.85429   0.09118   0.00000  Uiso   1.00
C65    C     0.55021   0.85967   0.01004   0.00000  Uiso   1.00
C66    C     0.61542   0.90187   0.05232   0.00000  Uiso   1.00
C67    C     0.27274   0.84104   0.03283   0.00000  Uiso   1.00
C68    C     0.21057   0.83531   0.90262   0.00000  Uiso   1.00
C69    C     0.12043   0.86637   0.89575   0.00000  Uiso   1.00
H70    H     0.30417   0.90407   0.37620   0.00000  Uiso   1.00
H71    H     0.29539   0.82761   0.57947   0.00000  Uiso   1.00
H72    H     0.47462   0.95947   0.34492   0.00000  Uiso   1.00
H73    H     0.13503   0.93510   0.23752   0.00000  Uiso   1.00
H74    H     0.29755   0.72717   0.75230   0.00000  Uiso   1.00
H75    H     0.67545   0.00522   0.25770   0.00000  Uiso   1.00
H76    H     0.95935   0.95385   0.03122   0.00000  Uiso   1.00
H77    H     0.39553   0.78342   0.97134   0.00000  Uiso   1.00
H78    H     0.39175   0.70033   0.15240   0.00000  Uiso   1.00
H79    H     0.57099   0.83219   0.91785   0.00000  Uiso   1.00
H80    H     0.23140   0.80783   0.81044   0.00000  Uiso   1.00
H81    H     0.37577   0.62387   0.40567   0.00000  Uiso   1.00
H82    H     0.75367   0.90192   0.91107   0.00000  Uiso   1.00
H83    H     0.03757   0.85054   0.68459   0.00000  Uiso   1.00
O84    O     0.33257   0.62304   0.70541   0.00000  Uiso   1.00
O85    O     0.82834   0.98783   0.05649   0.00000  Uiso   1.00
O86    O     0.88884   0.92043   0.75936   0.00000  Uiso   1.00
N87    N     0.31646   0.71426   0.64587   0.00000  Uiso   1.00
N88    N     0.66978   0.97422   0.18346   0.00000  Uiso   1.00
N89    N     0.00030   0.92620   0.97170   0.00000  Uiso   1.00
N90    N     0.35854   0.65868   0.45935   0.00000  Uiso   1.00
N91    N     0.71187   0.91863   0.99694   0.00000  Uiso   1.00
N92    N     0.04239   0.87061   0.78518   0.00000  Uiso   1.00
C93    C     0.82510   0.62357   0.71655   0.00000  Uiso   1.00
C94    C     0.83298   0.68185   0.66225   0.00000  Uiso   1.00
C95    C     0.81619   0.69988   0.51270   0.00000  Uiso   1.00
C96    C     0.82724   0.75475   0.48646   0.00000  Uiso   1.00
C97    C     0.83545   0.83984   0.38402   0.00000  Uiso   1.00
C98    C     0.93037   0.61021   0.78968   0.00000  Uiso   1.00
C99    C     0.99545   0.56800   0.74728   0.00000  Uiso   1.00
C100   C     0.08848   0.56256   0.82833   0.00000  Uiso   1.00
C101   C     0.24786   0.53640   0.92379   0.00000  Uiso   1.00
C102   C     0.74586   0.62345   0.84802   0.00000  Uiso   1.00
C103   C     0.65581   0.59237   0.85470   0.00000  Uiso   1.00
C104   C     0.59350   0.59806   0.98489   0.00000  Uiso   1.00
C105   C     0.46638   0.59246   0.17094   0.00000  Uiso   1.00
C106   C     0.87459   0.68894   0.93590   0.00000  Uiso   1.00
C107   C     0.85987   0.71735   0.78140   0.00000  Uiso   1.00
C108   C     0.87095   0.77221   0.75538   0.00000  Uiso   1.00
C109   C     0.85417   0.79032   0.60582   0.00000  Uiso   1.00
C110   C     0.95726   0.64571   0.90882   0.00000  Uiso   1.00
C111   C     0.05021   0.64033   0.98996   0.00000  Uiso   1.00
C112   C     0.11542   0.59813   0.94768   0.00000  Uiso   1.00
C113   C     0.77274   0.65896   0.96717   0.00000  Uiso   1.00
C114   C     0.71057   0.66469   0.09738   0.00000  Uiso   1.00
C115   C     0.62043   0.63363   0.10425   0.00000  Uiso   1.00
H116   H     0.80417   0.59593   0.62380   0.00000  Uiso   1.00
H117   H     0.79539   0.67239   0.42053   0.00000  Uiso   1.00
H118   H     0.97462   0.54053   0.65508   0.00000  Uiso   1.00
H119   H     0.63503   0.56490   0.76248   0.00000  Uiso   1.00
H120   H     0.79755   0.77283   0.24770   0.00000  Uiso   1.00
H121   H     0.17545   0.49478   0.74230   0.00000  Uiso   1.00
H122   H     0.45935   0.54615   0.96878   0.00000  Uiso   1.00
H123   H     0.89553   0.71658   0.02866   0.00000  Uiso   1.00
H124   H     0.89175   0.79967   0.84760   0.00000  Uiso   1.00
H125   H     0.07099   0.66781   0.08215   0.00000  Uiso   1.00
H126   H     0.73140   0.69217   0.18956   0.00000  Uiso   1.00
H127   H     0.87577   0.87613   0.59433   0.00000  Uiso   1.00
H128   H     0.25367   0.59808   0.08893   0.00000  Uiso   1.00
H129   H     0.53757   0.64946   0.31541   0.00000  Uiso   1.00
O130   O     0.83257   0.87696   0.29459   0.00000  Uiso   1.00
O131   O     0.32834   0.51217   0.94351   0.00000  Uiso   1.00
O132   O     0.38884   0.57957   0.24064   0.00000  Uiso   1.00
N133   N     0.81646   0.78574   0.35413   0.00000  Uiso   1.00
N134   N     0.16978   0.52578   0.81654   0.00000  Uiso   1.00
N135   N     0.50030   0.57380   0.02830   0.00000  Uiso   1.00
N136   N     0.85854   0.84132   0.54065   0.00000  Uiso   1.00
N137   N     0.21187   0.58137   0.00306   0.00000  Uiso   1.00
N138   N     0.54239   0.62939   0.21482   0.00000  Uiso   1.00
C139   C     0.67490   0.37643   0.21655   0.00000  Uiso   1.00
C140   C     0.66702   0.31815   0.16225   0.00000  Uiso   1.00
C141   C     0.68381   0.30012   0.01270   0.00000  Uiso   1.00
C142   C     0.67276   0.24525   0.98646   0.00000  Uiso   1.00
C143   C     0.66455   0.16016   0.88402   0.00000  Uiso   1.00
C144   C     0.56963   0.38979   0.28968   0.00000  Uiso   1.00
C145   C     0.50455   0.43200   0.24728   0.00000  Uiso   1.00
C146   C     0.41152   0.43744   0.32833   0.00000  Uiso   1.00
C147   C     0.25214   0.46360   0.42379   0.00000  Uiso   1.00
C148   C     0.75414   0.37655   0.34802   0.00000  Uiso   1.00
C149   C     0.84419   0.40763   0.35470   0.00000  Uiso   1.00
C150   C     0.90650   0.40194   0.48489   0.00000  Uiso   1.00
C151   C     0.03362   0.40754   0.67094   0.00000  Uiso   1.00
C152   C     0.62541   0.31106   0.43590   0.00000  Uiso   1.00
C153   C     0.64013   0.28265   0.28140   0.00000  Uiso   1.00
C154   C     0.62905   0.22779   0.25538   0.00000  Uiso   1.00
C155   C     0.64583   0.20968   0.10582   0.00000  Uiso   1.00
C156   C     0.54274   0.35429   0.40882   0.00000  Uiso   1.00
C157   C     0.44979   0.35967   0.48996   0.00000  Uiso   1.00
C158   C     0.38458   0.40187   0.44768   0.00000  Uiso   1.00
C159   C     0.72726   0.34104   0.46717   0.00000  Uiso   1.00
C160   C     0.78943   0.33531   0.59738   0.00000  Uiso   1.00
C161   C     0.87957   0.36637   0.60425   0.00000  Uiso   1.00
H162   H     0.69583   0.40407   0.12380   0.00000  Uiso   1.00
H163   H     0.70461   0.32761   0.92053   0.00000  Uiso   1.00
H164   H     0.52538   0.45947   0.15508   0.00000  Uiso   1.00
H165   H     0.86497   0.43510   0.26248   0.00000  Uiso   1.00
H166   H     0.70245   0.22717   0.74770   0.00000  Uiso   1.00
H167   H     0.32455   0.50522   0.24230   0.00000  Uiso   1.00
H168   H     0.04065   0.45385   0.46878   0.00000  Uiso   1.00
H169   H     0.60447   0.28342   0.52866   0.00000  Uiso   1.00
H170   H     0.60825   0.20033   0.34760   0.00000  Uiso   1.00
H171   H     0.42901   0.33219   0.58215   0.00000  Uiso   1.00
H172   H     0.76860   0.30783   0.68956   0.00000  Uiso   1.00
H173   H     0.62423   0.12387   0.09433   0.00000  Uiso   1.00
H174   H     0.24633   0.40192   0.58893   0.00000  Uiso   1.00
H175   H     0.96243   0.35054   0.81541   0.00000  Uiso   1.00
O176   O     0.66743   0.12304   0.79459   0.00000  Uiso   1.00
O177   O     0.17166   0.48783   0.44351   0.00000  Uiso   1.00
O178   O     0.11116   0.42043   0.74064   0.00000  Uiso   1.00
N179   N     0.68354   0.21426   0.85413   0.00000  Uiso   1.00
N180   N     0.33022   0.47422   0.31654   0.00000  Uiso   1.00
N181   N     0.99970   0.42620   0.52830   0.00000  Uiso   1.00
N182   N     0.64146   0.15868   0.04065   0.00000  Uiso   1.00
N183   N     0.28813   0.41863   0.50306   0.00000  Uiso   1.00
N184   N     0.95761   0.37061   0.71482   0.00000  Uiso   1.00
