data_job_05098
_audit_creation_date              2018-12-19
_audit_creation_method            'Materials Studio'
_symmetry_space_group_name_H-M    'P1'
_symmetry_Int_Tables_number       1
_symmetry_cell_setting            triclinic
loop_
_symmetry_equiv_pos_as_xyz
  x,y,z
_cell_length_a                    10.7104
_cell_length_b                    19.0145
_cell_length_c                    23.7579
_cell_angle_alpha                 86.2968
_cell_angle_beta                  91.4337
_cell_angle_gamma                 84.8040
loop_
_atom_site_label
_atom_site_type_symbol
_atom_site_fract_x
_atom_site_fract_y
_atom_site_fract_z
_atom_site_U_iso_or_equiv
_atom_site_adp_type
_atom_site_occupancy
C1     C     0.72782   0.29077   0.03170   0.00000  Uiso   1.00
C2     C     0.64964   0.26560   0.08053   0.00000  Uiso   1.00
C3     C     0.52049   0.27831   0.08396   0.00000  Uiso   1.00
C4     C     0.46656   0.25076   0.13211   0.00000  Uiso   1.00
C5     C     0.33411   0.21755   0.20136   0.00000  Uiso   1.00
C6     C     0.79921   0.22448   0.01152   0.00000  Uiso   1.00
C7     C     0.79583   0.20263   0.95693   0.00000  Uiso   1.00
C8     C     0.86782   0.14045   0.94700   0.00000  Uiso   1.00
C9     C     0.96765   0.04343   0.90910   0.00000  Uiso   1.00
C10    C     0.82634   0.33320   0.05748   0.00000  Uiso   1.00
C11    C     0.84581   0.40277   0.04151   0.00000  Uiso   1.00
C12    C     0.94067   0.43214   0.07026   0.00000  Uiso   1.00
C13    C     0.08262   0.50393   0.10371   0.00000  Uiso   1.00
C14    C     0.86169   0.21922   0.11113   0.00000  Uiso   1.00
C15    C     0.72236   0.22673   0.12367   0.00000  Uiso   1.00
C16    C     0.66861   0.19915   0.17184   0.00000  Uiso   1.00
C17    C     0.53941   0.21182   0.17533   0.00000  Uiso   1.00
C18    C     0.87192   0.18561   0.05466   0.00000  Uiso   1.00
C19    C     0.94395   0.12346   0.04481   0.00000  Uiso   1.00
C20    C     0.94067   0.10152   0.99022   0.00000  Uiso   1.00
C21    C     0.89906   0.29434   0.10062   0.00000  Uiso   1.00
C22    C     0.99392   0.32360   0.12940   0.00000  Uiso   1.00
C23    C     0.01352   0.39320   0.11348   0.00000  Uiso   1.00
H24    H     0.67121   0.32103   0.99811   0.00000  Uiso   1.00
H25    H     0.46425   0.30839   0.05056   0.00000  Uiso   1.00
H26    H     0.73956   0.23272   0.92355   0.00000  Uiso   1.00
H27    H     0.78952   0.43283   0.00813   0.00000  Uiso   1.00
H28    H     0.26687   0.27721   0.12772   0.00000  Uiso   1.00
H29    H     0.84739   0.11767   0.85992   0.00000  Uiso   1.00
H30    H     0.95275   0.53964   0.03826   0.00000  Uiso   1.00
H31    H     0.91831   0.18896   0.14472   0.00000  Uiso   1.00
H32    H     0.72491   0.16907   0.20521   0.00000  Uiso   1.00
H33    H     0.00021   0.09340   0.07820   0.00000  Uiso   1.00
H34    H     0.05017   0.29351   0.16278   0.00000  Uiso   1.00
H35    H     0.47842   0.16414   0.25325   0.00000  Uiso   1.00
H36    H     0.05896   0.00459   0.98544   0.00000  Uiso   1.00
H37    H     0.16431   0.42657   0.16378   0.00000  Uiso   1.00
O38    O     0.24096   0.20996   0.22763   0.00000  Uiso   1.00
O39    O     0.00260   0.00065   0.87628   0.00000  Uiso   1.00
O40    O     0.14082   0.55427   0.11025   0.00000  Uiso   1.00
N41    N     0.34320   0.25334   0.14897   0.00000  Uiso   1.00
N42    N     0.88594   0.10417   0.89859   0.00000  Uiso   1.00
N43    N     0.98447   0.49868   0.06531   0.00000  Uiso   1.00
N44    N     0.45704   0.19250   0.21651   0.00000  Uiso   1.00
N45    N     0.99978   0.04333   0.96613   0.00000  Uiso   1.00
N46    N     0.09830   0.43783   0.13285   0.00000  Uiso   1.00
C47    C     0.14405   0.86175   0.52347   0.00000  Uiso   1.00
C48    C     0.10033   0.83071   0.57959   0.00000  Uiso   1.00
C49    C     0.97748   0.83474   0.59722   0.00000  Uiso   1.00
C50    C     0.95681   0.80294   0.65001   0.00000  Uiso   1.00
C51    C     0.87389   0.75996   0.73199   0.00000  Uiso   1.00
C52    C     0.21287   0.80025   0.49537   0.00000  Uiso   1.00
C53    C     0.18465   0.77868   0.44219   0.00000  Uiso   1.00
C54    C     0.25872   0.72126   0.42408   0.00000  Uiso   1.00
C55    C     0.35058   0.63103   0.37530   0.00000  Uiso   1.00
C56    C     0.24350   0.91068   0.53819   0.00000  Uiso   1.00
C57    C     0.24106   0.98196   0.52099   0.00000  Uiso   1.00
C58    C     0.34094   0.01750   0.53892   0.00000  Uiso   1.00
C59    C     0.48036   0.09873   0.55661   0.00000  Uiso   1.00
C60    C     0.32579   0.79811   0.58586   0.00000  Uiso   1.00
C61    C     0.19904   0.79614   0.61348   0.00000  Uiso   1.00
C62    C     0.17855   0.76433   0.66626   0.00000  Uiso   1.00
C63    C     0.05570   0.76832   0.68397   0.00000  Uiso   1.00
C64    C     0.31157   0.76569   0.52926   0.00000  Uiso   1.00
C65    C     0.38571   0.70828   0.51123   0.00000  Uiso   1.00
C66    C     0.35761   0.68663   0.45804   0.00000  Uiso   1.00
C67    C     0.34221   0.87612   0.57208   0.00000  Uiso   1.00
C68    C     0.44212   0.91155   0.59003   0.00000  Uiso   1.00
C69    C     0.43983   0.98287   0.57287   0.00000  Uiso   1.00
H70    H     0.06721   0.88866   0.49708   0.00000  Uiso   1.00
H71    H     0.90112   0.86148   0.57098   0.00000  Uiso   1.00
H72    H     0.10826   0.80545   0.41597   0.00000  Uiso   1.00
H73    H     0.16466   0.00869   0.49477   0.00000  Uiso   1.00
H74    H     0.76050   0.81609   0.66785   0.00000  Uiso   1.00
H75    H     0.19730   0.69795   0.34100   0.00000  Uiso   1.00
H76    H     0.31623   0.12652   0.50715   0.00000  Uiso   1.00
H77    H     0.40264   0.77120   0.61225   0.00000  Uiso   1.00
H78    H     0.25496   0.73759   0.69248   0.00000  Uiso   1.00
H79    H     0.46210   0.68155   0.53747   0.00000  Uiso   1.00
H80    H     0.51849   0.88479   0.61626   0.00000  Uiso   1.00
H81    H     0.04769   0.71553   0.76646   0.00000  Uiso   1.00
H82    H     0.48450   0.59739   0.43961   0.00000  Uiso   1.00
H83    H     0.60342   0.02596   0.60576   0.00000  Uiso   1.00
O84    O     0.80089   0.74580   0.76785   0.00000  Uiso   1.00
O85    O     0.37397   0.59081   0.33903   0.00000  Uiso   1.00
O86    O     0.52999   0.15308   0.55702   0.00000  Uiso   1.00
N87    N     0.84836   0.79705   0.68006   0.00000  Uiso   1.00
N88    N     0.25673   0.68659   0.37447   0.00000  Uiso   1.00
N89    N     0.36794   0.08726   0.52980   0.00000  Uiso   1.00
N90    N     0.00290   0.74294   0.73312   0.00000  Uiso   1.00
N91    N     0.41127   0.63248   0.42754   0.00000  Uiso   1.00
N92    N     0.52247   0.03315   0.58286   0.00000  Uiso   1.00
C93    C     0.77417   0.70243   0.06483   0.00000  Uiso   1.00
C94    C     0.81231   0.74287   0.11493   0.00000  Uiso   1.00
C95    C     0.93302   0.74238   0.13768   0.00000  Uiso   1.00
C96    C     0.94851   0.78290   0.18348   0.00000  Uiso   1.00
C97    C     0.02319   0.83971   0.25787   0.00000  Uiso   1.00
C98    C     0.70918   0.75764   0.02180   0.00000  Uiso   1.00
C99    C     0.74317   0.76957   0.96625   0.00000  Uiso   1.00
C100   C     0.67183   0.82252   0.93365   0.00000  Uiso   1.00
C101   C     0.58634   0.90223   0.86345   0.00000  Uiso   1.00
C102   C     0.67279   0.65669   0.08578   0.00000  Uiso   1.00
C103   C     0.67616   0.58374   0.08401   0.00000  Uiso   1.00
C104   C     0.57417   0.55170   0.10527   0.00000  Uiso   1.00
C105   C     0.43219   0.47466   0.13440   0.00000  Uiso   1.00
C106   C     0.58703   0.77527   0.10572   0.00000  Uiso   1.00
C107   C     0.71065   0.78243   0.13713   0.00000  Uiso   1.00
C108   C     0.72596   0.82296   0.18291   0.00000  Uiso   1.00
C109   C     0.84668   0.82253   0.20573   0.00000  Uiso   1.00
C110   C     0.60753   0.79721   0.04401   0.00000  Uiso   1.00
C111   C     0.53611   0.85015   0.01148   0.00000  Uiso   1.00
C112   C     0.56999   0.86216   0.95590   0.00000  Uiso   1.00
C113   C     0.57114   0.69625   0.10799   0.00000  Uiso   1.00
C114   C     0.46911   0.66432   0.12925   0.00000  Uiso   1.00
C115   C     0.47233   0.59133   0.12751   0.00000  Uiso   1.00
H116   H     0.85331   0.67163   0.04754   0.00000  Uiso   1.00
H117   H     0.01166   0.71176   0.12048   0.00000  Uiso   1.00
H118   H     0.82183   0.73894   0.94908   0.00000  Uiso   1.00
H119   H     0.75484   0.55314   0.06682   0.00000  Uiso   1.00
H120   H     0.14240   0.77372   0.21113   0.00000  Uiso   1.00
H121   H     0.74211   0.83101   0.84971   0.00000  Uiso   1.00
H122   H     0.60085   0.43921   0.09799   0.00000  Uiso   1.00
H123   H     0.50788   0.80607   0.12301   0.00000  Uiso   1.00
H124   H     0.64728   0.85357   0.20009   0.00000  Uiso   1.00
H125   H     0.45745   0.88075   0.02868   0.00000  Uiso   1.00
H126   H     0.39046   0.69495   0.14643   0.00000  Uiso   1.00
H127   H     0.84666   0.88882   0.27574   0.00000  Uiso   1.00
H128   H     0.44636   0.94611   0.91432   0.00000  Uiso   1.00
H129   H     0.30510   0.55432   0.16260   0.00000  Uiso   1.00
O130   O     0.09247   0.86012   0.29276   0.00000  Uiso   1.00
O131   O     0.56729   0.93527   0.81860   0.00000  Uiso   1.00
O132   O     0.38196   0.42124   0.14434   0.00000  Uiso   1.00
N133   N     0.05367   0.79428   0.21576   0.00000  Uiso   1.00
N134   N     0.67943   0.84785   0.87786   0.00000  Uiso   1.00
N135   N     0.54734   0.48155   0.10997   0.00000  Uiso   1.00
N136   N     0.89453   0.85621   0.25053   0.00000  Uiso   1.00
N137   N     0.52029   0.90979   0.91263   0.00000  Uiso   1.00
N138   N     0.38821   0.54349   0.14474   0.00000  Uiso   1.00
C139   C     0.21180   0.29418   0.55345   0.00000  Uiso   1.00
C140   C     0.26157   0.32305   0.60719   0.00000  Uiso   1.00
C141   C     0.38382   0.31131   0.62879   0.00000  Uiso   1.00
C142   C     0.41065   0.34238   0.67845   0.00000  Uiso   1.00
C143   C     0.50198   0.38096   0.75777   0.00000  Uiso   1.00
C144   C     0.15607   0.35840   0.51639   0.00000  Uiso   1.00
C145   C     0.18960   0.37638   0.46164   0.00000  Uiso   1.00
C146   C     0.12762   0.43720   0.43487   0.00000  Uiso   1.00
C147   C     0.05508   0.53064   0.37320   0.00000  Uiso   1.00
C148   C     0.10145   0.25320   0.57088   0.00000  Uiso   1.00
C149   C     0.08903   0.18273   0.56194   0.00000  Uiso   1.00
C150   C     0.98103   0.15498   0.58103   0.00000  Uiso   1.00
C151   C     0.82369   0.08508   0.60398   0.00000  Uiso   1.00
C152   C     0.04207   0.37022   0.60325   0.00000  Uiso   1.00
C153   C     0.16938   0.36435   0.63424   0.00000  Uiso   1.00
C154   C     0.19604   0.39545   0.68389   0.00000  Uiso   1.00
C155   C     0.31830   0.38376   0.70555   0.00000  Uiso   1.00
C156   C     0.06389   0.39970   0.54344   0.00000  Uiso   1.00
C157   C     0.00183   0.46051   0.51674   0.00000  Uiso   1.00
C158   C     0.03526   0.47858   0.46196   0.00000  Uiso   1.00
C159   C     0.00926   0.29450   0.59794   0.00000  Uiso   1.00
C160   C     0.90125   0.26686   0.61704   0.00000  Uiso   1.00
C161   C     0.88868   0.19636   0.60813   0.00000  Uiso   1.00
H162   H     0.28357   0.26202   0.53238   0.00000  Uiso   1.00
H163   H     0.45514   0.27935   0.60784   0.00000  Uiso   1.00
H164   H     0.26094   0.34440   0.44072   0.00000  Uiso   1.00
H165   H     0.16039   0.15078   0.54100   0.00000  Uiso   1.00
H166   H     0.60471   0.31680   0.70341   0.00000  Uiso   1.00
H167   H     0.19521   0.45395   0.35102   0.00000  Uiso   1.00
H168   H     0.98316   0.04566   0.56249   0.00000  Uiso   1.00
H169   H     0.97030   0.40238   0.62431   0.00000  Uiso   1.00
H170   H     0.12468   0.42741   0.70481   0.00000  Uiso   1.00
H171   H     0.93049   0.49246   0.53769   0.00000  Uiso   1.00
H172   H     0.82993   0.29884   0.63797   0.00000  Uiso   1.00
H173   H     0.33650   0.43697   0.78211   0.00000  Uiso   1.00
H174   H     0.92699   0.57412   0.42972   0.00000  Uiso   1.00
H175   H     0.71496   0.16583   0.64119   0.00000  Uiso   1.00
O176   O     0.57782   0.39084   0.79405   0.00000  Uiso   1.00
O177   O     0.04056   0.57077   0.33172   0.00000  Uiso   1.00
O178   O     0.76237   0.03510   0.60917   0.00000  Uiso   1.00
N179   N     0.52039   0.34163   0.71089   0.00000  Uiso   1.00
N180   N     0.13755   0.46987   0.38143   0.00000  Uiso   1.00
N181   N     0.93929   0.08816   0.57912   0.00000  Uiso   1.00
N182   N     0.37607   0.40630   0.75324   0.00000  Uiso   1.00
N183   N     0.99323   0.53453   0.42378   0.00000  Uiso   1.00
N184   N     0.79497   0.15282   0.62147   0.00000  Uiso   1.00
C185   C     0.25941   0.69806   0.93924   0.00000  Uiso   1.00
C186   C     0.30139   0.73434   0.88472   0.00000  Uiso   1.00
C187   C     0.42169   0.72757   0.86412   0.00000  Uiso   1.00
C188   C     0.44109   0.76511   0.81350   0.00000  Uiso   1.00
C189   C     0.52111   0.81496   0.73326   0.00000  Uiso   1.00
C190   C     0.20348   0.75712   0.97402   0.00000  Uiso   1.00
C191   C     0.24145   0.76950   0.02849   0.00000  Uiso   1.00
C192   C     0.17843   0.82622   0.05304   0.00000  Uiso   1.00
C193   C     0.10639   0.91141   0.11145   0.00000  Uiso   1.00
C194   C     0.15039   0.65666   0.92249   0.00000  Uiso   1.00
C195   C     0.14371   0.58457   0.93365   0.00000  Uiso   1.00
C196   C     0.03597   0.55671   0.91482   0.00000  Uiso   1.00
C197   C     0.88150   0.48592   0.89322   0.00000  Uiso   1.00
C198   C     0.07996   0.77676   0.88598   0.00000  Uiso   1.00
C199   C     0.20391   0.77709   0.85579   0.00000  Uiso   1.00
C200   C     0.22314   0.81464   0.80519   0.00000  Uiso   1.00
C201   C     0.34345   0.80793   0.78451   0.00000  Uiso   1.00
C202   C     0.10601   0.79987   0.94509   0.00000  Uiso   1.00
C203   C     0.04291   0.85658   0.96956   0.00000  Uiso   1.00
C204   C     0.08078   0.86904   0.02406   0.00000  Uiso   1.00
C205   C     0.05292   0.69941   0.89355   0.00000  Uiso   1.00
C206   C     0.94517   0.67165   0.87471   0.00000  Uiso   1.00
C207   C     0.93832   0.59953   0.88584   0.00000  Uiso   1.00
H208   H     0.33530   0.66478   0.96177   0.00000  Uiso   1.00
H209   H     0.49710   0.69449   0.88652   0.00000  Uiso   1.00
H210   H     0.31688   0.73641   0.05087   0.00000  Uiso   1.00
H211   H     0.21915   0.55151   0.95604   0.00000  Uiso   1.00
H212   H     0.63351   0.74629   0.79035   0.00000  Uiso   1.00
H213   H     0.25348   0.83467   0.13690   0.00000  Uiso   1.00
H214   H     0.04740   0.44478   0.93692   0.00000  Uiso   1.00
H215   H     0.00407   0.81004   0.86345   0.00000  Uiso   1.00
H216   H     0.14769   0.84772   0.78281   0.00000  Uiso   1.00
H217   H     0.96748   0.88964   0.94716   0.00000  Uiso   1.00
H218   H     0.86975   0.70474   0.85232   0.00000  Uiso   1.00
H219   H     0.34992   0.87066   0.70618   0.00000  Uiso   1.00
H220   H     0.96989   0.95904   0.05272   0.00000  Uiso   1.00
H221   H     0.76382   0.56915   0.85274   0.00000  Uiso   1.00
O222   O     0.59218   0.83066   0.69700   0.00000  Uiso   1.00
O223   O     0.09359   0.94660   0.15165   0.00000  Uiso   1.00
O224   O     0.82323   0.43507   0.88929   0.00000  Uiso   1.00
N225   N     0.54705   0.77038   0.78160   0.00000  Uiso   1.00
N226   N     0.19176   0.85302   0.10560   0.00000  Uiso   1.00
N227   N     0.99908   0.48850   0.91865   0.00000  Uiso   1.00
N228   N     0.39445   0.83730   0.73631   0.00000  Uiso   1.00
N229   N     0.03917   0.91994   0.06030   0.00000  Uiso   1.00
N230   N     0.84649   0.55542   0.87335   0.00000  Uiso   1.00
C231   C     0.67602   0.28436   0.44402   0.00000  Uiso   1.00
C232   C     0.75154   0.31461   0.39613   0.00000  Uiso   1.00
C233   C     0.88023   0.30229   0.39069   0.00000  Uiso   1.00
C234   C     0.93159   0.33484   0.34385   0.00000  Uiso   1.00
C235   C     0.06023   0.37526   0.27558   0.00000  Uiso   1.00
C236   C     0.60677   0.34783   0.46943   0.00000  Uiso   1.00
C237   C     0.61374   0.36343   0.52562   0.00000  Uiso   1.00
C238   C     0.54321   0.42395   0.54048   0.00000  Uiso   1.00
C239   C     0.44702   0.51590   0.58601   0.00000  Uiso   1.00
C240   C     0.57542   0.24528   0.41612   0.00000  Uiso   1.00
C241   C     0.55600   0.17466   0.42751   0.00000  Uiso   1.00
C242   C     0.45906   0.14884   0.39749   0.00000  Uiso   1.00
C243   C     0.31421   0.08157   0.36026   0.00000  Uiso   1.00
C244   C     0.53836   0.36409   0.37049   0.00000  Uiso   1.00
C245   C     0.67676   0.35792   0.35619   0.00000  Uiso   1.00
C246   C     0.72794   0.39050   0.30934   0.00000  Uiso   1.00
C247   C     0.85669   0.37823   0.30384   0.00000  Uiso   1.00
C248   C     0.53200   0.39113   0.42949   0.00000  Uiso   1.00
C249   C     0.46144   0.45164   0.44427   0.00000  Uiso   1.00
C250   C     0.46830   0.46733   0.50047   0.00000  Uiso   1.00
C251   C     0.50065   0.28858   0.37618   0.00000  Uiso   1.00
C252   C     0.40371   0.26287   0.34615   0.00000  Uiso   1.00
C253   C     0.38416   0.19222   0.35749   0.00000  Uiso   1.00
H254   H     0.73422   0.25064   0.47511   0.00000  Uiso   1.00
H255   H     0.93807   0.26877   0.42161   0.00000  Uiso   1.00
H256   H     0.67159   0.32990   0.55652   0.00000  Uiso   1.00
H257   H     0.61388   0.14116   0.45841   0.00000  Uiso   1.00
H258   H     0.13110   0.30799   0.34469   0.00000  Uiso   1.00
H259   H     0.56920   0.43687   0.62915   0.00000  Uiso   1.00
H260   H     0.44749   0.03887   0.42228   0.00000  Uiso   1.00
H261   H     0.48015   0.39780   0.33940   0.00000  Uiso   1.00
H262   H     0.67005   0.42401   0.27845   0.00000  Uiso   1.00
H263   H     0.40358   0.48514   0.41336   0.00000  Uiso   1.00
H264   H     0.34587   0.29640   0.31525   0.00000  Uiso   1.00
H265   H     0.91357   0.43399   0.22850   0.00000  Uiso   1.00
H266   H     0.35166   0.56287   0.51296   0.00000  Uiso   1.00
H267   H     0.22997   0.16487   0.30609   0.00000  Uiso   1.00
O268   O     0.15185   0.38560   0.24896   0.00000  Uiso   1.00
O269   O     0.41464   0.55467   0.62216   0.00000  Uiso   1.00
O270   O     0.25498   0.03250   0.35075   0.00000  Uiso   1.00
N271   N     0.05384   0.33404   0.32571   0.00000  Uiso   1.00
N272   N     0.52851   0.45454   0.59166   0.00000  Uiso   1.00
N273   N     0.41471   0.08245   0.39826   0.00000  Uiso   1.00
N274   N     0.93679   0.40184   0.26318   0.00000  Uiso   1.00
N275   N     0.41146   0.52234   0.52913   0.00000  Uiso   1.00
N276   N     0.29766   0.15025   0.33574   0.00000  Uiso   1.00
C277   C     0.18183   0.29037   0.97290   0.00000  Uiso   1.00
C278   C     0.11979   0.28020   0.91589   0.00000  Uiso   1.00
C279   C     0.99379   0.29675   0.90128   0.00000  Uiso   1.00
C280   C     0.95539   0.28347   0.84705   0.00000  Uiso   1.00
C281   C     0.84616   0.27202   0.76435   0.00000  Uiso   1.00
C282   C     0.24428   0.21791   0.99406   0.00000  Uiso   1.00
C283   C     0.22297   0.18208   0.04517   0.00000  Uiso   1.00
C284   C     0.28938   0.11637   0.05674   0.00000  Uiso   1.00
C285   C     0.37349   0.00823   0.09542   0.00000  Uiso   1.00
C286   C     0.28823   0.33668   0.96054   0.00000  Uiso   1.00
C287   C     0.30391   0.40071   0.98349   0.00000  Uiso   1.00
C288   C     0.40735   0.43499   0.96684   0.00000  Uiso   1.00
C289   C     0.55971   0.51126   0.95348   0.00000  Uiso   1.00
C290   C     0.33768   0.23737   0.90255   0.00000  Uiso   1.00
C291   C     0.20444   0.25141   0.87768   0.00000  Uiso   1.00
C292   C     0.16622   0.23810   0.82345   0.00000  Uiso   1.00
C293   C     0.04019   0.25463   0.80877   0.00000  Uiso   1.00
C294   C     0.32892   0.18912   0.95585   0.00000  Uiso   1.00
C295   C     0.39539   0.12344   0.96734   0.00000  Uiso   1.00
C296   C     0.37418   0.08752   0.01846   0.00000  Uiso   1.00
C297   C     0.37289   0.30789   0.92233   0.00000  Uiso   1.00
C298   C     0.47633   0.34207   0.90565   0.00000  Uiso   1.00
C299   C     0.49215   0.40614   0.92857   0.00000  Uiso   1.00
H300   H     0.11593   0.31278   0.00265   0.00000  Uiso   1.00
H301   H     0.92831   0.31902   0.93087   0.00000  Uiso   1.00
H302   H     0.15746   0.20438   0.07474   0.00000  Uiso   1.00
H303   H     0.23838   0.42298   0.01305   0.00000  Uiso   1.00
H304   H     0.75762   0.31321   0.83444   0.00000  Uiso   1.00
H305   H     0.24083   0.07150   0.13781   0.00000  Uiso   1.00
H306   H     0.41147   0.53245   0.00774   0.00000  Uiso   1.00
H307   H     0.40359   0.21495   0.87280   0.00000  Uiso   1.00
H308   H     0.23175   0.21582   0.79389   0.00000  Uiso   1.00
H309   H     0.46090   0.10118   0.93777   0.00000  Uiso   1.00
H310   H     0.54182   0.31977   0.87608   0.00000  Uiso   1.00
H311   H     0.00390   0.22945   0.72327   0.00000  Uiso   1.00
H312   H     0.48711   0.98773   0.02664   0.00000  Uiso   1.00
H313   H     0.65775   0.44869   0.89657   0.00000  Uiso   1.00
O314   O     0.76252   0.27365   0.72929   0.00000  Uiso   1.00
O315   O     0.39648   0.95653   0.12731   0.00000  Uiso   1.00
O316   O     0.62036   0.56129   0.95666   0.00000  Uiso   1.00
N317   N     0.83917   0.29339   0.81910   0.00000  Uiso   1.00
N318   N     0.29092   0.06740   0.10273   0.00000  Uiso   1.00
N319   N     0.45048   0.49834   0.98114   0.00000  Uiso   1.00
N320   N     0.97169   0.24832   0.75928   0.00000  Uiso   1.00
N321   N     0.42344   0.02233   0.04291   0.00000  Uiso   1.00
N322   N     0.58300   0.45327   0.92132   0.00000  Uiso   1.00
C323   C     0.63925   0.86319   0.45899   0.00000  Uiso   1.00
C324   C     0.59534   0.83666   0.40328   0.00000  Uiso   1.00
C325   C     0.47277   0.84345   0.38187   0.00000  Uiso   1.00
C326   C     0.45185   0.81565   0.33021   0.00000  Uiso   1.00
C327   C     0.36872   0.77950   0.24816   0.00000  Uiso   1.00
C328   C     0.70547   0.79885   0.49260   0.00000  Uiso   1.00
C329   C     0.67550   0.77386   0.54630   0.00000  Uiso   1.00
C330   C     0.74731   0.71424   0.56983   0.00000  Uiso   1.00
C331   C     0.83521   0.61943   0.62646   0.00000  Uiso   1.00
C332   C     0.74085   0.91194   0.44430   0.00000  Uiso   1.00
C333   C     0.74066   0.98203   0.45739   0.00000  Uiso   1.00
C334   C     0.84227   0.01762   0.44026   0.00000  Uiso   1.00
C335   C     0.98511   0.09840   0.42190   0.00000  Uiso   1.00
C336   C     0.82005   0.80175   0.40530   0.00000  Uiso   1.00
C337   C     0.69354   0.80329   0.37412   0.00000  Uiso   1.00
C338   C     0.67281   0.77548   0.32247   0.00000  Uiso   1.00
C339   C     0.55023   0.78222   0.30099   0.00000  Uiso   1.00
C340   C     0.80367   0.76548   0.46344   0.00000  Uiso   1.00
C341   C     0.87554   0.70589   0.48690   0.00000  Uiso   1.00
C342   C     0.84569   0.68081   0.54061   0.00000  Uiso   1.00
C343   C     0.83905   0.87857   0.41513   0.00000  Uiso   1.00
C344   C     0.94069   0.91406   0.39799   0.00000  Uiso   1.00
C345   C     0.94065   0.98419   0.41105   0.00000  Uiso   1.00
H346   H     0.56280   0.88916   0.48169   0.00000  Uiso   1.00
H347   H     0.39680   0.86927   0.40446   0.00000  Uiso   1.00
H348   H     0.59951   0.79970   0.56886   0.00000  Uiso   1.00
H349   H     0.66465   0.00784   0.47996   0.00000  Uiso   1.00
H350   H     0.25606   0.83247   0.30597   0.00000  Uiso   1.00
H351   H     0.68351   0.68579   0.65263   0.00000  Uiso   1.00
H352   H     0.82088   0.12469   0.46517   0.00000  Uiso   1.00
H353   H     0.89651   0.77577   0.38260   0.00000  Uiso   1.00
H354   H     0.74882   0.74966   0.29992   0.00000  Uiso   1.00
H355   H     0.95153   0.68008   0.46432   0.00000  Uiso   1.00
H356   H     0.01667   0.88822   0.37542   0.00000  Uiso   1.00
H357   H     0.54177   0.73539   0.22113   0.00000  Uiso   1.00
H358   H     0.96923   0.58871   0.56778   0.00000  Uiso   1.00
H359   H     0.10659   0.02761   0.38033   0.00000  Uiso   1.00
O360   O     0.29573   0.76877   0.21096   0.00000  Uiso   1.00
O361   O     0.85655   0.57635   0.66576   0.00000  Uiso   1.00
O362   O     0.03676   0.15217   0.41982   0.00000  Uiso   1.00
N363   N     0.34357   0.81322   0.29735   0.00000  Uiso   1.00
N364   N     0.74320   0.67608   0.62144   0.00000  Uiso   1.00
N365   N     0.87164   0.08641   0.44620   0.00000  Uiso   1.00
N366   N     0.49731   0.76098   0.25169   0.00000  Uiso   1.00
N367   N     0.89694   0.62384   0.57579   0.00000  Uiso   1.00
N368   N     0.02538   0.03417   0.40055   0.00000  Uiso   1.00
