data_job_04762
_audit_creation_date              2018-12-19
_audit_creation_method            'Materials Studio'
_symmetry_space_group_name_H-M    'P1'
_symmetry_Int_Tables_number       1
_symmetry_cell_setting            triclinic
loop_
_symmetry_equiv_pos_as_xyz
  x,y,z
_cell_length_a                    12.1404
_cell_length_b                    27.0625
_cell_length_c                    6.9922
_cell_angle_alpha                 90.0000
_cell_angle_beta                  90.0000
_cell_angle_gamma                 90.0000
loop_
_atom_site_label
_atom_site_type_symbol
_atom_site_fract_x
_atom_site_fract_y
_atom_site_fract_z
_atom_site_U_iso_or_equiv
_atom_site_adp_type
_atom_site_occupancy
C1     C     0.14554   0.63988   0.84115   0.00000  Uiso   1.00
C2     C     0.06923   0.61075   0.70963   0.00000  Uiso   1.00
C3     C     0.97569   0.58513   0.76603   0.00000  Uiso   1.00
C4     C     0.91697   0.56081   0.62401   0.00000  Uiso   1.00
C5     C     0.79338   0.51536   0.44894   0.00000  Uiso   1.00
C6     C     0.26034   0.61831   0.81178   0.00000  Uiso   1.00
C7     C     0.32749   0.59906   0.95408   0.00000  Uiso   1.00
C8     C     0.42966   0.58111   0.89804   0.00000  Uiso   1.00
C9     C     0.60281   0.54744   0.88158   0.00000  Uiso   1.00
C10    C     0.14957   0.69220   0.76046   0.00000  Uiso   1.00
C11    C     0.12361   0.73507   0.85962   0.00000  Uiso   1.00
C12    C     0.13254   0.77932   0.76038   0.00000  Uiso   1.00
C13    C     0.13370   0.86037   0.66423   0.00000  Uiso   1.00
C14    C     0.20758   0.64225   0.48862   0.00000  Uiso   1.00
C15    C     0.10293   0.61204   0.51815   0.00000  Uiso   1.00
C16    C     0.04433   0.58775   0.37600   0.00000  Uiso   1.00
C17    C     0.95072   0.56210   0.43219   0.00000  Uiso   1.00
C18    C     0.29405   0.61960   0.62031   0.00000  Uiso   1.00
C19    C     0.39614   0.60168   0.56405   0.00000  Uiso   1.00
C20    C     0.46342   0.58240   0.70622   0.00000  Uiso   1.00
C21    C     0.18327   0.69348   0.56897   0.00000  Uiso   1.00
C22    C     0.19225   0.73769   0.46958   0.00000  Uiso   1.00
C23    C     0.16630   0.78061   0.56856   0.00000  Uiso   1.00
H24    H     0.11931   0.63888   0.99022   0.00000  Uiso   1.00
H25    H     0.94964   0.58414   0.91424   0.00000  Uiso   1.00
H26    H     0.30140   0.59807   0.10225   0.00000  Uiso   1.00
H27    H     0.09754   0.73405   0.00779   0.00000  Uiso   1.00
H28    H     0.77642   0.52400   0.74555   0.00000  Uiso   1.00
H29    H     0.51812   0.55340   0.14200   0.00000  Uiso   1.00
H30    H     0.08825   0.84015   0.94283   0.00000  Uiso   1.00
H31    H     0.23382   0.64325   0.33954   0.00000  Uiso   1.00
H32    H     0.07043   0.58876   0.22784   0.00000  Uiso   1.00
H33    H     0.42219   0.60269   0.41586   0.00000  Uiso   1.00
H34    H     0.21833   0.73867   0.32140   0.00000  Uiso   1.00
H35    H     0.87446   0.52775   0.18845   0.00000  Uiso   1.00
H36    H     0.61617   0.55714   0.58490   0.00000  Uiso   1.00
H37    H     0.18629   0.84389   0.38572   0.00000  Uiso   1.00
O38    O     0.71591   0.48993   0.40527   0.00000  Uiso   1.00
O39    O     0.68901   0.52851   0.92540   0.00000  Uiso   1.00
O40    O     0.12501   0.90471   0.66409   0.00000  Uiso   1.00
N41    N     0.82190   0.53237   0.62976   0.00000  Uiso   1.00
N42    N     0.51535   0.55985   0.00041   0.00000  Uiso   1.00
N43    N     0.11348   0.82793   0.81422   0.00000  Uiso   1.00
N44    N     0.87466   0.53439   0.32999   0.00000  Uiso   1.00
N45    N     0.56810   0.56186   0.70064   0.00000  Uiso   1.00
N46    N     0.16623   0.82995   0.51444   0.00000  Uiso   1.00
C47    C     0.85446   0.36012   0.84115   0.00000  Uiso   1.00
C48    C     0.93077   0.38925   0.70963   0.00000  Uiso   1.00
C49    C     0.02431   0.41487   0.76603   0.00000  Uiso   1.00
C50    C     0.08303   0.43919   0.62401   0.00000  Uiso   1.00
C51    C     0.20662   0.48464   0.44894   0.00000  Uiso   1.00
C52    C     0.73966   0.38169   0.81178   0.00000  Uiso   1.00
C53    C     0.67251   0.40094   0.95408   0.00000  Uiso   1.00
C54    C     0.57034   0.41889   0.89804   0.00000  Uiso   1.00
C55    C     0.39719   0.45256   0.88158   0.00000  Uiso   1.00
C56    C     0.85043   0.30780   0.76046   0.00000  Uiso   1.00
C57    C     0.87639   0.26493   0.85962   0.00000  Uiso   1.00
C58    C     0.86746   0.22068   0.76038   0.00000  Uiso   1.00
C59    C     0.86630   0.13963   0.66423   0.00000  Uiso   1.00
C60    C     0.79242   0.35775   0.48862   0.00000  Uiso   1.00
C61    C     0.89707   0.38796   0.51815   0.00000  Uiso   1.00
C62    C     0.95567   0.41225   0.37600   0.00000  Uiso   1.00
C63    C     0.04928   0.43790   0.43219   0.00000  Uiso   1.00
C64    C     0.70595   0.38040   0.62031   0.00000  Uiso   1.00
C65    C     0.60386   0.39832   0.56405   0.00000  Uiso   1.00
C66    C     0.53658   0.41760   0.70622   0.00000  Uiso   1.00
C67    C     0.81673   0.30652   0.56897   0.00000  Uiso   1.00
C68    C     0.80775   0.26231   0.46958   0.00000  Uiso   1.00
C69    C     0.83370   0.21939   0.56856   0.00000  Uiso   1.00
H70    H     0.88069   0.36112   0.99022   0.00000  Uiso   1.00
H71    H     0.05036   0.41586   0.91424   0.00000  Uiso   1.00
H72    H     0.69860   0.40193   0.10225   0.00000  Uiso   1.00
H73    H     0.90246   0.26595   0.00779   0.00000  Uiso   1.00
H74    H     0.22358   0.47600   0.74555   0.00000  Uiso   1.00
H75    H     0.48188   0.44660   0.14200   0.00000  Uiso   1.00
H76    H     0.91175   0.15985   0.94283   0.00000  Uiso   1.00
H77    H     0.76618   0.35675   0.33954   0.00000  Uiso   1.00
H78    H     0.92957   0.41124   0.22784   0.00000  Uiso   1.00
H79    H     0.57781   0.39731   0.41586   0.00000  Uiso   1.00
H80    H     0.78167   0.26133   0.32140   0.00000  Uiso   1.00
H81    H     0.12554   0.47225   0.18845   0.00000  Uiso   1.00
H82    H     0.38383   0.44286   0.58490   0.00000  Uiso   1.00
H83    H     0.81371   0.15611   0.38572   0.00000  Uiso   1.00
O84    O     0.28409   0.51007   0.40527   0.00000  Uiso   1.00
O85    O     0.31099   0.47149   0.92540   0.00000  Uiso   1.00
O86    O     0.87499   0.09529   0.66409   0.00000  Uiso   1.00
N87    N     0.17810   0.46763   0.62976   0.00000  Uiso   1.00
N88    N     0.48465   0.44015   0.00041   0.00000  Uiso   1.00
N89    N     0.88652   0.17207   0.81422   0.00000  Uiso   1.00
N90    N     0.12534   0.46561   0.32999   0.00000  Uiso   1.00
N91    N     0.43190   0.43814   0.70064   0.00000  Uiso   1.00
N92    N     0.83377   0.17005   0.51444   0.00000  Uiso   1.00
C93    C     0.35446   0.13988   0.15885   0.00000  Uiso   1.00
C94    C     0.43077   0.11075   0.29037   0.00000  Uiso   1.00
C95    C     0.52431   0.08513   0.23397   0.00000  Uiso   1.00
C96    C     0.58303   0.06081   0.37599   0.00000  Uiso   1.00
C97    C     0.70662   0.01536   0.55106   0.00000  Uiso   1.00
C98    C     0.23966   0.11831   0.18822   0.00000  Uiso   1.00
C99    C     0.17251   0.09906   0.04592   0.00000  Uiso   1.00
C100   C     0.07034   0.08111   0.10196   0.00000  Uiso   1.00
C101   C     0.89719   0.04744   0.11842   0.00000  Uiso   1.00
C102   C     0.35043   0.19220   0.23954   0.00000  Uiso   1.00
C103   C     0.37639   0.23507   0.14038   0.00000  Uiso   1.00
C104   C     0.36746   0.27932   0.23962   0.00000  Uiso   1.00
C105   C     0.36630   0.36037   0.33577   0.00000  Uiso   1.00
C106   C     0.29242   0.14225   0.51138   0.00000  Uiso   1.00
C107   C     0.39707   0.11204   0.48185   0.00000  Uiso   1.00
C108   C     0.45567   0.08775   0.62400   0.00000  Uiso   1.00
C109   C     0.54928   0.06210   0.56781   0.00000  Uiso   1.00
C110   C     0.20595   0.11960   0.37969   0.00000  Uiso   1.00
C111   C     0.10386   0.10168   0.43595   0.00000  Uiso   1.00
C112   C     0.03658   0.08240   0.29378   0.00000  Uiso   1.00
C113   C     0.31673   0.19348   0.43103   0.00000  Uiso   1.00
C114   C     0.30775   0.23769   0.53042   0.00000  Uiso   1.00
C115   C     0.33370   0.28061   0.43144   0.00000  Uiso   1.00
H116   H     0.38069   0.13888   0.00978   0.00000  Uiso   1.00
H117   H     0.55036   0.08414   0.08576   0.00000  Uiso   1.00
H118   H     0.19860   0.09807   0.89775   0.00000  Uiso   1.00
H119   H     0.40246   0.23405   0.99221   0.00000  Uiso   1.00
H120   H     0.72358   0.02400   0.25445   0.00000  Uiso   1.00
H121   H     0.98188   0.05340   0.85800   0.00000  Uiso   1.00
H122   H     0.41175   0.34015   0.05717   0.00000  Uiso   1.00
H123   H     0.26618   0.14325   0.66046   0.00000  Uiso   1.00
H124   H     0.42957   0.08876   0.77216   0.00000  Uiso   1.00
H125   H     0.07781   0.10269   0.58414   0.00000  Uiso   1.00
H126   H     0.28167   0.23867   0.67860   0.00000  Uiso   1.00
H127   H     0.62554   0.02775   0.81155   0.00000  Uiso   1.00
H128   H     0.88383   0.05714   0.41510   0.00000  Uiso   1.00
H129   H     0.31371   0.34389   0.61428   0.00000  Uiso   1.00
O130   O     0.78409   0.98993   0.59473   0.00000  Uiso   1.00
O131   O     0.81099   0.02851   0.07460   0.00000  Uiso   1.00
O132   O     0.37499   0.40471   0.33591   0.00000  Uiso   1.00
N133   N     0.67810   0.03237   0.37024   0.00000  Uiso   1.00
N134   N     0.98465   0.05985   0.99959   0.00000  Uiso   1.00
N135   N     0.38652   0.32793   0.18578   0.00000  Uiso   1.00
N136   N     0.62534   0.03439   0.67001   0.00000  Uiso   1.00
N137   N     0.93190   0.06186   0.29936   0.00000  Uiso   1.00
N138   N     0.33377   0.32995   0.48556   0.00000  Uiso   1.00
C139   C     0.64554   0.86012   0.15885   0.00000  Uiso   1.00
C140   C     0.56923   0.88925   0.29037   0.00000  Uiso   1.00
C141   C     0.47569   0.91487   0.23397   0.00000  Uiso   1.00
C142   C     0.41697   0.93919   0.37599   0.00000  Uiso   1.00
C143   C     0.29338   0.98464   0.55106   0.00000  Uiso   1.00
C144   C     0.76034   0.88169   0.18822   0.00000  Uiso   1.00
C145   C     0.82749   0.90094   0.04592   0.00000  Uiso   1.00
C146   C     0.92966   0.91889   0.10196   0.00000  Uiso   1.00
C147   C     0.10281   0.95256   0.11842   0.00000  Uiso   1.00
C148   C     0.64957   0.80780   0.23954   0.00000  Uiso   1.00
C149   C     0.62361   0.76493   0.14038   0.00000  Uiso   1.00
C150   C     0.63254   0.72068   0.23962   0.00000  Uiso   1.00
C151   C     0.63370   0.63963   0.33577   0.00000  Uiso   1.00
C152   C     0.70758   0.85775   0.51138   0.00000  Uiso   1.00
C153   C     0.60293   0.88796   0.48185   0.00000  Uiso   1.00
C154   C     0.54433   0.91225   0.62400   0.00000  Uiso   1.00
C155   C     0.45072   0.93790   0.56781   0.00000  Uiso   1.00
C156   C     0.79405   0.88040   0.37969   0.00000  Uiso   1.00
C157   C     0.89614   0.89832   0.43595   0.00000  Uiso   1.00
C158   C     0.96342   0.91760   0.29378   0.00000  Uiso   1.00
C159   C     0.68327   0.80652   0.43103   0.00000  Uiso   1.00
C160   C     0.69225   0.76231   0.53042   0.00000  Uiso   1.00
C161   C     0.66630   0.71939   0.43144   0.00000  Uiso   1.00
H162   H     0.61931   0.86112   0.00978   0.00000  Uiso   1.00
H163   H     0.44964   0.91586   0.08576   0.00000  Uiso   1.00
H164   H     0.80140   0.90193   0.89775   0.00000  Uiso   1.00
H165   H     0.59754   0.76595   0.99221   0.00000  Uiso   1.00
H166   H     0.27642   0.97600   0.25445   0.00000  Uiso   1.00
H167   H     0.01812   0.94660   0.85800   0.00000  Uiso   1.00
H168   H     0.58825   0.65985   0.05717   0.00000  Uiso   1.00
H169   H     0.73382   0.85675   0.66046   0.00000  Uiso   1.00
H170   H     0.57043   0.91124   0.77216   0.00000  Uiso   1.00
H171   H     0.92219   0.89731   0.58414   0.00000  Uiso   1.00
H172   H     0.71833   0.76133   0.67860   0.00000  Uiso   1.00
H173   H     0.37446   0.97225   0.81155   0.00000  Uiso   1.00
H174   H     0.11617   0.94286   0.41510   0.00000  Uiso   1.00
H175   H     0.68629   0.65611   0.61428   0.00000  Uiso   1.00
O176   O     0.21591   0.01007   0.59473   0.00000  Uiso   1.00
O177   O     0.18901   0.97149   0.07460   0.00000  Uiso   1.00
O178   O     0.62501   0.59529   0.33591   0.00000  Uiso   1.00
N179   N     0.32190   0.96763   0.37024   0.00000  Uiso   1.00
N180   N     0.01535   0.94015   0.99959   0.00000  Uiso   1.00
N181   N     0.61348   0.67207   0.18578   0.00000  Uiso   1.00
N182   N     0.37466   0.96561   0.67001   0.00000  Uiso   1.00
N183   N     0.06810   0.93814   0.29936   0.00000  Uiso   1.00
N184   N     0.66623   0.67005   0.48556   0.00000  Uiso   1.00
