data_job_00725
_audit_creation_date              2018-12-19
_audit_creation_method            'Materials Studio'
_symmetry_space_group_name_H-M    'P1'
_symmetry_Int_Tables_number       1
_symmetry_cell_setting            triclinic
loop_
_symmetry_equiv_pos_as_xyz
  x,y,z
_cell_length_a                    20.6757
_cell_length_b                    12.5091
_cell_length_c                    11.9489
_cell_angle_alpha                 90.0000
_cell_angle_beta                  52.0345
_cell_angle_gamma                 90.0000
loop_
_atom_site_label
_atom_site_type_symbol
_atom_site_fract_x
_atom_site_fract_y
_atom_site_fract_z
_atom_site_U_iso_or_equiv
_atom_site_adp_type
_atom_site_occupancy
C1     C     0.71536   0.50513   0.92862   0.00000  Uiso   1.00
C2     C     0.77676   0.53996   0.95238   0.00000  Uiso   1.00
C3     C     0.78400   0.49656   0.05110   0.00000  Uiso   1.00
C4     C     0.84400   0.53952   0.05636   0.00000  Uiso   1.00
C5     C     0.93157   0.58095   0.10704   0.00000  Uiso   1.00
C6     C     0.66751   0.60531   0.94753   0.00000  Uiso   1.00
C7     C     0.58289   0.61686   0.04215   0.00000  Uiso   1.00
C8     C     0.55092   0.71483   0.04331   0.00000  Uiso   1.00
C9     C     0.46887   0.85770   0.08638   0.00000  Uiso   1.00
C10    C     0.76601   0.47529   0.77206   0.00000  Uiso   1.00
C11    C     0.76419   0.37753   0.71914   0.00000  Uiso   1.00
C12    C     0.81514   0.36604   0.57256   0.00000  Uiso   1.00
C13    C     0.88602   0.30704   0.34319   0.00000  Uiso   1.00
C14    C     0.80904   0.65859   0.76241   0.00000  Uiso   1.00
C15    C     0.82764   0.62331   0.86210   0.00000  Uiso   1.00
C16    C     0.88765   0.66634   0.86721   0.00000  Uiso   1.00
C17    C     0.89498   0.62302   0.96592   0.00000  Uiso   1.00
C18    C     0.71838   0.68866   0.85726   0.00000  Uiso   1.00
C19    C     0.68653   0.78664   0.85827   0.00000  Uiso   1.00
C20    C     0.60190   0.79834   0.95288   0.00000  Uiso   1.00
C21    C     0.81689   0.55864   0.68178   0.00000  Uiso   1.00
C22    C     0.86784   0.54731   0.53525   0.00000  Uiso   1.00
C23    C     0.86611   0.44954   0.48212   0.00000  Uiso   1.00
H24    H     0.67574   0.44024   0.99890   0.00000  Uiso   1.00
H25    H     0.74461   0.43206   0.12095   0.00000  Uiso   1.00
H26    H     0.54353   0.55234   0.11199   0.00000  Uiso   1.00
H27    H     0.72481   0.31304   0.78903   0.00000  Uiso   1.00
H28    H     0.84338   0.45978   0.21649   0.00000  Uiso   1.00
H29    H     0.41940   0.71337   0.19756   0.00000  Uiso   1.00
H30    H     0.80165   0.20877   0.51653   0.00000  Uiso   1.00
H31    H     0.84865   0.72349   0.69213   0.00000  Uiso   1.00
H32    H     0.92701   0.73085   0.79734   0.00000  Uiso   1.00
H33    H     0.72593   0.85112   0.78839   0.00000  Uiso   1.00
H34    H     0.90721   0.61183   0.46543   0.00000  Uiso   1.00
H35    H     0.99142   0.70229   0.95384   0.00000  Uiso   1.00
H36    H     0.56743   0.95588   0.93492   0.00000  Uiso   1.00
H37    H     0.94969   0.45128   0.25389   0.00000  Uiso   1.00
O38    O     0.96581   0.58079   0.15995   0.00000  Uiso   1.00
O39    O     0.40956   0.91348   0.13510   0.00000  Uiso   1.00
O40    O     0.91107   0.25146   0.24161   0.00000  Uiso   1.00
N41    N     0.86748   0.51583   0.14022   0.00000  Uiso   1.00
N42    N     0.47108   0.75293   0.12254   0.00000  Uiso   1.00
N43    N     0.82844   0.28118   0.48583   0.00000  Uiso   1.00
N44    N     0.94714   0.64632   0.99889   0.00000  Uiso   1.00
N45    N     0.55074   0.88342   0.98121   0.00000  Uiso   1.00
N46    N     0.90810   0.41167   0.34450   0.00000  Uiso   1.00
C47    C     0.28464   0.00513   0.57138   0.00000  Uiso   1.00
C48    C     0.22324   0.03996   0.54762   0.00000  Uiso   1.00
C49    C     0.21600   0.99656   0.44890   0.00000  Uiso   1.00
C50    C     0.15600   0.03952   0.44364   0.00000  Uiso   1.00
C51    C     0.06843   0.08095   0.39296   0.00000  Uiso   1.00
C52    C     0.33249   0.10531   0.55247   0.00000  Uiso   1.00
C53    C     0.41711   0.11686   0.45785   0.00000  Uiso   1.00
C54    C     0.44908   0.21483   0.45669   0.00000  Uiso   1.00
C55    C     0.53113   0.35770   0.41362   0.00000  Uiso   1.00
C56    C     0.23399   0.97529   0.72794   0.00000  Uiso   1.00
C57    C     0.23581   0.87753   0.78086   0.00000  Uiso   1.00
C58    C     0.18486   0.86604   0.92744   0.00000  Uiso   1.00
C59    C     0.11398   0.80704   0.15681   0.00000  Uiso   1.00
C60    C     0.19096   0.15859   0.73759   0.00000  Uiso   1.00
C61    C     0.17236   0.12331   0.63790   0.00000  Uiso   1.00
C62    C     0.11235   0.16634   0.63279   0.00000  Uiso   1.00
C63    C     0.10502   0.12302   0.53408   0.00000  Uiso   1.00
C64    C     0.28162   0.18866   0.64274   0.00000  Uiso   1.00
C65    C     0.31347   0.28664   0.64173   0.00000  Uiso   1.00
C66    C     0.39810   0.29834   0.54712   0.00000  Uiso   1.00
C67    C     0.18311   0.05864   0.81822   0.00000  Uiso   1.00
C68    C     0.13216   0.04731   0.96475   0.00000  Uiso   1.00
C69    C     0.13389   0.94954   0.01788   0.00000  Uiso   1.00
H70    H     0.32426   0.94024   0.50110   0.00000  Uiso   1.00
H71    H     0.25539   0.93206   0.37905   0.00000  Uiso   1.00
H72    H     0.45647   0.05234   0.38801   0.00000  Uiso   1.00
H73    H     0.27519   0.81304   0.71097   0.00000  Uiso   1.00
H74    H     0.15662   0.95978   0.28351   0.00000  Uiso   1.00
H75    H     0.58060   0.21337   0.30244   0.00000  Uiso   1.00
H76    H     0.19835   0.70877   0.98347   0.00000  Uiso   1.00
H77    H     0.15135   0.22349   0.80787   0.00000  Uiso   1.00
H78    H     0.07299   0.23085   0.70266   0.00000  Uiso   1.00
H79    H     0.27407   0.35112   0.71161   0.00000  Uiso   1.00
H80    H     0.09279   0.11183   0.03457   0.00000  Uiso   1.00
H81    H     0.00858   0.20229   0.54616   0.00000  Uiso   1.00
H82    H     0.43257   0.45588   0.56508   0.00000  Uiso   1.00
H83    H     0.05031   0.95128   0.24611   0.00000  Uiso   1.00
O84    O     0.03419   0.08079   0.34005   0.00000  Uiso   1.00
O85    O     0.59044   0.41348   0.36490   0.00000  Uiso   1.00
O86    O     0.08893   0.75146   0.25839   0.00000  Uiso   1.00
N87    N     0.13252   0.01583   0.35978   0.00000  Uiso   1.00
N88    N     0.52892   0.25293   0.37746   0.00000  Uiso   1.00
N89    N     0.17156   0.78118   0.01417   0.00000  Uiso   1.00
N90    N     0.05286   0.14632   0.50111   0.00000  Uiso   1.00
N91    N     0.44926   0.38342   0.51879   0.00000  Uiso   1.00
N92    N     0.09190   0.91167   0.15550   0.00000  Uiso   1.00
C93    C     0.28464   0.49487   0.07138   0.00000  Uiso   1.00
C94    C     0.22324   0.46004   0.04762   0.00000  Uiso   1.00
C95    C     0.21600   0.50344   0.94890   0.00000  Uiso   1.00
C96    C     0.15600   0.46048   0.94364   0.00000  Uiso   1.00
C97    C     0.06843   0.41905   0.89296   0.00000  Uiso   1.00
C98    C     0.33249   0.39469   0.05247   0.00000  Uiso   1.00
C99    C     0.41711   0.38314   0.95785   0.00000  Uiso   1.00
C100   C     0.44908   0.28517   0.95669   0.00000  Uiso   1.00
C101   C     0.53113   0.14230   0.91362   0.00000  Uiso   1.00
C102   C     0.23399   0.52471   0.22794   0.00000  Uiso   1.00
C103   C     0.23581   0.62247   0.28086   0.00000  Uiso   1.00
C104   C     0.18486   0.63396   0.42744   0.00000  Uiso   1.00
C105   C     0.11398   0.69296   0.65681   0.00000  Uiso   1.00
C106   C     0.19096   0.34141   0.23759   0.00000  Uiso   1.00
C107   C     0.17236   0.37669   0.13790   0.00000  Uiso   1.00
C108   C     0.11235   0.33366   0.13279   0.00000  Uiso   1.00
C109   C     0.10502   0.37698   0.03408   0.00000  Uiso   1.00
C110   C     0.28162   0.31134   0.14274   0.00000  Uiso   1.00
C111   C     0.31347   0.21336   0.14173   0.00000  Uiso   1.00
C112   C     0.39810   0.20166   0.04712   0.00000  Uiso   1.00
C113   C     0.18311   0.44136   0.31822   0.00000  Uiso   1.00
C114   C     0.13216   0.45269   0.46475   0.00000  Uiso   1.00
C115   C     0.13389   0.55046   0.51788   0.00000  Uiso   1.00
H116   H     0.32426   0.55976   0.00110   0.00000  Uiso   1.00
H117   H     0.25539   0.56794   0.87905   0.00000  Uiso   1.00
H118   H     0.45647   0.44766   0.88801   0.00000  Uiso   1.00
H119   H     0.27519   0.68696   0.21097   0.00000  Uiso   1.00
H120   H     0.15662   0.54022   0.78351   0.00000  Uiso   1.00
H121   H     0.58060   0.28663   0.80244   0.00000  Uiso   1.00
H122   H     0.19835   0.79123   0.48347   0.00000  Uiso   1.00
H123   H     0.15135   0.27651   0.30787   0.00000  Uiso   1.00
H124   H     0.07299   0.26915   0.20266   0.00000  Uiso   1.00
H125   H     0.27407   0.14888   0.21161   0.00000  Uiso   1.00
H126   H     0.09279   0.38817   0.53457   0.00000  Uiso   1.00
H127   H     0.00858   0.29771   0.04616   0.00000  Uiso   1.00
H128   H     0.43257   0.04412   0.06508   0.00000  Uiso   1.00
H129   H     0.05031   0.54872   0.74611   0.00000  Uiso   1.00
O130   O     0.03419   0.41921   0.84005   0.00000  Uiso   1.00
O131   O     0.59044   0.08652   0.86490   0.00000  Uiso   1.00
O132   O     0.08893   0.74854   0.75839   0.00000  Uiso   1.00
N133   N     0.13252   0.48417   0.85978   0.00000  Uiso   1.00
N134   N     0.52892   0.24707   0.87746   0.00000  Uiso   1.00
N135   N     0.17156   0.71882   0.51417   0.00000  Uiso   1.00
N136   N     0.05286   0.35368   0.00111   0.00000  Uiso   1.00
N137   N     0.44926   0.11658   0.01879   0.00000  Uiso   1.00
N138   N     0.09190   0.58833   0.65550   0.00000  Uiso   1.00
C139   C     0.71536   0.99487   0.42862   0.00000  Uiso   1.00
C140   C     0.77676   0.96004   0.45238   0.00000  Uiso   1.00
C141   C     0.78400   0.00344   0.55110   0.00000  Uiso   1.00
C142   C     0.84400   0.96048   0.55636   0.00000  Uiso   1.00
C143   C     0.93157   0.91905   0.60704   0.00000  Uiso   1.00
C144   C     0.66751   0.89469   0.44753   0.00000  Uiso   1.00
C145   C     0.58289   0.88314   0.54215   0.00000  Uiso   1.00
C146   C     0.55092   0.78517   0.54331   0.00000  Uiso   1.00
C147   C     0.46887   0.64230   0.58638   0.00000  Uiso   1.00
C148   C     0.76601   0.02471   0.27206   0.00000  Uiso   1.00
C149   C     0.76419   0.12247   0.21914   0.00000  Uiso   1.00
C150   C     0.81514   0.13396   0.07256   0.00000  Uiso   1.00
C151   C     0.88602   0.19296   0.84319   0.00000  Uiso   1.00
C152   C     0.80904   0.84141   0.26241   0.00000  Uiso   1.00
C153   C     0.82764   0.87669   0.36210   0.00000  Uiso   1.00
C154   C     0.88765   0.83366   0.36721   0.00000  Uiso   1.00
C155   C     0.89498   0.87698   0.46592   0.00000  Uiso   1.00
C156   C     0.71838   0.81134   0.35726   0.00000  Uiso   1.00
C157   C     0.68653   0.71336   0.35827   0.00000  Uiso   1.00
C158   C     0.60190   0.70166   0.45288   0.00000  Uiso   1.00
C159   C     0.81689   0.94136   0.18178   0.00000  Uiso   1.00
C160   C     0.86784   0.95269   0.03525   0.00000  Uiso   1.00
C161   C     0.86611   0.05046   0.98212   0.00000  Uiso   1.00
H162   H     0.67574   0.05976   0.49890   0.00000  Uiso   1.00
H163   H     0.74461   0.06794   0.62095   0.00000  Uiso   1.00
H164   H     0.54353   0.94766   0.61199   0.00000  Uiso   1.00
H165   H     0.72481   0.18696   0.28903   0.00000  Uiso   1.00
H166   H     0.84338   0.04022   0.71649   0.00000  Uiso   1.00
H167   H     0.41940   0.78663   0.69756   0.00000  Uiso   1.00
H168   H     0.80165   0.29123   0.01653   0.00000  Uiso   1.00
H169   H     0.84865   0.77651   0.19213   0.00000  Uiso   1.00
H170   H     0.92701   0.76915   0.29734   0.00000  Uiso   1.00
H171   H     0.72593   0.64888   0.28839   0.00000  Uiso   1.00
H172   H     0.90721   0.88817   0.96543   0.00000  Uiso   1.00
H173   H     0.99142   0.79771   0.45384   0.00000  Uiso   1.00
H174   H     0.56743   0.54412   0.43492   0.00000  Uiso   1.00
H175   H     0.94969   0.04872   0.75389   0.00000  Uiso   1.00
O176   O     0.96581   0.91921   0.65995   0.00000  Uiso   1.00
O177   O     0.40956   0.58652   0.63510   0.00000  Uiso   1.00
O178   O     0.91107   0.24854   0.74161   0.00000  Uiso   1.00
N179   N     0.86748   0.98417   0.64022   0.00000  Uiso   1.00
N180   N     0.47108   0.74707   0.62254   0.00000  Uiso   1.00
N181   N     0.82844   0.21882   0.98583   0.00000  Uiso   1.00
N182   N     0.94714   0.85368   0.49889   0.00000  Uiso   1.00
N183   N     0.55074   0.61658   0.48121   0.00000  Uiso   1.00
N184   N     0.90810   0.08833   0.84450   0.00000  Uiso   1.00
