data_job_03386
_audit_creation_date              2018-12-19
_audit_creation_method            'Materials Studio'
_symmetry_space_group_name_H-M    'P1'
_symmetry_Int_Tables_number       1
_symmetry_cell_setting            triclinic
loop_
_symmetry_equiv_pos_as_xyz
  x,y,z
_cell_length_a                    63.1389
_cell_length_b                    63.1389
_cell_length_c                    6.9657
_cell_angle_alpha                 90.0000
_cell_angle_beta                  90.0000
_cell_angle_gamma                 120.0000
loop_
_atom_site_label
_atom_site_type_symbol
_atom_site_fract_x
_atom_site_fract_y
_atom_site_fract_z
_atom_site_U_iso_or_equiv
_atom_site_adp_type
_atom_site_occupancy
C1     C     0.54501   0.87635   0.29877   0.00000  Uiso   1.00
C2     C     0.52281   0.87628   0.38582   0.00000  Uiso   1.00
C3     C     0.50149   0.87086   0.28880   0.00000  Uiso   1.00
C4     C     0.48330   0.87180   0.39398   0.00000  Uiso   1.00
C5     C     0.44837   0.87076   0.49944   0.00000  Uiso   1.00
C6     C     0.56674   0.90177   0.33669   0.00000  Uiso   1.00
C7     C     0.58235   0.91779   0.19835   0.00000  Uiso   1.00
C8     C     0.60113   0.94019   0.26219   0.00000  Uiso   1.00
C9     C     0.63441   0.97873   0.29138   0.00000  Uiso   1.00
C10    C     0.54934   0.85876   0.42006   0.00000  Uiso   1.00
C11    C     0.55032   0.83862   0.35181   0.00000  Uiso   1.00
C12    C     0.55447   0.82482   0.48584   0.00000  Uiso   1.00
C13    C     0.56072   0.79657   0.64447   0.00000  Uiso   1.00
C14    C     0.55063   0.88765   0.65813   0.00000  Uiso   1.00
C15    C     0.52586   0.88241   0.58101   0.00000  Uiso   1.00
C16    C     0.50770   0.88336   0.68638   0.00000  Uiso   1.00
C17    C     0.48635   0.87795   0.58952   0.00000  Uiso   1.00
C18    C     0.56979   0.90791   0.53187   0.00000  Uiso   1.00
C19    C     0.58856   0.93029   0.59594   0.00000  Uiso   1.00
C20    C     0.60419   0.94634   0.45773   0.00000  Uiso   1.00
C21    C     0.55238   0.86490   0.61525   0.00000  Uiso   1.00
C22    C     0.55653   0.85112   0.74940   0.00000  Uiso   1.00
C23    C     0.55752   0.83097   0.68138   0.00000  Uiso   1.00
H24    H     0.54264   0.87158   0.14681   0.00000  Uiso   1.00
H25    H     0.49914   0.86611   0.13773   0.00000  Uiso   1.00
H26    H     0.57998   0.91304   0.04732   0.00000  Uiso   1.00
H27    H     0.54796   0.83388   0.20076   0.00000  Uiso   1.00
H28    H     0.45226   0.86277   0.21374   0.00000  Uiso   1.00
H29    H     0.62273   0.96171   0.02309   0.00000  Uiso   1.00
H30    H     0.55521   0.79479   0.34665   0.00000  Uiso   1.00
H31    H     0.55300   0.89243   0.81010   0.00000  Uiso   1.00
H32    H     0.51006   0.88811   0.83743   0.00000  Uiso   1.00
H33    H     0.59091   0.93504   0.74700   0.00000  Uiso   1.00
H34    H     0.55889   0.85588   0.90044   0.00000  Uiso   1.00
H35    H     0.46112   0.88063   0.78163   0.00000  Uiso   1.00
H36    H     0.63160   0.97956   0.59097   0.00000  Uiso   1.00
H37    H     0.56407   0.81265   0.91454   0.00000  Uiso   1.00
O38    O     0.42826   0.86849   0.50367   0.00000  Uiso   1.00
O39    O     0.65192   0.99829   0.25355   0.00000  Uiso   1.00
O40    O     0.56333   0.77929   0.67805   0.00000  Uiso   1.00
N41    N     0.46023   0.86756   0.34365   0.00000  Uiso   1.00
N42    N     0.61961   0.96006   0.16540   0.00000  Uiso   1.00
N43    N     0.55649   0.80401   0.46789   0.00000  Uiso   1.00
N44    N     0.46501   0.87717   0.64923   0.00000  Uiso   1.00
N45    N     0.62438   0.96967   0.47097   0.00000  Uiso   1.00
N46    N     0.56126   0.81362   0.77347   0.00000  Uiso   1.00
C47    C     0.12365   0.66866   0.96544   0.00000  Uiso   1.00
C48    C     0.12372   0.64654   0.05249   0.00000  Uiso   1.00
C49    C     0.12914   0.63063   0.95546   0.00000  Uiso   1.00
C50    C     0.12820   0.61150   0.06065   0.00000  Uiso   1.00
C51    C     0.12924   0.57761   0.16610   0.00000  Uiso   1.00
C52    C     0.09823   0.66496   0.00336   0.00000  Uiso   1.00
C53    C     0.08221   0.66455   0.86502   0.00000  Uiso   1.00
C54    C     0.05981   0.66094   0.92886   0.00000  Uiso   1.00
C55    C     0.02127   0.65568   0.95805   0.00000  Uiso   1.00
C56    C     0.14124   0.69057   0.08673   0.00000  Uiso   1.00
C57    C     0.16138   0.71170   0.01848   0.00000  Uiso   1.00
C58    C     0.17518   0.72965   0.15251   0.00000  Uiso   1.00
C59    C     0.20343   0.76415   0.31113   0.00000  Uiso   1.00
C60    C     0.11235   0.66297   0.32480   0.00000  Uiso   1.00
C61    C     0.11759   0.64345   0.24768   0.00000  Uiso   1.00
C62    C     0.11664   0.62434   0.35305   0.00000  Uiso   1.00
C63    C     0.12205   0.60840   0.25619   0.00000  Uiso   1.00
C64    C     0.09209   0.66188   0.19854   0.00000  Uiso   1.00
C65    C     0.06971   0.65826   0.26260   0.00000  Uiso   1.00
C66    C     0.05366   0.65784   0.12440   0.00000  Uiso   1.00
C67    C     0.13510   0.68748   0.28192   0.00000  Uiso   1.00
C68    C     0.14888   0.70541   0.41607   0.00000  Uiso   1.00
C69    C     0.16903   0.72655   0.34805   0.00000  Uiso   1.00
H70    H     0.12842   0.67106   0.81348   0.00000  Uiso   1.00
H71    H     0.13389   0.63303   0.80440   0.00000  Uiso   1.00
H72    H     0.08696   0.66695   0.71398   0.00000  Uiso   1.00
H73    H     0.16612   0.71408   0.86743   0.00000  Uiso   1.00
H74    H     0.13723   0.58949   0.88040   0.00000  Uiso   1.00
H75    H     0.03829   0.66102   0.68975   0.00000  Uiso   1.00
H76    H     0.20521   0.76042   0.01331   0.00000  Uiso   1.00
H77    H     0.10757   0.66057   0.47676   0.00000  Uiso   1.00
H78    H     0.11189   0.62195   0.50409   0.00000  Uiso   1.00
H79    H     0.06496   0.65587   0.41366   0.00000  Uiso   1.00
H80    H     0.14412   0.70301   0.56711   0.00000  Uiso   1.00
H81    H     0.11937   0.58050   0.44829   0.00000  Uiso   1.00
H82    H     0.02044   0.65203   0.25764   0.00000  Uiso   1.00
H83    H     0.18735   0.75143   0.58120   0.00000  Uiso   1.00
O84    O     0.13151   0.55977   0.17034   0.00000  Uiso   1.00
O85    O     0.00171   0.65363   0.92021   0.00000  Uiso   1.00
O86    O     0.22071   0.78404   0.34472   0.00000  Uiso   1.00
N87    N     0.13244   0.59267   0.01032   0.00000  Uiso   1.00
N88    N     0.03994   0.65955   0.83206   0.00000  Uiso   1.00
N89    N     0.19599   0.75248   0.13456   0.00000  Uiso   1.00
N90    N     0.12283   0.58784   0.31589   0.00000  Uiso   1.00
N91    N     0.03033   0.65471   0.13764   0.00000  Uiso   1.00
N92    N     0.18638   0.74764   0.44013   0.00000  Uiso   1.00
C93    C     0.33134   0.45499   0.63211   0.00000  Uiso   1.00
C94    C     0.35346   0.47719   0.71916   0.00000  Uiso   1.00
C95    C     0.36937   0.49851   0.62213   0.00000  Uiso   1.00
C96    C     0.38850   0.51670   0.72732   0.00000  Uiso   1.00
C97    C     0.42239   0.55163   0.83277   0.00000  Uiso   1.00
C98    C     0.33504   0.43326   0.67003   0.00000  Uiso   1.00
C99    C     0.33545   0.41765   0.53169   0.00000  Uiso   1.00
C100   C     0.33906   0.39887   0.59553   0.00000  Uiso   1.00
C101   C     0.34432   0.36559   0.62471   0.00000  Uiso   1.00
C102   C     0.30943   0.45066   0.75339   0.00000  Uiso   1.00
C103   C     0.28830   0.44968   0.68515   0.00000  Uiso   1.00
C104   C     0.27035   0.44553   0.81918   0.00000  Uiso   1.00
C105   C     0.23585   0.43928   0.97780   0.00000  Uiso   1.00
C106   C     0.33703   0.44937   0.99146   0.00000  Uiso   1.00
C107   C     0.35655   0.47414   0.91435   0.00000  Uiso   1.00
C108   C     0.37566   0.49230   0.01971   0.00000  Uiso   1.00
C109   C     0.39160   0.51365   0.92286   0.00000  Uiso   1.00
C110   C     0.33812   0.43021   0.86521   0.00000  Uiso   1.00
C111   C     0.34174   0.41144   0.92927   0.00000  Uiso   1.00
C112   C     0.34216   0.39581   0.79106   0.00000  Uiso   1.00
C113   C     0.31252   0.44762   0.94858   0.00000  Uiso   1.00
C114   C     0.29459   0.44347   0.08274   0.00000  Uiso   1.00
C115   C     0.27345   0.44248   0.01471   0.00000  Uiso   1.00
H116   H     0.32894   0.45736   0.48015   0.00000  Uiso   1.00
H117   H     0.36697   0.50086   0.47107   0.00000  Uiso   1.00
H118   H     0.33305   0.42002   0.38065   0.00000  Uiso   1.00
H119   H     0.28592   0.45204   0.53409   0.00000  Uiso   1.00
H120   H     0.41051   0.54774   0.54707   0.00000  Uiso   1.00
H121   H     0.33898   0.37727   0.35642   0.00000  Uiso   1.00
H122   H     0.23958   0.44479   0.67998   0.00000  Uiso   1.00
H123   H     0.33943   0.44700   0.14343   0.00000  Uiso   1.00
H124   H     0.37805   0.48994   0.17076   0.00000  Uiso   1.00
H125   H     0.34413   0.40909   0.08033   0.00000  Uiso   1.00
H126   H     0.29699   0.44111   0.23377   0.00000  Uiso   1.00
H127   H     0.41950   0.53888   0.11496   0.00000  Uiso   1.00
H128   H     0.34797   0.36840   0.92431   0.00000  Uiso   1.00
H129   H     0.24857   0.43593   0.24787   0.00000  Uiso   1.00
O130   O     0.44023   0.57174   0.83701   0.00000  Uiso   1.00
O131   O     0.34637   0.34808   0.58688   0.00000  Uiso   1.00
O132   O     0.21596   0.43667   0.01138   0.00000  Uiso   1.00
N133   N     0.40733   0.53977   0.67698   0.00000  Uiso   1.00
N134   N     0.34045   0.38039   0.49873   0.00000  Uiso   1.00
N135   N     0.24752   0.44351   0.80122   0.00000  Uiso   1.00
N136   N     0.41216   0.53499   0.98256   0.00000  Uiso   1.00
N137   N     0.34529   0.37562   0.80431   0.00000  Uiso   1.00
N138   N     0.25236   0.43874   0.10680   0.00000  Uiso   1.00
C139   C     0.45499   0.12365   0.79877   0.00000  Uiso   1.00
C140   C     0.47719   0.12372   0.88582   0.00000  Uiso   1.00
C141   C     0.49851   0.12914   0.78880   0.00000  Uiso   1.00
C142   C     0.51670   0.12820   0.89398   0.00000  Uiso   1.00
C143   C     0.55163   0.12924   0.99944   0.00000  Uiso   1.00
C144   C     0.43326   0.09823   0.83669   0.00000  Uiso   1.00
C145   C     0.41765   0.08221   0.69835   0.00000  Uiso   1.00
C146   C     0.39887   0.05981   0.76219   0.00000  Uiso   1.00
C147   C     0.36559   0.02127   0.79138   0.00000  Uiso   1.00
C148   C     0.45066   0.14124   0.92006   0.00000  Uiso   1.00
C149   C     0.44968   0.16138   0.85181   0.00000  Uiso   1.00
C150   C     0.44553   0.17518   0.98584   0.00000  Uiso   1.00
C151   C     0.43928   0.20343   0.14447   0.00000  Uiso   1.00
C152   C     0.44937   0.11235   0.15813   0.00000  Uiso   1.00
C153   C     0.47414   0.11759   0.08101   0.00000  Uiso   1.00
C154   C     0.49230   0.11664   0.18638   0.00000  Uiso   1.00
C155   C     0.51365   0.12205   0.08952   0.00000  Uiso   1.00
C156   C     0.43021   0.09209   0.03187   0.00000  Uiso   1.00
C157   C     0.41144   0.06971   0.09594   0.00000  Uiso   1.00
C158   C     0.39581   0.05366   0.95773   0.00000  Uiso   1.00
C159   C     0.44762   0.13510   0.11525   0.00000  Uiso   1.00
C160   C     0.44347   0.14888   0.24940   0.00000  Uiso   1.00
C161   C     0.44248   0.16903   0.18138   0.00000  Uiso   1.00
H162   H     0.45736   0.12842   0.64681   0.00000  Uiso   1.00
H163   H     0.50086   0.13389   0.63773   0.00000  Uiso   1.00
H164   H     0.42002   0.08696   0.54732   0.00000  Uiso   1.00
H165   H     0.45204   0.16612   0.70076   0.00000  Uiso   1.00
H166   H     0.54774   0.13723   0.71374   0.00000  Uiso   1.00
H167   H     0.37727   0.03829   0.52309   0.00000  Uiso   1.00
H168   H     0.44479   0.20521   0.84665   0.00000  Uiso   1.00
H169   H     0.44700   0.10757   0.31010   0.00000  Uiso   1.00
H170   H     0.48994   0.11189   0.33743   0.00000  Uiso   1.00
H171   H     0.40909   0.06496   0.24700   0.00000  Uiso   1.00
H172   H     0.44111   0.14412   0.40044   0.00000  Uiso   1.00
H173   H     0.53888   0.11937   0.28163   0.00000  Uiso   1.00
H174   H     0.36840   0.02044   0.09097   0.00000  Uiso   1.00
H175   H     0.43593   0.18735   0.41454   0.00000  Uiso   1.00
O176   O     0.57174   0.13151   0.00367   0.00000  Uiso   1.00
O177   O     0.34808   0.00171   0.75355   0.00000  Uiso   1.00
O178   O     0.43667   0.22071   0.17805   0.00000  Uiso   1.00
N179   N     0.53977   0.13244   0.84365   0.00000  Uiso   1.00
N180   N     0.38039   0.03994   0.66540   0.00000  Uiso   1.00
N181   N     0.44351   0.19599   0.96789   0.00000  Uiso   1.00
N182   N     0.53499   0.12283   0.14923   0.00000  Uiso   1.00
N183   N     0.37562   0.03033   0.97097   0.00000  Uiso   1.00
N184   N     0.43874   0.18638   0.27347   0.00000  Uiso   1.00
C185   C     0.87635   0.33134   0.46544   0.00000  Uiso   1.00
C186   C     0.87628   0.35346   0.55249   0.00000  Uiso   1.00
C187   C     0.87086   0.36937   0.45546   0.00000  Uiso   1.00
C188   C     0.87180   0.38850   0.56065   0.00000  Uiso   1.00
C189   C     0.87076   0.42239   0.66610   0.00000  Uiso   1.00
C190   C     0.90177   0.33504   0.50336   0.00000  Uiso   1.00
C191   C     0.91779   0.33545   0.36502   0.00000  Uiso   1.00
C192   C     0.94019   0.33906   0.42886   0.00000  Uiso   1.00
C193   C     0.97873   0.34432   0.45805   0.00000  Uiso   1.00
C194   C     0.85876   0.30943   0.58673   0.00000  Uiso   1.00
C195   C     0.83862   0.28830   0.51848   0.00000  Uiso   1.00
C196   C     0.82482   0.27035   0.65251   0.00000  Uiso   1.00
C197   C     0.79657   0.23585   0.81113   0.00000  Uiso   1.00
C198   C     0.88765   0.33703   0.82480   0.00000  Uiso   1.00
C199   C     0.88241   0.35655   0.74768   0.00000  Uiso   1.00
C200   C     0.88336   0.37566   0.85305   0.00000  Uiso   1.00
C201   C     0.87795   0.39160   0.75619   0.00000  Uiso   1.00
C202   C     0.90791   0.33812   0.69854   0.00000  Uiso   1.00
C203   C     0.93029   0.34174   0.76260   0.00000  Uiso   1.00
C204   C     0.94634   0.34216   0.62440   0.00000  Uiso   1.00
C205   C     0.86490   0.31252   0.78192   0.00000  Uiso   1.00
C206   C     0.85112   0.29459   0.91607   0.00000  Uiso   1.00
C207   C     0.83097   0.27345   0.84805   0.00000  Uiso   1.00
H208   H     0.87158   0.32894   0.31348   0.00000  Uiso   1.00
H209   H     0.86611   0.36697   0.30440   0.00000  Uiso   1.00
H210   H     0.91304   0.33305   0.21398   0.00000  Uiso   1.00
H211   H     0.83388   0.28592   0.36743   0.00000  Uiso   1.00
H212   H     0.86277   0.41051   0.38040   0.00000  Uiso   1.00
H213   H     0.96171   0.33898   0.18975   0.00000  Uiso   1.00
H214   H     0.79479   0.23958   0.51331   0.00000  Uiso   1.00
H215   H     0.89243   0.33943   0.97676   0.00000  Uiso   1.00
H216   H     0.88811   0.37805   0.00409   0.00000  Uiso   1.00
H217   H     0.93504   0.34413   0.91366   0.00000  Uiso   1.00
H218   H     0.85588   0.29699   0.06711   0.00000  Uiso   1.00
H219   H     0.88063   0.41950   0.94829   0.00000  Uiso   1.00
H220   H     0.97956   0.34797   0.75764   0.00000  Uiso   1.00
H221   H     0.81265   0.24857   0.08120   0.00000  Uiso   1.00
O222   O     0.86849   0.44023   0.67034   0.00000  Uiso   1.00
O223   O     0.99829   0.34637   0.42021   0.00000  Uiso   1.00
O224   O     0.77929   0.21596   0.84472   0.00000  Uiso   1.00
N225   N     0.86756   0.40733   0.51032   0.00000  Uiso   1.00
N226   N     0.96006   0.34045   0.33206   0.00000  Uiso   1.00
N227   N     0.80401   0.24752   0.63456   0.00000  Uiso   1.00
N228   N     0.87717   0.41216   0.81589   0.00000  Uiso   1.00
N229   N     0.96967   0.34529   0.63764   0.00000  Uiso   1.00
N230   N     0.81362   0.25236   0.94013   0.00000  Uiso   1.00
C231   C     0.66866   0.54501   0.13211   0.00000  Uiso   1.00
C232   C     0.64654   0.52281   0.21916   0.00000  Uiso   1.00
C233   C     0.63063   0.50149   0.12213   0.00000  Uiso   1.00
C234   C     0.61150   0.48330   0.22732   0.00000  Uiso   1.00
C235   C     0.57761   0.44837   0.33277   0.00000  Uiso   1.00
C236   C     0.66496   0.56674   0.17003   0.00000  Uiso   1.00
C237   C     0.66455   0.58235   0.03169   0.00000  Uiso   1.00
C238   C     0.66094   0.60113   0.09553   0.00000  Uiso   1.00
C239   C     0.65568   0.63441   0.12471   0.00000  Uiso   1.00
C240   C     0.69057   0.54934   0.25339   0.00000  Uiso   1.00
C241   C     0.71170   0.55032   0.18515   0.00000  Uiso   1.00
C242   C     0.72965   0.55447   0.31918   0.00000  Uiso   1.00
C243   C     0.76415   0.56072   0.47780   0.00000  Uiso   1.00
C244   C     0.66297   0.55063   0.49146   0.00000  Uiso   1.00
C245   C     0.64345   0.52586   0.41435   0.00000  Uiso   1.00
C246   C     0.62434   0.50770   0.51971   0.00000  Uiso   1.00
C247   C     0.60840   0.48635   0.42286   0.00000  Uiso   1.00
C248   C     0.66188   0.56979   0.36521   0.00000  Uiso   1.00
C249   C     0.65826   0.58856   0.42927   0.00000  Uiso   1.00
C250   C     0.65784   0.60419   0.29106   0.00000  Uiso   1.00
C251   C     0.68748   0.55238   0.44858   0.00000  Uiso   1.00
C252   C     0.70541   0.55653   0.58274   0.00000  Uiso   1.00
C253   C     0.72655   0.55752   0.51471   0.00000  Uiso   1.00
H254   H     0.67106   0.54264   0.98015   0.00000  Uiso   1.00
H255   H     0.63303   0.49914   0.97107   0.00000  Uiso   1.00
H256   H     0.66695   0.57998   0.88065   0.00000  Uiso   1.00
H257   H     0.71408   0.54796   0.03409   0.00000  Uiso   1.00
H258   H     0.58949   0.45226   0.04707   0.00000  Uiso   1.00
H259   H     0.66102   0.62273   0.85642   0.00000  Uiso   1.00
H260   H     0.76042   0.55521   0.17998   0.00000  Uiso   1.00
H261   H     0.66057   0.55300   0.64343   0.00000  Uiso   1.00
H262   H     0.62195   0.51006   0.67076   0.00000  Uiso   1.00
H263   H     0.65587   0.59091   0.58033   0.00000  Uiso   1.00
H264   H     0.70301   0.55889   0.73377   0.00000  Uiso   1.00
H265   H     0.58050   0.46112   0.61496   0.00000  Uiso   1.00
H266   H     0.65203   0.63160   0.42431   0.00000  Uiso   1.00
H267   H     0.75143   0.56407   0.74787   0.00000  Uiso   1.00
O268   O     0.55977   0.42826   0.33701   0.00000  Uiso   1.00
O269   O     0.65363   0.65192   0.08688   0.00000  Uiso   1.00
O270   O     0.78404   0.56333   0.51138   0.00000  Uiso   1.00
N271   N     0.59267   0.46023   0.17698   0.00000  Uiso   1.00
N272   N     0.65955   0.61961   0.99873   0.00000  Uiso   1.00
N273   N     0.75248   0.55649   0.30122   0.00000  Uiso   1.00
N274   N     0.58784   0.46501   0.48256   0.00000  Uiso   1.00
N275   N     0.65471   0.62438   0.30431   0.00000  Uiso   1.00
N276   N     0.74764   0.56126   0.60680   0.00000  Uiso   1.00
C277   C     0.87635   0.54501   0.36789   0.00000  Uiso   1.00
C278   C     0.87628   0.52281   0.28084   0.00000  Uiso   1.00
C279   C     0.87086   0.50149   0.37787   0.00000  Uiso   1.00
C280   C     0.87180   0.48330   0.27268   0.00000  Uiso   1.00
C281   C     0.87076   0.44837   0.16723   0.00000  Uiso   1.00
C282   C     0.90177   0.56674   0.32997   0.00000  Uiso   1.00
C283   C     0.91779   0.58235   0.46831   0.00000  Uiso   1.00
C284   C     0.94019   0.60113   0.40447   0.00000  Uiso   1.00
C285   C     0.97873   0.63441   0.37529   0.00000  Uiso   1.00
C286   C     0.85876   0.54934   0.24661   0.00000  Uiso   1.00
C287   C     0.83862   0.55032   0.31485   0.00000  Uiso   1.00
C288   C     0.82482   0.55447   0.18082   0.00000  Uiso   1.00
C289   C     0.79657   0.56072   0.02220   0.00000  Uiso   1.00
C290   C     0.88765   0.55063   0.00854   0.00000  Uiso   1.00
C291   C     0.88241   0.52586   0.08565   0.00000  Uiso   1.00
C292   C     0.88336   0.50770   0.98029   0.00000  Uiso   1.00
C293   C     0.87795   0.48635   0.07714   0.00000  Uiso   1.00
C294   C     0.90791   0.56979   0.13479   0.00000  Uiso   1.00
C295   C     0.93029   0.58856   0.07073   0.00000  Uiso   1.00
C296   C     0.94634   0.60419   0.20894   0.00000  Uiso   1.00
C297   C     0.86490   0.55238   0.05142   0.00000  Uiso   1.00
C298   C     0.85112   0.55653   0.91726   0.00000  Uiso   1.00
C299   C     0.83097   0.55752   0.98529   0.00000  Uiso   1.00
H300   H     0.87158   0.54264   0.51985   0.00000  Uiso   1.00
H301   H     0.86611   0.49914   0.52893   0.00000  Uiso   1.00
H302   H     0.91304   0.57998   0.61935   0.00000  Uiso   1.00
H303   H     0.83388   0.54796   0.46591   0.00000  Uiso   1.00
H304   H     0.86277   0.45226   0.45293   0.00000  Uiso   1.00
H305   H     0.96171   0.62273   0.64358   0.00000  Uiso   1.00
H306   H     0.79479   0.55521   0.32002   0.00000  Uiso   1.00
H307   H     0.89243   0.55300   0.85657   0.00000  Uiso   1.00
H308   H     0.88811   0.51006   0.82924   0.00000  Uiso   1.00
H309   H     0.93504   0.59091   0.91967   0.00000  Uiso   1.00
H310   H     0.85588   0.55889   0.76623   0.00000  Uiso   1.00
H311   H     0.88063   0.46112   0.88504   0.00000  Uiso   1.00
H312   H     0.97956   0.63160   0.07569   0.00000  Uiso   1.00
H313   H     0.81265   0.56407   0.75213   0.00000  Uiso   1.00
O314   O     0.86849   0.42826   0.16299   0.00000  Uiso   1.00
O315   O     0.99829   0.65192   0.41312   0.00000  Uiso   1.00
O316   O     0.77929   0.56333   0.98862   0.00000  Uiso   1.00
N317   N     0.86756   0.46023   0.32302   0.00000  Uiso   1.00
N318   N     0.96006   0.61961   0.50127   0.00000  Uiso   1.00
N319   N     0.80401   0.55649   0.19878   0.00000  Uiso   1.00
N320   N     0.87717   0.46501   0.01744   0.00000  Uiso   1.00
N321   N     0.96967   0.62438   0.19569   0.00000  Uiso   1.00
N322   N     0.81362   0.56126   0.89320   0.00000  Uiso   1.00
C323   C     0.66866   0.12365   0.70123   0.00000  Uiso   1.00
C324   C     0.64654   0.12372   0.61418   0.00000  Uiso   1.00
C325   C     0.63063   0.12914   0.71120   0.00000  Uiso   1.00
C326   C     0.61150   0.12820   0.60602   0.00000  Uiso   1.00
C327   C     0.57761   0.12924   0.50056   0.00000  Uiso   1.00
C328   C     0.66496   0.09823   0.66331   0.00000  Uiso   1.00
C329   C     0.66455   0.08221   0.80165   0.00000  Uiso   1.00
C330   C     0.66094   0.05981   0.73781   0.00000  Uiso   1.00
C331   C     0.65568   0.02127   0.70862   0.00000  Uiso   1.00
C332   C     0.69057   0.14124   0.57994   0.00000  Uiso   1.00
C333   C     0.71170   0.16138   0.64819   0.00000  Uiso   1.00
C334   C     0.72965   0.17518   0.51416   0.00000  Uiso   1.00
C335   C     0.76415   0.20343   0.35553   0.00000  Uiso   1.00
C336   C     0.66297   0.11235   0.34187   0.00000  Uiso   1.00
C337   C     0.64345   0.11759   0.41899   0.00000  Uiso   1.00
C338   C     0.62434   0.11664   0.31362   0.00000  Uiso   1.00
C339   C     0.60840   0.12205   0.41048   0.00000  Uiso   1.00
C340   C     0.66188   0.09209   0.46813   0.00000  Uiso   1.00
C341   C     0.65826   0.06971   0.40406   0.00000  Uiso   1.00
C342   C     0.65784   0.05366   0.54227   0.00000  Uiso   1.00
C343   C     0.68748   0.13510   0.38475   0.00000  Uiso   1.00
C344   C     0.70541   0.14888   0.25060   0.00000  Uiso   1.00
C345   C     0.72655   0.16903   0.31862   0.00000  Uiso   1.00
H346   H     0.67106   0.12842   0.85319   0.00000  Uiso   1.00
H347   H     0.63303   0.13389   0.86227   0.00000  Uiso   1.00
H348   H     0.66695   0.08696   0.95268   0.00000  Uiso   1.00
H349   H     0.71408   0.16612   0.79924   0.00000  Uiso   1.00
H350   H     0.58949   0.13723   0.78626   0.00000  Uiso   1.00
H351   H     0.66102   0.03829   0.97691   0.00000  Uiso   1.00
H352   H     0.76042   0.20521   0.65335   0.00000  Uiso   1.00
H353   H     0.66057   0.10757   0.18990   0.00000  Uiso   1.00
H354   H     0.62195   0.11189   0.16257   0.00000  Uiso   1.00
H355   H     0.65587   0.06496   0.25300   0.00000  Uiso   1.00
H356   H     0.70301   0.14412   0.09956   0.00000  Uiso   1.00
H357   H     0.58050   0.11937   0.21837   0.00000  Uiso   1.00
H358   H     0.65203   0.02044   0.40903   0.00000  Uiso   1.00
H359   H     0.75143   0.18735   0.08546   0.00000  Uiso   1.00
O360   O     0.55977   0.13151   0.49633   0.00000  Uiso   1.00
O361   O     0.65363   0.00171   0.74645   0.00000  Uiso   1.00
O362   O     0.78404   0.22071   0.32195   0.00000  Uiso   1.00
N363   N     0.59267   0.13244   0.65635   0.00000  Uiso   1.00
N364   N     0.65955   0.03994   0.83460   0.00000  Uiso   1.00
N365   N     0.75248   0.19599   0.53211   0.00000  Uiso   1.00
N366   N     0.58784   0.12283   0.35077   0.00000  Uiso   1.00
N367   N     0.65471   0.03033   0.52903   0.00000  Uiso   1.00
N368   N     0.74764   0.18638   0.22653   0.00000  Uiso   1.00
C369   C     0.45499   0.33134   0.03456   0.00000  Uiso   1.00
C370   C     0.47719   0.35346   0.94751   0.00000  Uiso   1.00
C371   C     0.49851   0.36937   0.04454   0.00000  Uiso   1.00
C372   C     0.51670   0.38850   0.93935   0.00000  Uiso   1.00
C373   C     0.55163   0.42239   0.83390   0.00000  Uiso   1.00
C374   C     0.43326   0.33504   0.99664   0.00000  Uiso   1.00
C375   C     0.41765   0.33545   0.13498   0.00000  Uiso   1.00
C376   C     0.39887   0.33906   0.07114   0.00000  Uiso   1.00
C377   C     0.36559   0.34432   0.04195   0.00000  Uiso   1.00
C378   C     0.45066   0.30943   0.91327   0.00000  Uiso   1.00
C379   C     0.44968   0.28830   0.98152   0.00000  Uiso   1.00
C380   C     0.44553   0.27035   0.84749   0.00000  Uiso   1.00
C381   C     0.43928   0.23585   0.68887   0.00000  Uiso   1.00
C382   C     0.44937   0.33703   0.67520   0.00000  Uiso   1.00
C383   C     0.47414   0.35655   0.75232   0.00000  Uiso   1.00
C384   C     0.49230   0.37566   0.64695   0.00000  Uiso   1.00
C385   C     0.51365   0.39160   0.74381   0.00000  Uiso   1.00
C386   C     0.43021   0.33812   0.80146   0.00000  Uiso   1.00
C387   C     0.41144   0.34174   0.73740   0.00000  Uiso   1.00
C388   C     0.39581   0.34216   0.87560   0.00000  Uiso   1.00
C389   C     0.44762   0.31252   0.71808   0.00000  Uiso   1.00
C390   C     0.44347   0.29459   0.58393   0.00000  Uiso   1.00
C391   C     0.44248   0.27345   0.65195   0.00000  Uiso   1.00
H392   H     0.45736   0.32894   0.18652   0.00000  Uiso   1.00
H393   H     0.50086   0.36697   0.19560   0.00000  Uiso   1.00
H394   H     0.42002   0.33305   0.28602   0.00000  Uiso   1.00
H395   H     0.45204   0.28592   0.13257   0.00000  Uiso   1.00
H396   H     0.54774   0.41051   0.11960   0.00000  Uiso   1.00
H397   H     0.37727   0.33898   0.31025   0.00000  Uiso   1.00
H398   H     0.44479   0.23958   0.98669   0.00000  Uiso   1.00
H399   H     0.44700   0.33943   0.52324   0.00000  Uiso   1.00
H400   H     0.48994   0.37805   0.49591   0.00000  Uiso   1.00
H401   H     0.40909   0.34413   0.58634   0.00000  Uiso   1.00
H402   H     0.44111   0.29699   0.43289   0.00000  Uiso   1.00
H403   H     0.53888   0.41950   0.55171   0.00000  Uiso   1.00
H404   H     0.36840   0.34797   0.74236   0.00000  Uiso   1.00
H405   H     0.43593   0.24857   0.41880   0.00000  Uiso   1.00
O406   O     0.57174   0.44023   0.82966   0.00000  Uiso   1.00
O407   O     0.34808   0.34637   0.07979   0.00000  Uiso   1.00
O408   O     0.43667   0.21596   0.65528   0.00000  Uiso   1.00
N409   N     0.53977   0.40733   0.98968   0.00000  Uiso   1.00
N410   N     0.38039   0.34045   0.16794   0.00000  Uiso   1.00
N411   N     0.44351   0.24752   0.86544   0.00000  Uiso   1.00
N412   N     0.53499   0.41216   0.68411   0.00000  Uiso   1.00
N413   N     0.37562   0.34529   0.86236   0.00000  Uiso   1.00
N414   N     0.43874   0.25236   0.55987   0.00000  Uiso   1.00
C415   C     0.12365   0.45499   0.86789   0.00000  Uiso   1.00
C416   C     0.12372   0.47719   0.78084   0.00000  Uiso   1.00
C417   C     0.12914   0.49851   0.87787   0.00000  Uiso   1.00
C418   C     0.12820   0.51670   0.77268   0.00000  Uiso   1.00
C419   C     0.12924   0.55163   0.66723   0.00000  Uiso   1.00
C420   C     0.09823   0.43326   0.82997   0.00000  Uiso   1.00
C421   C     0.08221   0.41765   0.96831   0.00000  Uiso   1.00
C422   C     0.05981   0.39887   0.90447   0.00000  Uiso   1.00
C423   C     0.02127   0.36559   0.87529   0.00000  Uiso   1.00
C424   C     0.14124   0.45066   0.74661   0.00000  Uiso   1.00
C425   C     0.16138   0.44968   0.81485   0.00000  Uiso   1.00
C426   C     0.17518   0.44553   0.68082   0.00000  Uiso   1.00
C427   C     0.20343   0.43928   0.52220   0.00000  Uiso   1.00
C428   C     0.11235   0.44937   0.50854   0.00000  Uiso   1.00
C429   C     0.11759   0.47414   0.58565   0.00000  Uiso   1.00
C430   C     0.11664   0.49230   0.48029   0.00000  Uiso   1.00
C431   C     0.12205   0.51365   0.57714   0.00000  Uiso   1.00
C432   C     0.09209   0.43021   0.63479   0.00000  Uiso   1.00
C433   C     0.06971   0.41144   0.57073   0.00000  Uiso   1.00
C434   C     0.05366   0.39581   0.70894   0.00000  Uiso   1.00
C435   C     0.13510   0.44762   0.55142   0.00000  Uiso   1.00
C436   C     0.14888   0.44347   0.41726   0.00000  Uiso   1.00
C437   C     0.16903   0.44248   0.48529   0.00000  Uiso   1.00
H438   H     0.12842   0.45736   0.01985   0.00000  Uiso   1.00
H439   H     0.13389   0.50086   0.02893   0.00000  Uiso   1.00
H440   H     0.08696   0.42002   0.11935   0.00000  Uiso   1.00
H441   H     0.16612   0.45204   0.96591   0.00000  Uiso   1.00
H442   H     0.13723   0.54774   0.95293   0.00000  Uiso   1.00
H443   H     0.03829   0.37727   0.14358   0.00000  Uiso   1.00
H444   H     0.20521   0.44479   0.82002   0.00000  Uiso   1.00
H445   H     0.10757   0.44700   0.35657   0.00000  Uiso   1.00
H446   H     0.11189   0.48994   0.32924   0.00000  Uiso   1.00
H447   H     0.06496   0.40909   0.41967   0.00000  Uiso   1.00
H448   H     0.14412   0.44111   0.26623   0.00000  Uiso   1.00
H449   H     0.11937   0.53888   0.38504   0.00000  Uiso   1.00
H450   H     0.02044   0.36840   0.57569   0.00000  Uiso   1.00
H451   H     0.18735   0.43593   0.25213   0.00000  Uiso   1.00
O452   O     0.13151   0.57174   0.66299   0.00000  Uiso   1.00
O453   O     0.00171   0.34808   0.91312   0.00000  Uiso   1.00
O454   O     0.22071   0.43667   0.48862   0.00000  Uiso   1.00
N455   N     0.13244   0.53977   0.82302   0.00000  Uiso   1.00
N456   N     0.03994   0.38039   0.00127   0.00000  Uiso   1.00
N457   N     0.19599   0.44351   0.69878   0.00000  Uiso   1.00
N458   N     0.12283   0.53499   0.51744   0.00000  Uiso   1.00
N459   N     0.03033   0.37562   0.69569   0.00000  Uiso   1.00
N460   N     0.18638   0.43874   0.39320   0.00000  Uiso   1.00
C461   C     0.33134   0.87635   0.20123   0.00000  Uiso   1.00
C462   C     0.35346   0.87628   0.11418   0.00000  Uiso   1.00
C463   C     0.36937   0.87086   0.21120   0.00000  Uiso   1.00
C464   C     0.38850   0.87180   0.10602   0.00000  Uiso   1.00
C465   C     0.42239   0.87076   0.00056   0.00000  Uiso   1.00
C466   C     0.33504   0.90177   0.16331   0.00000  Uiso   1.00
C467   C     0.33545   0.91779   0.30165   0.00000  Uiso   1.00
C468   C     0.33906   0.94019   0.23781   0.00000  Uiso   1.00
C469   C     0.34432   0.97873   0.20862   0.00000  Uiso   1.00
C470   C     0.30943   0.85876   0.07994   0.00000  Uiso   1.00
C471   C     0.28830   0.83862   0.14819   0.00000  Uiso   1.00
C472   C     0.27035   0.82482   0.01416   0.00000  Uiso   1.00
C473   C     0.23585   0.79657   0.85553   0.00000  Uiso   1.00
C474   C     0.33703   0.88765   0.84187   0.00000  Uiso   1.00
C475   C     0.35655   0.88241   0.91899   0.00000  Uiso   1.00
C476   C     0.37566   0.88336   0.81362   0.00000  Uiso   1.00
C477   C     0.39160   0.87795   0.91048   0.00000  Uiso   1.00
C478   C     0.33812   0.90791   0.96813   0.00000  Uiso   1.00
C479   C     0.34174   0.93029   0.90406   0.00000  Uiso   1.00
C480   C     0.34216   0.94634   0.04227   0.00000  Uiso   1.00
C481   C     0.31252   0.86490   0.88475   0.00000  Uiso   1.00
C482   C     0.29459   0.85112   0.75060   0.00000  Uiso   1.00
C483   C     0.27345   0.83097   0.81862   0.00000  Uiso   1.00
H484   H     0.32894   0.87158   0.35319   0.00000  Uiso   1.00
H485   H     0.36697   0.86611   0.36227   0.00000  Uiso   1.00
H486   H     0.33305   0.91304   0.45268   0.00000  Uiso   1.00
H487   H     0.28592   0.83388   0.29924   0.00000  Uiso   1.00
H488   H     0.41051   0.86277   0.28626   0.00000  Uiso   1.00
H489   H     0.33898   0.96171   0.47691   0.00000  Uiso   1.00
H490   H     0.23958   0.79479   0.15335   0.00000  Uiso   1.00
H491   H     0.33943   0.89243   0.68990   0.00000  Uiso   1.00
H492   H     0.37805   0.88811   0.66257   0.00000  Uiso   1.00
H493   H     0.34413   0.93504   0.75300   0.00000  Uiso   1.00
H494   H     0.29699   0.85588   0.59956   0.00000  Uiso   1.00
H495   H     0.41950   0.88063   0.71837   0.00000  Uiso   1.00
H496   H     0.34797   0.97956   0.90903   0.00000  Uiso   1.00
H497   H     0.24857   0.81265   0.58546   0.00000  Uiso   1.00
O498   O     0.44023   0.86849   0.99633   0.00000  Uiso   1.00
O499   O     0.34637   0.99829   0.24645   0.00000  Uiso   1.00
O500   O     0.21596   0.77929   0.82195   0.00000  Uiso   1.00
N501   N     0.40733   0.86756   0.15635   0.00000  Uiso   1.00
N502   N     0.34045   0.96006   0.33460   0.00000  Uiso   1.00
N503   N     0.24752   0.80401   0.03211   0.00000  Uiso   1.00
N504   N     0.41216   0.87717   0.85077   0.00000  Uiso   1.00
N505   N     0.34529   0.96967   0.02903   0.00000  Uiso   1.00
N506   N     0.25236   0.81362   0.72653   0.00000  Uiso   1.00
C507   C     0.54501   0.66866   0.53456   0.00000  Uiso   1.00
C508   C     0.52281   0.64654   0.44751   0.00000  Uiso   1.00
C509   C     0.50149   0.63063   0.54454   0.00000  Uiso   1.00
C510   C     0.48330   0.61150   0.43935   0.00000  Uiso   1.00
C511   C     0.44837   0.57761   0.33390   0.00000  Uiso   1.00
C512   C     0.56674   0.66496   0.49664   0.00000  Uiso   1.00
C513   C     0.58235   0.66455   0.63498   0.00000  Uiso   1.00
C514   C     0.60113   0.66094   0.57114   0.00000  Uiso   1.00
C515   C     0.63441   0.65568   0.54195   0.00000  Uiso   1.00
C516   C     0.54934   0.69057   0.41327   0.00000  Uiso   1.00
C517   C     0.55032   0.71170   0.48152   0.00000  Uiso   1.00
C518   C     0.55447   0.72965   0.34749   0.00000  Uiso   1.00
C519   C     0.56072   0.76415   0.18887   0.00000  Uiso   1.00
C520   C     0.55063   0.66297   0.17520   0.00000  Uiso   1.00
C521   C     0.52586   0.64345   0.25232   0.00000  Uiso   1.00
C522   C     0.50770   0.62434   0.14695   0.00000  Uiso   1.00
C523   C     0.48635   0.60840   0.24381   0.00000  Uiso   1.00
C524   C     0.56979   0.66188   0.30146   0.00000  Uiso   1.00
C525   C     0.58856   0.65826   0.23740   0.00000  Uiso   1.00
C526   C     0.60419   0.65784   0.37560   0.00000  Uiso   1.00
C527   C     0.55238   0.68748   0.21808   0.00000  Uiso   1.00
C528   C     0.55653   0.70541   0.08393   0.00000  Uiso   1.00
C529   C     0.55752   0.72655   0.15195   0.00000  Uiso   1.00
H530   H     0.54264   0.67106   0.68652   0.00000  Uiso   1.00
H531   H     0.49914   0.63303   0.69560   0.00000  Uiso   1.00
H532   H     0.57998   0.66695   0.78602   0.00000  Uiso   1.00
H533   H     0.54796   0.71408   0.63257   0.00000  Uiso   1.00
H534   H     0.45226   0.58949   0.61960   0.00000  Uiso   1.00
H535   H     0.62273   0.66102   0.81025   0.00000  Uiso   1.00
H536   H     0.55521   0.76042   0.48669   0.00000  Uiso   1.00
H537   H     0.55300   0.66057   0.02324   0.00000  Uiso   1.00
H538   H     0.51006   0.62195   0.99591   0.00000  Uiso   1.00
H539   H     0.59091   0.65587   0.08634   0.00000  Uiso   1.00
H540   H     0.55889   0.70301   0.93289   0.00000  Uiso   1.00
H541   H     0.46112   0.58050   0.05171   0.00000  Uiso   1.00
H542   H     0.63160   0.65203   0.24236   0.00000  Uiso   1.00
H543   H     0.56407   0.75143   0.91880   0.00000  Uiso   1.00
O544   O     0.42826   0.55977   0.32966   0.00000  Uiso   1.00
O545   O     0.65192   0.65363   0.57979   0.00000  Uiso   1.00
O546   O     0.56333   0.78404   0.15528   0.00000  Uiso   1.00
N547   N     0.46023   0.59267   0.48968   0.00000  Uiso   1.00
N548   N     0.61961   0.65955   0.66794   0.00000  Uiso   1.00
N549   N     0.55649   0.75248   0.36544   0.00000  Uiso   1.00
N550   N     0.46501   0.58784   0.18411   0.00000  Uiso   1.00
N551   N     0.62438   0.65471   0.36236   0.00000  Uiso   1.00
N552   N     0.56126   0.74764   0.05987   0.00000  Uiso   1.00
