data_job_00416
_audit_creation_date              2018-12-19
_audit_creation_method            'Materials Studio'
_symmetry_space_group_name_H-M    'P1'
_symmetry_Int_Tables_number       1
_symmetry_cell_setting            triclinic
loop_
_symmetry_equiv_pos_as_xyz
  x,y,z
_cell_length_a                    46.1116
_cell_length_b                    7.0479
_cell_length_c                    27.4500
_cell_angle_alpha                 90.0000
_cell_angle_beta                  149.6477
_cell_angle_gamma                 90.0000
loop_
_atom_site_label
_atom_site_type_symbol
_atom_site_fract_x
_atom_site_fract_y
_atom_site_fract_z
_atom_site_U_iso_or_equiv
_atom_site_adp_type
_atom_site_occupancy
C1     C     0.59234   0.75749   0.77511   0.00000  Uiso   1.00
C2     C     0.63306   0.68818   0.79445   0.00000  Uiso   1.00
C3     C     0.67688   0.79336   0.83693   0.00000  Uiso   1.00
C4     C     0.70935   0.70438   0.84828   0.00000  Uiso   1.00
C5     C     0.77423   0.62530   0.88284   0.00000  Uiso   1.00
C6     C     0.53188   0.73070   0.66734   0.00000  Uiso   1.00
C7     C     0.49064   0.87163   0.60295   0.00000  Uiso   1.00
C8     C     0.43794   0.81843   0.50730   0.00000  Uiso   1.00
C9     C     0.34573   0.80533   0.34454   0.00000  Uiso   1.00
C10    C     0.59820   0.61713   0.82558   0.00000  Uiso   1.00
C11    C     0.61269   0.66257   0.89422   0.00000  Uiso   1.00
C12    C     0.61581   0.51375   0.93178   0.00000  Uiso   1.00
C13    C     0.62656   0.32432   0.01471   0.00000  Uiso   1.00
C14    C     0.57209   0.41242   0.71974   0.00000  Uiso   1.00
C15    C     0.62206   0.50075   0.76437   0.00000  Uiso   1.00
C16    C     0.65447   0.41158   0.77566   0.00000  Uiso   1.00
C17    C     0.69834   0.51661   0.81815   0.00000  Uiso   1.00
C18    C     0.52088   0.54328   0.63726   0.00000  Uiso   1.00
C19    C     0.46823   0.48985   0.54169   0.00000  Uiso   1.00
C20    C     0.42692   0.63066   0.47717   0.00000  Uiso   1.00
C21    C     0.58720   0.42970   0.79551   0.00000  Uiso   1.00
C22    C     0.59029   0.28079   0.83296   0.00000  Uiso   1.00
C23    C     0.60479   0.32598   0.90165   0.00000  Uiso   1.00
H24    H     0.60090   0.90342   0.79852   0.00000  Uiso   1.00
H25    H     0.68537   0.93842   0.86018   0.00000  Uiso   1.00
H26    H     0.49916   0.01666   0.62625   0.00000  Uiso   1.00
H27    H     0.62120   0.80763   0.91748   0.00000  Uiso   1.00
H28    H     0.77416   0.89459   0.91526   0.00000  Uiso   1.00
H29    H     0.38152   0.05955   0.42200   0.00000  Uiso   1.00
H30    H     0.63886   0.61877   0.03611   0.00000  Uiso   1.00
H31    H     0.56352   0.26649   0.69632   0.00000  Uiso   1.00
H32    H     0.64595   0.26654   0.75238   0.00000  Uiso   1.00
H33    H     0.45974   0.34479   0.51844   0.00000  Uiso   1.00
H34    H     0.58178   0.13576   0.80967   0.00000  Uiso   1.00
H35    H     0.74217   0.34927   0.82775   0.00000  Uiso   1.00
H36    H     0.34952   0.51424   0.33449   0.00000  Uiso   1.00
H37    H     0.60686   0.07346   0.94861   0.00000  Uiso   1.00
O38    O     0.81305   0.63347   0.91020   0.00000  Uiso   1.00
O39    O     0.29791   0.84990   0.26307   0.00000  Uiso   1.00
O40    O     0.63554   0.27161   0.06877   0.00000  Uiso   1.00
N41    N     0.75533   0.76623   0.88699   0.00000  Uiso   1.00
N42    N     0.38823   0.92047   0.42582   0.00000  Uiso   1.00
N43    N     0.62881   0.50838   0.99994   0.00000  Uiso   1.00
N44    N     0.73811   0.47280   0.83990   0.00000  Uiso   1.00
N45    N     0.37101   0.62704   0.37873   0.00000  Uiso   1.00
N46    N     0.61159   0.21495   0.95286   0.00000  Uiso   1.00
C47    C     0.09234   0.25749   0.77511   0.00000  Uiso   1.00
C48    C     0.13306   0.18818   0.79445   0.00000  Uiso   1.00
C49    C     0.17688   0.29336   0.83693   0.00000  Uiso   1.00
C50    C     0.20935   0.20438   0.84828   0.00000  Uiso   1.00
C51    C     0.27423   0.12530   0.88284   0.00000  Uiso   1.00
C52    C     0.03188   0.23070   0.66734   0.00000  Uiso   1.00
C53    C     0.99064   0.37163   0.60295   0.00000  Uiso   1.00
C54    C     0.93794   0.31843   0.50730   0.00000  Uiso   1.00
C55    C     0.84573   0.30533   0.34454   0.00000  Uiso   1.00
C56    C     0.09820   0.11713   0.82558   0.00000  Uiso   1.00
C57    C     0.11269   0.16257   0.89422   0.00000  Uiso   1.00
C58    C     0.11581   0.01375   0.93178   0.00000  Uiso   1.00
C59    C     0.12656   0.82432   0.01471   0.00000  Uiso   1.00
C60    C     0.07209   0.91242   0.71974   0.00000  Uiso   1.00
C61    C     0.12206   0.00075   0.76437   0.00000  Uiso   1.00
C62    C     0.15447   0.91158   0.77566   0.00000  Uiso   1.00
C63    C     0.19834   0.01661   0.81815   0.00000  Uiso   1.00
C64    C     0.02088   0.04328   0.63726   0.00000  Uiso   1.00
C65    C     0.96823   0.98985   0.54169   0.00000  Uiso   1.00
C66    C     0.92692   0.13066   0.47717   0.00000  Uiso   1.00
C67    C     0.08720   0.92970   0.79551   0.00000  Uiso   1.00
C68    C     0.09029   0.78079   0.83296   0.00000  Uiso   1.00
C69    C     0.10479   0.82598   0.90165   0.00000  Uiso   1.00
H70    H     0.10090   0.40342   0.79852   0.00000  Uiso   1.00
H71    H     0.18537   0.43842   0.86018   0.00000  Uiso   1.00
H72    H     0.99916   0.51666   0.62625   0.00000  Uiso   1.00
H73    H     0.12120   0.30763   0.91748   0.00000  Uiso   1.00
H74    H     0.27416   0.39459   0.91526   0.00000  Uiso   1.00
H75    H     0.88152   0.55955   0.42200   0.00000  Uiso   1.00
H76    H     0.13886   0.11877   0.03611   0.00000  Uiso   1.00
H77    H     0.06352   0.76649   0.69632   0.00000  Uiso   1.00
H78    H     0.14595   0.76654   0.75238   0.00000  Uiso   1.00
H79    H     0.95974   0.84479   0.51844   0.00000  Uiso   1.00
H80    H     0.08178   0.63576   0.80967   0.00000  Uiso   1.00
H81    H     0.24217   0.84927   0.82775   0.00000  Uiso   1.00
H82    H     0.84952   0.01424   0.33449   0.00000  Uiso   1.00
H83    H     0.10686   0.57346   0.94861   0.00000  Uiso   1.00
O84    O     0.31305   0.13347   0.91020   0.00000  Uiso   1.00
O85    O     0.79791   0.34990   0.26307   0.00000  Uiso   1.00
O86    O     0.13554   0.77161   0.06877   0.00000  Uiso   1.00
N87    N     0.25533   0.26623   0.88699   0.00000  Uiso   1.00
N88    N     0.88823   0.42047   0.42582   0.00000  Uiso   1.00
N89    N     0.12881   0.00838   0.99994   0.00000  Uiso   1.00
N90    N     0.23811   0.97280   0.83990   0.00000  Uiso   1.00
N91    N     0.87101   0.12704   0.37873   0.00000  Uiso   1.00
N92    N     0.11159   0.71495   0.95286   0.00000  Uiso   1.00
C93    C     0.40766   0.75749   0.72489   0.00000  Uiso   1.00
C94    C     0.36694   0.68818   0.70555   0.00000  Uiso   1.00
C95    C     0.32312   0.79336   0.66307   0.00000  Uiso   1.00
C96    C     0.29065   0.70438   0.65172   0.00000  Uiso   1.00
C97    C     0.22577   0.62530   0.61716   0.00000  Uiso   1.00
C98    C     0.46812   0.73070   0.83266   0.00000  Uiso   1.00
C99    C     0.50936   0.87163   0.89705   0.00000  Uiso   1.00
C100   C     0.56206   0.81843   0.99270   0.00000  Uiso   1.00
C101   C     0.65427   0.80533   0.15546   0.00000  Uiso   1.00
C102   C     0.40180   0.61713   0.67442   0.00000  Uiso   1.00
C103   C     0.38731   0.66257   0.60578   0.00000  Uiso   1.00
C104   C     0.38419   0.51375   0.56822   0.00000  Uiso   1.00
C105   C     0.37344   0.32432   0.48529   0.00000  Uiso   1.00
C106   C     0.42791   0.41242   0.78026   0.00000  Uiso   1.00
C107   C     0.37794   0.50075   0.73563   0.00000  Uiso   1.00
C108   C     0.34553   0.41158   0.72434   0.00000  Uiso   1.00
C109   C     0.30166   0.51661   0.68185   0.00000  Uiso   1.00
C110   C     0.47912   0.54328   0.86274   0.00000  Uiso   1.00
C111   C     0.53177   0.48985   0.95831   0.00000  Uiso   1.00
C112   C     0.57308   0.63066   0.02283   0.00000  Uiso   1.00
C113   C     0.41280   0.42970   0.70449   0.00000  Uiso   1.00
C114   C     0.40971   0.28079   0.66704   0.00000  Uiso   1.00
C115   C     0.39521   0.32598   0.59835   0.00000  Uiso   1.00
H116   H     0.39910   0.90342   0.70148   0.00000  Uiso   1.00
H117   H     0.31463   0.93842   0.63982   0.00000  Uiso   1.00
H118   H     0.50084   0.01666   0.87375   0.00000  Uiso   1.00
H119   H     0.37880   0.80763   0.58252   0.00000  Uiso   1.00
H120   H     0.22584   0.89459   0.58474   0.00000  Uiso   1.00
H121   H     0.61848   0.05955   0.07800   0.00000  Uiso   1.00
H122   H     0.36114   0.61877   0.46389   0.00000  Uiso   1.00
H123   H     0.43648   0.26649   0.80368   0.00000  Uiso   1.00
H124   H     0.35405   0.26654   0.74762   0.00000  Uiso   1.00
H125   H     0.54026   0.34479   0.98156   0.00000  Uiso   1.00
H126   H     0.41822   0.13576   0.69033   0.00000  Uiso   1.00
H127   H     0.25783   0.34927   0.67225   0.00000  Uiso   1.00
H128   H     0.65048   0.51424   0.16551   0.00000  Uiso   1.00
H129   H     0.39314   0.07346   0.55139   0.00000  Uiso   1.00
O130   O     0.18695   0.63347   0.58980   0.00000  Uiso   1.00
O131   O     0.70209   0.84990   0.23693   0.00000  Uiso   1.00
O132   O     0.36446   0.27161   0.43123   0.00000  Uiso   1.00
N133   N     0.24467   0.76623   0.61301   0.00000  Uiso   1.00
N134   N     0.61177   0.92047   0.07418   0.00000  Uiso   1.00
N135   N     0.37119   0.50838   0.50006   0.00000  Uiso   1.00
N136   N     0.26189   0.47280   0.66010   0.00000  Uiso   1.00
N137   N     0.62899   0.62704   0.12127   0.00000  Uiso   1.00
N138   N     0.38841   0.21495   0.54714   0.00000  Uiso   1.00
C139   C     0.90766   0.25749   0.72489   0.00000  Uiso   1.00
C140   C     0.86694   0.18818   0.70555   0.00000  Uiso   1.00
C141   C     0.82312   0.29336   0.66307   0.00000  Uiso   1.00
C142   C     0.79065   0.20438   0.65172   0.00000  Uiso   1.00
C143   C     0.72577   0.12530   0.61716   0.00000  Uiso   1.00
C144   C     0.96812   0.23070   0.83266   0.00000  Uiso   1.00
C145   C     0.00936   0.37163   0.89705   0.00000  Uiso   1.00
C146   C     0.06206   0.31843   0.99270   0.00000  Uiso   1.00
C147   C     0.15427   0.30533   0.15546   0.00000  Uiso   1.00
C148   C     0.90180   0.11713   0.67442   0.00000  Uiso   1.00
C149   C     0.88731   0.16257   0.60578   0.00000  Uiso   1.00
C150   C     0.88419   0.01375   0.56822   0.00000  Uiso   1.00
C151   C     0.87344   0.82432   0.48529   0.00000  Uiso   1.00
C152   C     0.92791   0.91242   0.78026   0.00000  Uiso   1.00
C153   C     0.87794   0.00075   0.73563   0.00000  Uiso   1.00
C154   C     0.84553   0.91158   0.72434   0.00000  Uiso   1.00
C155   C     0.80166   0.01661   0.68185   0.00000  Uiso   1.00
C156   C     0.97912   0.04328   0.86274   0.00000  Uiso   1.00
C157   C     0.03177   0.98985   0.95831   0.00000  Uiso   1.00
C158   C     0.07308   0.13066   0.02283   0.00000  Uiso   1.00
C159   C     0.91280   0.92970   0.70449   0.00000  Uiso   1.00
C160   C     0.90971   0.78079   0.66704   0.00000  Uiso   1.00
C161   C     0.89521   0.82598   0.59835   0.00000  Uiso   1.00
H162   H     0.89910   0.40342   0.70148   0.00000  Uiso   1.00
H163   H     0.81463   0.43842   0.63982   0.00000  Uiso   1.00
H164   H     0.00084   0.51666   0.87375   0.00000  Uiso   1.00
H165   H     0.87880   0.30763   0.58252   0.00000  Uiso   1.00
H166   H     0.72584   0.39459   0.58474   0.00000  Uiso   1.00
H167   H     0.11848   0.55955   0.07800   0.00000  Uiso   1.00
H168   H     0.86114   0.11877   0.46389   0.00000  Uiso   1.00
H169   H     0.93648   0.76649   0.80368   0.00000  Uiso   1.00
H170   H     0.85405   0.76654   0.74762   0.00000  Uiso   1.00
H171   H     0.04026   0.84479   0.98156   0.00000  Uiso   1.00
H172   H     0.91822   0.63576   0.69033   0.00000  Uiso   1.00
H173   H     0.75783   0.84927   0.67225   0.00000  Uiso   1.00
H174   H     0.15048   0.01424   0.16551   0.00000  Uiso   1.00
H175   H     0.89314   0.57346   0.55139   0.00000  Uiso   1.00
O176   O     0.68695   0.13347   0.58980   0.00000  Uiso   1.00
O177   O     0.20209   0.34990   0.23693   0.00000  Uiso   1.00
O178   O     0.86446   0.77161   0.43123   0.00000  Uiso   1.00
N179   N     0.74467   0.26623   0.61301   0.00000  Uiso   1.00
N180   N     0.11177   0.42047   0.07418   0.00000  Uiso   1.00
N181   N     0.87119   0.00838   0.50006   0.00000  Uiso   1.00
N182   N     0.76189   0.97280   0.66010   0.00000  Uiso   1.00
N183   N     0.12899   0.12704   0.12127   0.00000  Uiso   1.00
N184   N     0.88841   0.71495   0.54714   0.00000  Uiso   1.00
C185   C     0.40766   0.24251   0.22489   0.00000  Uiso   1.00
C186   C     0.36694   0.31182   0.20555   0.00000  Uiso   1.00
C187   C     0.32312   0.20664   0.16307   0.00000  Uiso   1.00
C188   C     0.29065   0.29562   0.15172   0.00000  Uiso   1.00
C189   C     0.22577   0.37470   0.11716   0.00000  Uiso   1.00
C190   C     0.46812   0.26930   0.33266   0.00000  Uiso   1.00
C191   C     0.50936   0.12837   0.39705   0.00000  Uiso   1.00
C192   C     0.56206   0.18157   0.49270   0.00000  Uiso   1.00
C193   C     0.65427   0.19467   0.65546   0.00000  Uiso   1.00
C194   C     0.40180   0.38287   0.17442   0.00000  Uiso   1.00
C195   C     0.38731   0.33743   0.10578   0.00000  Uiso   1.00
C196   C     0.38419   0.48625   0.06822   0.00000  Uiso   1.00
C197   C     0.37344   0.67568   0.98529   0.00000  Uiso   1.00
C198   C     0.42791   0.58758   0.28026   0.00000  Uiso   1.00
C199   C     0.37794   0.49925   0.23563   0.00000  Uiso   1.00
C200   C     0.34553   0.58842   0.22434   0.00000  Uiso   1.00
C201   C     0.30166   0.48339   0.18185   0.00000  Uiso   1.00
C202   C     0.47912   0.45672   0.36274   0.00000  Uiso   1.00
C203   C     0.53177   0.51015   0.45831   0.00000  Uiso   1.00
C204   C     0.57308   0.36934   0.52283   0.00000  Uiso   1.00
C205   C     0.41280   0.57030   0.20449   0.00000  Uiso   1.00
C206   C     0.40971   0.71921   0.16704   0.00000  Uiso   1.00
C207   C     0.39521   0.67402   0.09835   0.00000  Uiso   1.00
H208   H     0.39910   0.09658   0.20148   0.00000  Uiso   1.00
H209   H     0.31463   0.06158   0.13982   0.00000  Uiso   1.00
H210   H     0.50084   0.98334   0.37375   0.00000  Uiso   1.00
H211   H     0.37880   0.19237   0.08252   0.00000  Uiso   1.00
H212   H     0.22584   0.10541   0.08474   0.00000  Uiso   1.00
H213   H     0.61848   0.94045   0.57800   0.00000  Uiso   1.00
H214   H     0.36114   0.38123   0.96389   0.00000  Uiso   1.00
H215   H     0.43648   0.73351   0.30368   0.00000  Uiso   1.00
H216   H     0.35405   0.73346   0.24762   0.00000  Uiso   1.00
H217   H     0.54026   0.65521   0.48156   0.00000  Uiso   1.00
H218   H     0.41822   0.86424   0.19033   0.00000  Uiso   1.00
H219   H     0.25783   0.65073   0.17225   0.00000  Uiso   1.00
H220   H     0.65048   0.48576   0.66551   0.00000  Uiso   1.00
H221   H     0.39314   0.92654   0.05139   0.00000  Uiso   1.00
O222   O     0.18695   0.36653   0.08980   0.00000  Uiso   1.00
O223   O     0.70209   0.15010   0.73693   0.00000  Uiso   1.00
O224   O     0.36446   0.72839   0.93123   0.00000  Uiso   1.00
N225   N     0.24467   0.23377   0.11301   0.00000  Uiso   1.00
N226   N     0.61177   0.07953   0.57418   0.00000  Uiso   1.00
N227   N     0.37119   0.49162   0.00006   0.00000  Uiso   1.00
N228   N     0.26189   0.52720   0.16010   0.00000  Uiso   1.00
N229   N     0.62899   0.37296   0.62127   0.00000  Uiso   1.00
N230   N     0.38841   0.78505   0.04714   0.00000  Uiso   1.00
C231   C     0.90766   0.74251   0.22489   0.00000  Uiso   1.00
C232   C     0.86694   0.81182   0.20555   0.00000  Uiso   1.00
C233   C     0.82312   0.70664   0.16307   0.00000  Uiso   1.00
C234   C     0.79065   0.79562   0.15172   0.00000  Uiso   1.00
C235   C     0.72577   0.87470   0.11716   0.00000  Uiso   1.00
C236   C     0.96812   0.76930   0.33266   0.00000  Uiso   1.00
C237   C     0.00936   0.62837   0.39705   0.00000  Uiso   1.00
C238   C     0.06206   0.68157   0.49270   0.00000  Uiso   1.00
C239   C     0.15427   0.69467   0.65546   0.00000  Uiso   1.00
C240   C     0.90180   0.88287   0.17442   0.00000  Uiso   1.00
C241   C     0.88731   0.83743   0.10578   0.00000  Uiso   1.00
C242   C     0.88419   0.98625   0.06822   0.00000  Uiso   1.00
C243   C     0.87344   0.17568   0.98529   0.00000  Uiso   1.00
C244   C     0.92791   0.08758   0.28026   0.00000  Uiso   1.00
C245   C     0.87794   0.99925   0.23563   0.00000  Uiso   1.00
C246   C     0.84553   0.08842   0.22434   0.00000  Uiso   1.00
C247   C     0.80166   0.98339   0.18185   0.00000  Uiso   1.00
C248   C     0.97912   0.95672   0.36274   0.00000  Uiso   1.00
C249   C     0.03177   0.01015   0.45831   0.00000  Uiso   1.00
C250   C     0.07308   0.86934   0.52283   0.00000  Uiso   1.00
C251   C     0.91280   0.07030   0.20449   0.00000  Uiso   1.00
C252   C     0.90971   0.21921   0.16704   0.00000  Uiso   1.00
C253   C     0.89521   0.17402   0.09835   0.00000  Uiso   1.00
H254   H     0.89910   0.59658   0.20148   0.00000  Uiso   1.00
H255   H     0.81463   0.56158   0.13982   0.00000  Uiso   1.00
H256   H     0.00084   0.48334   0.37375   0.00000  Uiso   1.00
H257   H     0.87880   0.69237   0.08252   0.00000  Uiso   1.00
H258   H     0.72584   0.60541   0.08474   0.00000  Uiso   1.00
H259   H     0.11848   0.44045   0.57800   0.00000  Uiso   1.00
H260   H     0.86114   0.88123   0.96389   0.00000  Uiso   1.00
H261   H     0.93648   0.23351   0.30368   0.00000  Uiso   1.00
H262   H     0.85405   0.23346   0.24762   0.00000  Uiso   1.00
H263   H     0.04026   0.15521   0.48156   0.00000  Uiso   1.00
H264   H     0.91822   0.36424   0.19033   0.00000  Uiso   1.00
H265   H     0.75783   0.15073   0.17225   0.00000  Uiso   1.00
H266   H     0.15048   0.98576   0.66551   0.00000  Uiso   1.00
H267   H     0.89314   0.42654   0.05139   0.00000  Uiso   1.00
O268   O     0.68695   0.86653   0.08980   0.00000  Uiso   1.00
O269   O     0.20209   0.65010   0.73693   0.00000  Uiso   1.00
O270   O     0.86446   0.22839   0.93123   0.00000  Uiso   1.00
N271   N     0.74467   0.73377   0.11301   0.00000  Uiso   1.00
N272   N     0.11177   0.57953   0.57418   0.00000  Uiso   1.00
N273   N     0.87119   0.99162   0.00006   0.00000  Uiso   1.00
N274   N     0.76189   0.02720   0.16010   0.00000  Uiso   1.00
N275   N     0.12899   0.87296   0.62127   0.00000  Uiso   1.00
N276   N     0.88841   0.28505   0.04714   0.00000  Uiso   1.00
C277   C     0.59234   0.24251   0.27511   0.00000  Uiso   1.00
C278   C     0.63306   0.31182   0.29445   0.00000  Uiso   1.00
C279   C     0.67688   0.20664   0.33693   0.00000  Uiso   1.00
C280   C     0.70935   0.29562   0.34828   0.00000  Uiso   1.00
C281   C     0.77423   0.37470   0.38284   0.00000  Uiso   1.00
C282   C     0.53188   0.26930   0.16734   0.00000  Uiso   1.00
C283   C     0.49064   0.12837   0.10295   0.00000  Uiso   1.00
C284   C     0.43794   0.18157   0.00730   0.00000  Uiso   1.00
C285   C     0.34573   0.19467   0.84454   0.00000  Uiso   1.00
C286   C     0.59820   0.38287   0.32558   0.00000  Uiso   1.00
C287   C     0.61269   0.33743   0.39422   0.00000  Uiso   1.00
C288   C     0.61581   0.48625   0.43178   0.00000  Uiso   1.00
C289   C     0.62656   0.67568   0.51471   0.00000  Uiso   1.00
C290   C     0.57209   0.58758   0.21974   0.00000  Uiso   1.00
C291   C     0.62206   0.49925   0.26437   0.00000  Uiso   1.00
C292   C     0.65447   0.58842   0.27566   0.00000  Uiso   1.00
C293   C     0.69834   0.48339   0.31815   0.00000  Uiso   1.00
C294   C     0.52088   0.45672   0.13726   0.00000  Uiso   1.00
C295   C     0.46823   0.51015   0.04169   0.00000  Uiso   1.00
C296   C     0.42692   0.36934   0.97717   0.00000  Uiso   1.00
C297   C     0.58720   0.57030   0.29551   0.00000  Uiso   1.00
C298   C     0.59029   0.71921   0.33296   0.00000  Uiso   1.00
C299   C     0.60479   0.67402   0.40165   0.00000  Uiso   1.00
H300   H     0.60090   0.09658   0.29852   0.00000  Uiso   1.00
H301   H     0.68537   0.06158   0.36018   0.00000  Uiso   1.00
H302   H     0.49916   0.98334   0.12625   0.00000  Uiso   1.00
H303   H     0.62120   0.19237   0.41748   0.00000  Uiso   1.00
H304   H     0.77416   0.10541   0.41526   0.00000  Uiso   1.00
H305   H     0.38152   0.94045   0.92200   0.00000  Uiso   1.00
H306   H     0.63886   0.38123   0.53611   0.00000  Uiso   1.00
H307   H     0.56352   0.73351   0.19632   0.00000  Uiso   1.00
H308   H     0.64595   0.73346   0.25238   0.00000  Uiso   1.00
H309   H     0.45974   0.65521   0.01844   0.00000  Uiso   1.00
H310   H     0.58178   0.86424   0.30967   0.00000  Uiso   1.00
H311   H     0.74217   0.65073   0.32775   0.00000  Uiso   1.00
H312   H     0.34952   0.48576   0.83449   0.00000  Uiso   1.00
H313   H     0.60686   0.92654   0.44861   0.00000  Uiso   1.00
O314   O     0.81305   0.36653   0.41020   0.00000  Uiso   1.00
O315   O     0.29791   0.15010   0.76307   0.00000  Uiso   1.00
O316   O     0.63554   0.72839   0.56877   0.00000  Uiso   1.00
N317   N     0.75533   0.23377   0.38699   0.00000  Uiso   1.00
N318   N     0.38823   0.07953   0.92582   0.00000  Uiso   1.00
N319   N     0.62881   0.49162   0.49994   0.00000  Uiso   1.00
N320   N     0.73811   0.52720   0.33990   0.00000  Uiso   1.00
N321   N     0.37101   0.37296   0.87873   0.00000  Uiso   1.00
N322   N     0.61159   0.78505   0.45286   0.00000  Uiso   1.00
C323   C     0.09234   0.74251   0.27511   0.00000  Uiso   1.00
C324   C     0.13306   0.81182   0.29445   0.00000  Uiso   1.00
C325   C     0.17688   0.70664   0.33693   0.00000  Uiso   1.00
C326   C     0.20935   0.79562   0.34828   0.00000  Uiso   1.00
C327   C     0.27423   0.87470   0.38284   0.00000  Uiso   1.00
C328   C     0.03188   0.76930   0.16734   0.00000  Uiso   1.00
C329   C     0.99064   0.62837   0.10295   0.00000  Uiso   1.00
C330   C     0.93794   0.68157   0.00730   0.00000  Uiso   1.00
C331   C     0.84573   0.69467   0.84454   0.00000  Uiso   1.00
C332   C     0.09820   0.88287   0.32558   0.00000  Uiso   1.00
C333   C     0.11269   0.83743   0.39422   0.00000  Uiso   1.00
C334   C     0.11581   0.98625   0.43178   0.00000  Uiso   1.00
C335   C     0.12656   0.17568   0.51471   0.00000  Uiso   1.00
C336   C     0.07209   0.08758   0.21974   0.00000  Uiso   1.00
C337   C     0.12206   0.99925   0.26437   0.00000  Uiso   1.00
C338   C     0.15447   0.08842   0.27566   0.00000  Uiso   1.00
C339   C     0.19834   0.98339   0.31815   0.00000  Uiso   1.00
C340   C     0.02088   0.95672   0.13726   0.00000  Uiso   1.00
C341   C     0.96823   0.01015   0.04169   0.00000  Uiso   1.00
C342   C     0.92692   0.86934   0.97717   0.00000  Uiso   1.00
C343   C     0.08720   0.07030   0.29551   0.00000  Uiso   1.00
C344   C     0.09029   0.21921   0.33296   0.00000  Uiso   1.00
C345   C     0.10479   0.17402   0.40165   0.00000  Uiso   1.00
H346   H     0.10090   0.59658   0.29852   0.00000  Uiso   1.00
H347   H     0.18537   0.56158   0.36018   0.00000  Uiso   1.00
H348   H     0.99916   0.48334   0.12625   0.00000  Uiso   1.00
H349   H     0.12120   0.69237   0.41748   0.00000  Uiso   1.00
H350   H     0.27416   0.60541   0.41526   0.00000  Uiso   1.00
H351   H     0.88152   0.44045   0.92200   0.00000  Uiso   1.00
H352   H     0.13886   0.88123   0.53611   0.00000  Uiso   1.00
H353   H     0.06352   0.23351   0.19632   0.00000  Uiso   1.00
H354   H     0.14595   0.23346   0.25238   0.00000  Uiso   1.00
H355   H     0.95974   0.15521   0.01844   0.00000  Uiso   1.00
H356   H     0.08178   0.36424   0.30967   0.00000  Uiso   1.00
H357   H     0.24217   0.15073   0.32775   0.00000  Uiso   1.00
H358   H     0.84952   0.98576   0.83449   0.00000  Uiso   1.00
H359   H     0.10686   0.42654   0.44861   0.00000  Uiso   1.00
O360   O     0.31305   0.86653   0.41020   0.00000  Uiso   1.00
O361   O     0.79791   0.65010   0.76307   0.00000  Uiso   1.00
O362   O     0.13554   0.22839   0.56877   0.00000  Uiso   1.00
N363   N     0.25533   0.73377   0.38699   0.00000  Uiso   1.00
N364   N     0.88823   0.57953   0.92582   0.00000  Uiso   1.00
N365   N     0.12881   0.99162   0.49994   0.00000  Uiso   1.00
N366   N     0.23811   0.02720   0.33990   0.00000  Uiso   1.00
N367   N     0.87101   0.87296   0.87873   0.00000  Uiso   1.00
N368   N     0.11159   0.28505   0.45286   0.00000  Uiso   1.00
