data_job_05519
_audit_creation_date              2018-12-19
_audit_creation_method            'Materials Studio'
_symmetry_space_group_name_H-M    'P1'
_symmetry_Int_Tables_number       1
_symmetry_cell_setting            triclinic
loop_
_symmetry_equiv_pos_as_xyz
  x,y,z
_cell_length_a                    12.4617
_cell_length_b                    24.0225
_cell_length_c                    25.1585
_cell_angle_alpha                 94.7794
_cell_angle_beta                  89.1306
_cell_angle_gamma                 81.8877
loop_
_atom_site_label
_atom_site_type_symbol
_atom_site_fract_x
_atom_site_fract_y
_atom_site_fract_z
_atom_site_U_iso_or_equiv
_atom_site_adp_type
_atom_site_occupancy
C1     C     0.58163   0.69614   0.15269   0.00000  Uiso   1.00
C2     C     0.50956   0.65845   0.12288   0.00000  Uiso   1.00
C3     C     0.40864   0.67636   0.10275   0.00000  Uiso   1.00
C4     C     0.35551   0.63534   0.07674   0.00000  Uiso   1.00
C5     C     0.23655   0.58547   0.03134   0.00000  Uiso   1.00
C6     C     0.60371   0.67173   0.20614   0.00000  Uiso   1.00
C7     C     0.58197   0.70079   0.25603   0.00000  Uiso   1.00
C8     C     0.60811   0.67094   0.30010   0.00000  Uiso   1.00
C9     C     0.63539   0.64169   0.38397   0.00000  Uiso   1.00
C10    C     0.68995   0.68649   0.12191   0.00000  Uiso   1.00
C11    C     0.74073   0.72797   0.10098   0.00000  Uiso   1.00
C12    C     0.83950   0.71055   0.07416   0.00000  Uiso   1.00
C13    C     0.00067   0.70422   0.02724   0.00000  Uiso   1.00
C14    C     0.66674   0.59145   0.14228   0.00000  Uiso   1.00
C15    C     0.55579   0.60159   0.11723   0.00000  Uiso   1.00
C16    C     0.50280   0.56053   0.09123   0.00000  Uiso   1.00
C17    C     0.40182   0.57837   0.07107   0.00000  Uiso   1.00
C18    C     0.64994   0.61486   0.20049   0.00000  Uiso   1.00
C19    C     0.67613   0.58496   0.24451   0.00000  Uiso   1.00
C20    C     0.65442   0.61397   0.29444   0.00000  Uiso   1.00
C21    C     0.73618   0.62962   0.11626   0.00000  Uiso   1.00
C22    C     0.83489   0.61214   0.08946   0.00000  Uiso   1.00
C23    C     0.88581   0.65358   0.06849   0.00000  Uiso   1.00
H24    H     0.54564   0.74041   0.15709   0.00000  Uiso   1.00
H25    H     0.37289   0.72037   0.10714   0.00000  Uiso   1.00
H26    H     0.54620   0.74480   0.26039   0.00000  Uiso   1.00
H27    H     0.70493   0.77197   0.10537   0.00000  Uiso   1.00
H28    H     0.20173   0.67307   0.04928   0.00000  Uiso   1.00
H29    H     0.56720   0.72459   0.37241   0.00000  Uiso   1.00
H30    H     0.90192   0.78189   0.04552   0.00000  Uiso   1.00
H31    H     0.70274   0.54717   0.13787   0.00000  Uiso   1.00
H32    H     0.53860   0.51652   0.08686   0.00000  Uiso   1.00
H33    H     0.71191   0.54096   0.24011   0.00000  Uiso   1.00
H34    H     0.87064   0.56813   0.08509   0.00000  Uiso   1.00
H35    H     0.33622   0.50762   0.03283   0.00000  Uiso   1.00
H36    H     0.70170   0.55914   0.35596   0.00000  Uiso   1.00
H37    H     0.03642   0.61644   0.02907   0.00000  Uiso   1.00
O38    O     0.15815   0.57367   0.00786   0.00000  Uiso   1.00
O39    O     0.63765   0.64126   0.43180   0.00000  Uiso   1.00
O40    O     0.07679   0.71644   0.00292   0.00000  Uiso   1.00
N41    N     0.25591   0.63834   0.05240   0.00000  Uiso   1.00
N42    N     0.59759   0.68650   0.35451   0.00000  Uiso   1.00
N43    N     0.91055   0.74008   0.04891   0.00000  Uiso   1.00
N44    N     0.32829   0.54931   0.04355   0.00000  Uiso   1.00
N45    N     0.66996   0.59748   0.34565   0.00000  Uiso   1.00
N46    N     0.98292   0.65105   0.04005   0.00000  Uiso   1.00
C47    C     0.08867   0.14434   0.65283   0.00000  Uiso   1.00
C48    C     0.02000   0.10634   0.62102   0.00000  Uiso   1.00
C49    C     0.92184   0.12396   0.59804   0.00000  Uiso   1.00
C50    C     0.87160   0.08267   0.57056   0.00000  Uiso   1.00
C51    C     0.75790   0.03231   0.52185   0.00000  Uiso   1.00
C52    C     0.10423   0.12047   0.70693   0.00000  Uiso   1.00
C53    C     0.07691   0.14999   0.75617   0.00000  Uiso   1.00
C54    C     0.09760   0.12060   0.80101   0.00000  Uiso   1.00
C55    C     0.11475   0.09220   0.88568   0.00000  Uiso   1.00
C56    C     0.20023   0.13447   0.62511   0.00000  Uiso   1.00
C57    C     0.25364   0.17576   0.60558   0.00000  Uiso   1.00
C58    C     0.35516   0.15817   0.58155   0.00000  Uiso   1.00
C59    C     0.52136   0.15150   0.53918   0.00000  Uiso   1.00
C60    C     0.17399   0.03967   0.64491   0.00000  Uiso   1.00
C61    C     0.06634   0.04948   0.61672   0.00000  Uiso   1.00
C62    C     0.01624   0.00816   0.58928   0.00000  Uiso   1.00
C63    C     0.91803   0.02572   0.56625   0.00000  Uiso   1.00
C64    C     0.15057   0.06362   0.70263   0.00000  Uiso   1.00
C65    C     0.17131   0.03419   0.74741   0.00000  Uiso   1.00
C66    C     0.14402   0.06365   0.79671   0.00000  Uiso   1.00
C67    C     0.24657   0.07762   0.62081   0.00000  Uiso   1.00
C68    C     0.34803   0.05996   0.59681   0.00000  Uiso   1.00
C69    C     0.40159   0.10121   0.57724   0.00000  Uiso   1.00
H70    H     0.05259   0.18860   0.65618   0.00000  Uiso   1.00
H71    H     0.88600   0.16796   0.60138   0.00000  Uiso   1.00
H72    H     0.04106   0.19399   0.75949   0.00000  Uiso   1.00
H73    H     0.21776   0.21975   0.60891   0.00000  Uiso   1.00
H74    H     0.72173   0.12001   0.53874   0.00000  Uiso   1.00
H75    H     0.04871   0.17489   0.87212   0.00000  Uiso   1.00
H76    H     0.42131   0.22923   0.55461   0.00000  Uiso   1.00
H77    H     0.21007   0.99541   0.64156   0.00000  Uiso   1.00
H78    H     0.05212   0.96417   0.58595   0.00000  Uiso   1.00
H79    H     0.20718   0.99019   0.74406   0.00000  Uiso   1.00
H80    H     0.38387   0.01596   0.59349   0.00000  Uiso   1.00
H81    H     0.85655   0.95460   0.52622   0.00000  Uiso   1.00
H82    H     0.18354   0.00948   0.85961   0.00000  Uiso   1.00
H83    H     0.55614   0.06382   0.54209   0.00000  Uiso   1.00
O84    O     0.68238   0.02023   0.49618   0.00000  Uiso   1.00
O85    O     0.11139   0.09224   0.93356   0.00000  Uiso   1.00
O86    O     0.60022   0.16353   0.51699   0.00000  Uiso   1.00
N87    N     0.77515   0.08537   0.54342   0.00000  Uiso   1.00
N88    N     0.08084   0.13668   0.85511   0.00000  Uiso   1.00
N89    N     0.42920   0.18748   0.55827   0.00000  Uiso   1.00
N90    N     0.84770   0.99636   0.53668   0.00000  Uiso   1.00
N91    N     0.15339   0.04767   0.84837   0.00000  Uiso   1.00
N92    N     0.50175   0.09848   0.55154   0.00000  Uiso   1.00
C93    C     0.90900   0.30812   0.16447   0.00000  Uiso   1.00
C94    C     0.97728   0.34746   0.13938   0.00000  Uiso   1.00
C95    C     0.07531   0.33104   0.11169   0.00000  Uiso   1.00
C96    C     0.12520   0.37344   0.09181   0.00000  Uiso   1.00
C97    C     0.23834   0.42588   0.05172   0.00000  Uiso   1.00
C98    C     0.89370   0.32952   0.22326   0.00000  Uiso   1.00
C99    C     0.92144   0.29803   0.26609   0.00000  Uiso   1.00
C100   C     0.90095   0.32533   0.31683   0.00000  Uiso   1.00
C101   C     0.88426   0.34992   0.40697   0.00000  Uiso   1.00
C102   C     0.79726   0.31898   0.14034   0.00000  Uiso   1.00
C103   C     0.74389   0.27862   0.11345   0.00000  Uiso   1.00
C104   C     0.64219   0.29703   0.09438   0.00000  Uiso   1.00
C105   C     0.47575   0.30525   0.05577   0.00000  Uiso   1.00
C106   C     0.82325   0.41259   0.17842   0.00000  Uiso   1.00
C107   C     0.93071   0.40420   0.14696   0.00000  Uiso   1.00
C108   C     0.98045   0.44663   0.12712   0.00000  Uiso   1.00
C109   C     0.07854   0.43028   0.09940   0.00000  Uiso   1.00
C110   C     0.84713   0.38626   0.23084   0.00000  Uiso   1.00
C111   C     0.82658   0.41361   0.28153   0.00000  Uiso   1.00
C112   C     0.85430   0.38217   0.32442   0.00000  Uiso   1.00
C113   C     0.75068   0.37572   0.14792   0.00000  Uiso   1.00
C114   C     0.64904   0.39420   0.12889   0.00000  Uiso   1.00
C115   C     0.59553   0.35388   0.10197   0.00000  Uiso   1.00
H116   H     0.94525   0.26395   0.15858   0.00000  Uiso   1.00
H117   H     0.11134   0.28713   0.10583   0.00000  Uiso   1.00
H118   H     0.95747   0.25412   0.26022   0.00000  Uiso   1.00
H119   H     0.77996   0.23471   0.10760   0.00000  Uiso   1.00
H120   H     0.27495   0.33786   0.05072   0.00000  Uiso   1.00
H121   H     0.95049   0.26825   0.37624   0.00000  Uiso   1.00
H122   H     0.57616   0.22732   0.05442   0.00000  Uiso   1.00
H123   H     0.78699   0.45677   0.18433   0.00000  Uiso   1.00
H124   H     0.94439   0.49053   0.13299   0.00000  Uiso   1.00
H125   H     0.79054   0.45752   0.28737   0.00000  Uiso   1.00
H126   H     0.61302   0.43811   0.13476   0.00000  Uiso   1.00
H127   H     0.13946   0.50295   0.07276   0.00000  Uiso   1.00
H128   H     0.81500   0.43334   0.39828   0.00000  Uiso   1.00
H129   H     0.44067   0.39241   0.07646   0.00000  Uiso   1.00
O130   O     0.31362   0.43914   0.02752   0.00000  Uiso   1.00
O131   O     0.88793   0.34781   0.45459   0.00000  Uiso   1.00
O132   O     0.39682   0.29412   0.03237   0.00000  Uiso   1.00
N133   N     0.22145   0.37208   0.06294   0.00000  Uiso   1.00
N134   N     0.91812   0.30700   0.36728   0.00000  Uiso   1.00
N135   N     0.56814   0.26873   0.06642   0.00000  Uiso   1.00
N136   N     0.14854   0.46091   0.07480   0.00000  Uiso   1.00
N137   N     0.84521   0.39583   0.37915   0.00000  Uiso   1.00
N138   N     0.49523   0.35757   0.07828   0.00000  Uiso   1.00
C139   C     0.44444   0.75387   0.65917   0.00000  Uiso   1.00
C140   C     0.51519   0.79300   0.63553   0.00000  Uiso   1.00
C141   C     0.61502   0.77635   0.60956   0.00000  Uiso   1.00
C142   C     0.66703   0.81857   0.59081   0.00000  Uiso   1.00
C143   C     0.78394   0.87068   0.55306   0.00000  Uiso   1.00
C144   C     0.42501   0.77532   0.71777   0.00000  Uiso   1.00
C145   C     0.44900   0.74379   0.76096   0.00000  Uiso   1.00
C146   C     0.42508   0.77114   0.81144   0.00000  Uiso   1.00
C147   C     0.40191   0.79579   0.90138   0.00000  Uiso   1.00
C148   C     0.33477   0.76499   0.63303   0.00000  Uiso   1.00
C149   C     0.28287   0.72479   0.60497   0.00000  Uiso   1.00
C150   C     0.18295   0.74344   0.58411   0.00000  Uiso   1.00
C151   C     0.01967   0.75206   0.54248   0.00000  Uiso   1.00
C152   C     0.35927   0.85848   0.67204   0.00000  Uiso   1.00
C153   C     0.46892   0.84982   0.64252   0.00000  Uiso   1.00
C154   C     0.52079   0.89208   0.62381   0.00000  Uiso   1.00
C155   C     0.62068   0.87550   0.59781   0.00000  Uiso   1.00
C156   C     0.37875   0.83214   0.72477   0.00000  Uiso   1.00
C157   C     0.35477   0.85953   0.77520   0.00000  Uiso   1.00
C158   C     0.37874   0.82806   0.81845   0.00000  Uiso   1.00
C159   C     0.28850   0.82181   0.64002   0.00000  Uiso   1.00
C160   C     0.18864   0.84053   0.61921   0.00000  Uiso   1.00
C161   C     0.13661   0.80036   0.59112   0.00000  Uiso   1.00
H162   H     0.48045   0.70964   0.65373   0.00000  Uiso   1.00
H163   H     0.65080   0.73237   0.60416   0.00000  Uiso   1.00
H164   H     0.48479   0.69982   0.75553   0.00000  Uiso   1.00
H165   H     0.31869   0.68082   0.59957   0.00000  Uiso   1.00
H166   H     0.81927   0.78263   0.55231   0.00000  Uiso   1.00
H167   H     0.46921   0.71400   0.87148   0.00000  Uiso   1.00
H168   H     0.11895   0.67393   0.54260   0.00000  Uiso   1.00
H169   H     0.32325   0.90272   0.67749   0.00000  Uiso   1.00
H170   H     0.48497   0.93605   0.62922   0.00000  Uiso   1.00
H171   H     0.31897   0.90351   0.78060   0.00000  Uiso   1.00
H172   H     0.15287   0.88450   0.62463   0.00000  Uiso   1.00
H173   H     0.68468   0.94795   0.57265   0.00000  Uiso   1.00
H174   H     0.33462   0.87932   0.89183   0.00000  Uiso   1.00
H175   H     0.98436   0.83925   0.56294   0.00000  Uiso   1.00
O176   O     0.86121   0.88373   0.53032   0.00000  Uiso   1.00
O177   O     0.40193   0.79369   0.94906   0.00000  Uiso   1.00
O178   O     0.94240   0.74111   0.51757   0.00000  Uiso   1.00
N179   N     0.76539   0.81696   0.56371   0.00000  Uiso   1.00
N180   N     0.43812   0.75280   0.86212   0.00000  Uiso   1.00
N181   N     0.11064   0.71533   0.55465   0.00000  Uiso   1.00
N182   N     0.69297   0.90592   0.57466   0.00000  Uiso   1.00
N183   N     0.36570   0.84176   0.87307   0.00000  Uiso   1.00
N184   N     0.03822   0.80429   0.56560   0.00000  Uiso   1.00
C185   C     0.43250   0.25014   0.87271   0.00000  Uiso   1.00
C186   C     0.50445   0.28791   0.90249   0.00000  Uiso   1.00
C187   C     0.60539   0.27010   0.92264   0.00000  Uiso   1.00
C188   C     0.65839   0.31120   0.94862   0.00000  Uiso   1.00
C189   C     0.77719   0.36121   0.99399   0.00000  Uiso   1.00
C190   C     0.41038   0.27448   0.81922   0.00000  Uiso   1.00
C191   C     0.43221   0.24537   0.76937   0.00000  Uiso   1.00
C192   C     0.40601   0.27516   0.72525   0.00000  Uiso   1.00
C193   C     0.37868   0.30431   0.64135   0.00000  Uiso   1.00
C194   C     0.32418   0.25974   0.90347   0.00000  Uiso   1.00
C195   C     0.27351   0.21824   0.92444   0.00000  Uiso   1.00
C196   C     0.17471   0.23561   0.95125   0.00000  Uiso   1.00
C197   C     0.01354   0.24187   0.99815   0.00000  Uiso   1.00
C198   C     0.34713   0.35479   0.88302   0.00000  Uiso   1.00
C199   C     0.45808   0.34476   0.90809   0.00000  Uiso   1.00
C200   C     0.51093   0.38589   0.93405   0.00000  Uiso   1.00
C201   C     0.61193   0.36814   0.95423   0.00000  Uiso   1.00
C202   C     0.36401   0.33132   0.82482   0.00000  Uiso   1.00
C203   C     0.33775   0.36116   0.78077   0.00000  Uiso   1.00
C204   C     0.35955   0.33211   0.73086   0.00000  Uiso   1.00
C205   C     0.27780   0.31658   0.90907   0.00000  Uiso   1.00
C206   C     0.17905   0.33403   0.93585   0.00000  Uiso   1.00
C207   C     0.12825   0.29256   0.95685   0.00000  Uiso   1.00
H208   H     0.46861   0.20588   0.86834   0.00000  Uiso   1.00
H209   H     0.64126   0.22611   0.91829   0.00000  Uiso   1.00
H210   H     0.46809   0.20138   0.76504   0.00000  Uiso   1.00
H211   H     0.30942   0.17425   0.92010   0.00000  Uiso   1.00
H212   H     0.81224   0.27360   0.97612   0.00000  Uiso   1.00
H213   H     0.44708   0.22146   0.65299   0.00000  Uiso   1.00
H214   H     0.11248   0.16425   0.97994   0.00000  Uiso   1.00
H215   H     0.31102   0.39905   0.88738   0.00000  Uiso   1.00
H216   H     0.47503   0.42988   0.93837   0.00000  Uiso   1.00
H217   H     0.30186   0.40515   0.78512   0.00000  Uiso   1.00
H218   H     0.14319   0.37802   0.94017   0.00000  Uiso   1.00
H219   H     0.67733   0.43899   0.99242   0.00000  Uiso   1.00
H220   H     0.31216   0.38684   0.66929   0.00000  Uiso   1.00
H221   H     0.97756   0.32964   0.99624   0.00000  Uiso   1.00
O222   O     0.85553   0.37309   0.01746   0.00000  Uiso   1.00
O223   O     0.37643   0.30468   0.59352   0.00000  Uiso   1.00
O224   O     0.93746   0.22962   0.02248   0.00000  Uiso   1.00
N225   N     0.75797   0.30829   0.97297   0.00000  Uiso   1.00
N226   N     0.41658   0.25955   0.67086   0.00000  Uiso   1.00
N227   N     0.10375   0.20606   0.97652   0.00000  Uiso   1.00
N228   N     0.68537   0.39729   0.98174   0.00000  Uiso   1.00
N229   N     0.34398   0.34854   0.67963   0.00000  Uiso   1.00
N230   N     0.03115   0.29505   0.98529   0.00000  Uiso   1.00
C231   C     0.93166   0.80101   0.37250   0.00000  Uiso   1.00
C232   C     0.99996   0.83904   0.40451   0.00000  Uiso   1.00
C233   C     0.09781   0.82145   0.42779   0.00000  Uiso   1.00
C234   C     0.14774   0.86276   0.45541   0.00000  Uiso   1.00
C235   C     0.26087   0.91318   0.50446   0.00000  Uiso   1.00
C236   C     0.91678   0.82482   0.31835   0.00000  Uiso   1.00
C237   C     0.94468   0.79525   0.26918   0.00000  Uiso   1.00
C238   C     0.92457   0.82459   0.22427   0.00000  Uiso   1.00
C239   C     0.90849   0.85291   0.13954   0.00000  Uiso   1.00
C240   C     0.81978   0.81089   0.39989   0.00000  Uiso   1.00
C241   C     0.76610   0.76962   0.41928   0.00000  Uiso   1.00
C242   C     0.66431   0.78724   0.44301   0.00000  Uiso   1.00
C243   C     0.49762   0.79394   0.48489   0.00000  Uiso   1.00
C244   C     0.84634   0.90567   0.38016   0.00000  Uiso   1.00
C245   C     0.95362   0.89589   0.40867   0.00000  Uiso   1.00
C246   C     0.00341   0.93725   0.43627   0.00000  Uiso   1.00
C247   C     0.10131   0.91971   0.45958   0.00000  Uiso   1.00
C248   C     0.87044   0.88166   0.32250   0.00000  Uiso   1.00
C249   C     0.85028   0.91105   0.27765   0.00000  Uiso   1.00
C250   C     0.87815   0.88154   0.22843   0.00000  Uiso   1.00
C251   C     0.77344   0.86774   0.40405   0.00000  Uiso   1.00
C252   C     0.67171   0.88542   0.42775   0.00000  Uiso   1.00
C253   C     0.61789   0.84419   0.44717   0.00000  Uiso   1.00
H254   H     0.96774   0.75675   0.36926   0.00000  Uiso   1.00
H255   H     0.13365   0.77745   0.42456   0.00000  Uiso   1.00
H256   H     0.98053   0.75126   0.26597   0.00000  Uiso   1.00
H257   H     0.80199   0.72564   0.41605   0.00000  Uiso   1.00
H258   H     0.29717   0.82547   0.48769   0.00000  Uiso   1.00
H259   H     0.97428   0.77024   0.15330   0.00000  Uiso   1.00
H260   H     0.59778   0.71621   0.46976   0.00000  Uiso   1.00
H261   H     0.81026   0.94993   0.38340   0.00000  Uiso   1.00
H262   H     0.96753   0.98124   0.43948   0.00000  Uiso   1.00
H263   H     0.81441   0.95504   0.28089   0.00000  Uiso   1.00
H264   H     0.63587   0.92942   0.43097   0.00000  Uiso   1.00
H265   H     0.16235   0.99087   0.49979   0.00000  Uiso   1.00
H266   H     0.83945   0.93564   0.16540   0.00000  Uiso   1.00
H267   H     0.46296   0.88161   0.48187   0.00000  Uiso   1.00
O268   O     0.33608   0.92528   0.53036   0.00000  Uiso   1.00
O269   O     0.91243   0.85282   0.09165   0.00000  Uiso   1.00
O270   O     0.41848   0.78193   0.50685   0.00000  Uiso   1.00
N271   N     0.24385   0.86010   0.48285   0.00000  Uiso   1.00
N272   N     0.94198   0.80847   0.17021   0.00000  Uiso   1.00
N273   N     0.58997   0.75795   0.46607   0.00000  Uiso   1.00
N274   N     0.17130   0.94910   0.48936   0.00000  Uiso   1.00
N275   N     0.86943   0.89747   0.17673   0.00000  Uiso   1.00
N276   N     0.51742   0.84695   0.47259   0.00000  Uiso   1.00
C277   C     0.10392   0.63868   0.86071   0.00000  Uiso   1.00
C278   C     0.03564   0.59933   0.88578   0.00000  Uiso   1.00
C279   C     0.93771   0.61574   0.91357   0.00000  Uiso   1.00
C280   C     0.88781   0.57334   0.93341   0.00000  Uiso   1.00
C281   C     0.77469   0.52088   0.97350   0.00000  Uiso   1.00
C282   C     0.11899   0.61738   0.80188   0.00000  Uiso   1.00
C283   C     0.09116   0.64897   0.75913   0.00000  Uiso   1.00
C284   C     0.11144   0.62176   0.70835   0.00000  Uiso   1.00
C285   C     0.12781   0.59733   0.61818   0.00000  Uiso   1.00
C286   C     0.21574   0.62772   0.88474   0.00000  Uiso   1.00
C287   C     0.26926   0.66800   0.91164   0.00000  Uiso   1.00
C288   C     0.37101   0.64950   0.93061   0.00000  Uiso   1.00
C289   C     0.53759   0.64111   0.96909   0.00000  Uiso   1.00
C290   C     0.18946   0.53419   0.84654   0.00000  Uiso   1.00
C291   C     0.08210   0.54258   0.87809   0.00000  Uiso   1.00
C292   C     0.03234   0.50014   0.89790   0.00000  Uiso   1.00
C293   C     0.93435   0.51649   0.92571   0.00000  Uiso   1.00
C294   C     0.16545   0.56063   0.79419   0.00000  Uiso   1.00
C295   C     0.18580   0.53337   0.74346   0.00000  Uiso   1.00
C296   C     0.15799   0.56491   0.70064   0.00000  Uiso   1.00
C297   C     0.26220   0.57097   0.87705   0.00000  Uiso   1.00
C298   C     0.36390   0.55240   0.89598   0.00000  Uiso   1.00
C299   C     0.41756   0.59264   0.92290   0.00000  Uiso   1.00
H300   H     0.06775   0.68286   0.86669   0.00000  Uiso   1.00
H301   H     0.90177   0.65967   0.91951   0.00000  Uiso   1.00
H302   H     0.05521   0.69289   0.76510   0.00000  Uiso   1.00
H303   H     0.23328   0.71191   0.91759   0.00000  Uiso   1.00
H304   H     0.73822   0.60892   0.97466   0.00000  Uiso   1.00
H305   H     0.06180   0.67898   0.64907   0.00000  Uiso   1.00
H306   H     0.43730   0.71910   0.97063   0.00000  Uiso   1.00
H307   H     0.22563   0.49001   0.84055   0.00000  Uiso   1.00
H308   H     0.06832   0.45623   0.89194   0.00000  Uiso   1.00
H309   H     0.22176   0.48945   0.73752   0.00000  Uiso   1.00
H310   H     0.39983   0.50848   0.89001   0.00000  Uiso   1.00
H311   H     0.87340   0.44380   0.95227   0.00000  Uiso   1.00
H312   H     0.19697   0.51386   0.62668   0.00000  Uiso   1.00
H313   H     0.57247   0.55398   0.94825   0.00000  Uiso   1.00
O314   O     0.69946   0.50762   0.99772   0.00000  Uiso   1.00
O315   O     0.12399   0.59953   0.57057   0.00000  Uiso   1.00
O316   O     0.61663   0.65217   0.99245   0.00000  Uiso   1.00
N317   N     0.79164   0.57470   0.96235   0.00000  Uiso   1.00
N318   N     0.09414   0.64019   0.65794   0.00000  Uiso   1.00
N319   N     0.44521   0.67770   0.95856   0.00000  Uiso   1.00
N320   N     0.86437   0.48585   0.95030   0.00000  Uiso   1.00
N321   N     0.16688   0.55134   0.64590   0.00000  Uiso   1.00
N322   N     0.51795   0.58885   0.94652   0.00000  Uiso   1.00
C323   C     0.57063   0.19153   0.36588   0.00000  Uiso   1.00
C324   C     0.50013   0.15237   0.38964   0.00000  Uiso   1.00
C325   C     0.40039   0.16897   0.41570   0.00000  Uiso   1.00
C326   C     0.34861   0.12671   0.43455   0.00000  Uiso   1.00
C327   C     0.23206   0.07453   0.47249   0.00000  Uiso   1.00
C328   C     0.58986   0.17005   0.30727   0.00000  Uiso   1.00
C329   C     0.56557   0.20153   0.26408   0.00000  Uiso   1.00
C330   C     0.58934   0.17415   0.21360   0.00000  Uiso   1.00
C331   C     0.61216   0.14944   0.12365   0.00000  Uiso   1.00
C332   C     0.68044   0.18052   0.39190   0.00000  Uiso   1.00
C333   C     0.73233   0.22079   0.41987   0.00000  Uiso   1.00
C334   C     0.83239   0.20223   0.44063   0.00000  Uiso   1.00
C335   C     0.99586   0.19378   0.48209   0.00000  Uiso   1.00
C336   C     0.65606   0.08696   0.35301   0.00000  Uiso   1.00
C337   C     0.54654   0.09557   0.38265   0.00000  Uiso   1.00
C338   C     0.49490   0.05327   0.40147   0.00000  Uiso   1.00
C339   C     0.39510   0.06981   0.42756   0.00000  Uiso   1.00
C340   C     0.63626   0.11326   0.30028   0.00000  Uiso   1.00
C341   C     0.66008   0.08583   0.24985   0.00000  Uiso   1.00
C342   C     0.63582   0.11725   0.20659   0.00000  Uiso   1.00
C343   C     0.72685   0.12372   0.38492   0.00000  Uiso   1.00
C344   C     0.82685   0.10510   0.40563   0.00000  Uiso   1.00
C345   C     0.87887   0.14533   0.43362   0.00000  Uiso   1.00
H346   H     0.53451   0.23575   0.37131   0.00000  Uiso   1.00
H347   H     0.36450   0.21293   0.42110   0.00000  Uiso   1.00
H348   H     0.52967   0.24548   0.26950   0.00000  Uiso   1.00
H349   H     0.69640   0.26474   0.42526   0.00000  Uiso   1.00
H350   H     0.19646   0.16257   0.47319   0.00000  Uiso   1.00
H351   H     0.54475   0.23122   0.15355   0.00000  Uiso   1.00
H352   H     0.89635   0.27184   0.48200   0.00000  Uiso   1.00
H353   H     0.69219   0.04274   0.34757   0.00000  Uiso   1.00
H354   H     0.53083   0.00932   0.39605   0.00000  Uiso   1.00
H355   H     0.69600   0.04188   0.24445   0.00000  Uiso   1.00
H356   H     0.86273   0.06114   0.40022   0.00000  Uiso   1.00
H357   H     0.33146   0.99732   0.45286   0.00000  Uiso   1.00
H358   H     0.67976   0.06596   0.13321   0.00000  Uiso   1.00
H359   H     0.03135   0.10658   0.46167   0.00000  Uiso   1.00
O360   O     0.15495   0.06144   0.49533   0.00000  Uiso   1.00
O361   O     0.61192   0.15151   0.07597   0.00000  Uiso   1.00
O362   O     0.07320   0.20480   0.50690   0.00000  Uiso   1.00
N363   N     0.25038   0.12826   0.46176   0.00000  Uiso   1.00
N364   N     0.57600   0.19244   0.16291   0.00000  Uiso   1.00
N365   N     0.90473   0.23042   0.46998   0.00000  Uiso   1.00
N366   N     0.32303   0.03934   0.45082   0.00000  Uiso   1.00
N367   N     0.64865   0.10352   0.15197   0.00000  Uiso   1.00
N368   N     0.97737   0.14150   0.45904   0.00000  Uiso   1.00
