data_job_03332
_audit_creation_date              2018-12-19
_audit_creation_method            'Materials Studio'
_symmetry_space_group_name_H-M    'P1'
_symmetry_Int_Tables_number       1
_symmetry_cell_setting            triclinic
loop_
_symmetry_equiv_pos_as_xyz
  x,y,z
_cell_length_a                    16.1643
_cell_length_b                    16.1643
_cell_length_c                    20.3333
_cell_angle_alpha                 90.0000
_cell_angle_beta                  90.0000
_cell_angle_gamma                 90.0000
loop_
_atom_site_label
_atom_site_type_symbol
_atom_site_fract_x
_atom_site_fract_y
_atom_site_fract_z
_atom_site_U_iso_or_equiv
_atom_site_adp_type
_atom_site_occupancy
C1     C     0.00718   0.37466   0.03393   0.00000  Uiso   1.00
C2     C     0.95477   0.35167   0.97431   0.00000  Uiso   1.00
C3     C     0.90677   0.40587   0.93763   0.00000  Uiso   1.00
C4     C     0.86337   0.37273   0.88492   0.00000  Uiso   1.00
C5     C     0.78127   0.34985   0.79471   0.00000  Uiso   1.00
C6     C     0.97746   0.31943   0.08995   0.00000  Uiso   1.00
C7     C     0.94855   0.34653   0.15051   0.00000  Uiso   1.00
C8     C     0.92427   0.28624   0.19515   0.00000  Uiso   1.00
C9     C     0.87747   0.21331   0.28450   0.00000  Uiso   1.00
C10    C     0.09498   0.34650   0.01809   0.00000  Uiso   1.00
C11    C     0.16488   0.39635   0.01823   0.00000  Uiso   1.00
C12    C     0.23955   0.35885   0.00238   0.00000  Uiso   1.00
C13    C     0.37520   0.32794   0.98014   0.00000  Uiso   1.00
C14    C     0.01547   0.21943   0.00555   0.00000  Uiso   1.00
C15    C     0.95927   0.26735   0.95890   0.00000  Uiso   1.00
C16    C     0.91594   0.23412   0.90623   0.00000  Uiso   1.00
C17    C     0.86788   0.28826   0.86948   0.00000  Uiso   1.00
C18    C     0.98197   0.23512   0.07454   0.00000  Uiso   1.00
C19    C     0.95773   0.17478   0.11911   0.00000  Uiso   1.00
C20    C     0.92878   0.20177   0.17971   0.00000  Uiso   1.00
C21    C     0.09948   0.26218   0.00267   0.00000  Uiso   1.00
C22    C     0.17405   0.22459   0.98683   0.00000  Uiso   1.00
C23    C     0.24406   0.27437   0.98694   0.00000  Uiso   1.00
H24    H     0.00367   0.44031   0.04593   0.00000  Uiso   1.00
H25    H     0.90329   0.47112   0.94957   0.00000  Uiso   1.00
H26    H     0.94508   0.41178   0.16242   0.00000  Uiso   1.00
H27    H     0.16137   0.46160   0.03016   0.00000  Uiso   1.00
H28    H     0.79396   0.46809   0.83596   0.00000  Uiso   1.00
H29    H     0.88211   0.34298   0.28477   0.00000  Uiso   1.00
H30    H     0.33820   0.44801   0.00587   0.00000  Uiso   1.00
H31    H     0.01898   0.15378   0.99356   0.00000  Uiso   1.00
H32    H     0.91944   0.16886   0.89432   0.00000  Uiso   1.00
H33    H     0.96123   0.10953   0.10717   0.00000  Uiso   1.00
H34    H     0.17752   0.15934   0.97490   0.00000  Uiso   1.00
H35    H     0.80707   0.22277   0.79111   0.00000  Uiso   1.00
H36    H     0.89522   0.09765   0.23993   0.00000  Uiso   1.00
H37    H     0.35131   0.20269   0.96102   0.00000  Uiso   1.00
O38    O     0.73474   0.36052   0.74921   0.00000  Uiso   1.00
O39    O     0.85040   0.19638   0.33804   0.00000  Uiso   1.00
O40    O     0.44878   0.33419   0.97212   0.00000  Uiso   1.00
N41    N     0.81072   0.40828   0.83901   0.00000  Uiso   1.00
N42    N     0.89312   0.29131   0.25862   0.00000  Uiso   1.00
N43    N     0.31953   0.38951   0.99789   0.00000  Uiso   1.00
N44    N     0.81777   0.27628   0.81488   0.00000  Uiso   1.00
N45    N     0.90017   0.15931   0.23449   0.00000  Uiso   1.00
N46    N     0.32658   0.25750   0.97376   0.00000  Uiso   1.00
C47    C     0.99282   0.62534   0.03393   0.00000  Uiso   1.00
C48    C     0.04523   0.64833   0.97431   0.00000  Uiso   1.00
C49    C     0.09323   0.59413   0.93763   0.00000  Uiso   1.00
C50    C     0.13663   0.62727   0.88492   0.00000  Uiso   1.00
C51    C     0.21873   0.65015   0.79471   0.00000  Uiso   1.00
C52    C     0.02254   0.68057   0.08995   0.00000  Uiso   1.00
C53    C     0.05145   0.65347   0.15051   0.00000  Uiso   1.00
C54    C     0.07573   0.71376   0.19515   0.00000  Uiso   1.00
C55    C     0.12253   0.78669   0.28450   0.00000  Uiso   1.00
C56    C     0.90502   0.65350   0.01809   0.00000  Uiso   1.00
C57    C     0.83512   0.60365   0.01823   0.00000  Uiso   1.00
C58    C     0.76045   0.64115   0.00238   0.00000  Uiso   1.00
C59    C     0.62480   0.67206   0.98014   0.00000  Uiso   1.00
C60    C     0.98453   0.78057   0.00555   0.00000  Uiso   1.00
C61    C     0.04073   0.73265   0.95890   0.00000  Uiso   1.00
C62    C     0.08406   0.76588   0.90623   0.00000  Uiso   1.00
C63    C     0.13212   0.71174   0.86948   0.00000  Uiso   1.00
C64    C     0.01803   0.76488   0.07454   0.00000  Uiso   1.00
C65    C     0.04227   0.82522   0.11911   0.00000  Uiso   1.00
C66    C     0.07122   0.79823   0.17971   0.00000  Uiso   1.00
C67    C     0.90052   0.73782   0.00267   0.00000  Uiso   1.00
C68    C     0.82595   0.77541   0.98683   0.00000  Uiso   1.00
C69    C     0.75594   0.72563   0.98694   0.00000  Uiso   1.00
H70    H     0.99633   0.55969   0.04593   0.00000  Uiso   1.00
H71    H     0.09671   0.52888   0.94957   0.00000  Uiso   1.00
H72    H     0.05492   0.58822   0.16242   0.00000  Uiso   1.00
H73    H     0.83863   0.53840   0.03016   0.00000  Uiso   1.00
H74    H     0.20604   0.53191   0.83596   0.00000  Uiso   1.00
H75    H     0.11789   0.65702   0.28477   0.00000  Uiso   1.00
H76    H     0.66180   0.55199   0.00587   0.00000  Uiso   1.00
H77    H     0.98102   0.84622   0.99356   0.00000  Uiso   1.00
H78    H     0.08056   0.83114   0.89432   0.00000  Uiso   1.00
H79    H     0.03877   0.89047   0.10717   0.00000  Uiso   1.00
H80    H     0.82248   0.84066   0.97490   0.00000  Uiso   1.00
H81    H     0.19293   0.77723   0.79111   0.00000  Uiso   1.00
H82    H     0.10478   0.90235   0.23993   0.00000  Uiso   1.00
H83    H     0.64869   0.79731   0.96102   0.00000  Uiso   1.00
O84    O     0.26526   0.63948   0.74921   0.00000  Uiso   1.00
O85    O     0.14960   0.80362   0.33804   0.00000  Uiso   1.00
O86    O     0.55122   0.66581   0.97212   0.00000  Uiso   1.00
N87    N     0.18928   0.59172   0.83901   0.00000  Uiso   1.00
N88    N     0.10688   0.70869   0.25862   0.00000  Uiso   1.00
N89    N     0.68047   0.61049   0.99789   0.00000  Uiso   1.00
N90    N     0.18223   0.72372   0.81488   0.00000  Uiso   1.00
N91    N     0.09983   0.84069   0.23449   0.00000  Uiso   1.00
N92    N     0.67342   0.74250   0.97376   0.00000  Uiso   1.00
C93    C     0.12534   0.50718   0.53393   0.00000  Uiso   1.00
C94    C     0.14833   0.45477   0.47431   0.00000  Uiso   1.00
C95    C     0.09413   0.40677   0.43763   0.00000  Uiso   1.00
C96    C     0.12727   0.36337   0.38492   0.00000  Uiso   1.00
C97    C     0.15015   0.28127   0.29471   0.00000  Uiso   1.00
C98    C     0.18057   0.47746   0.58995   0.00000  Uiso   1.00
C99    C     0.15347   0.44855   0.65051   0.00000  Uiso   1.00
C100   C     0.21376   0.42427   0.69515   0.00000  Uiso   1.00
C101   C     0.28669   0.37747   0.78450   0.00000  Uiso   1.00
C102   C     0.15350   0.59498   0.51809   0.00000  Uiso   1.00
C103   C     0.10365   0.66488   0.51823   0.00000  Uiso   1.00
C104   C     0.14115   0.73955   0.50238   0.00000  Uiso   1.00
C105   C     0.17206   0.87520   0.48014   0.00000  Uiso   1.00
C106   C     0.28057   0.51547   0.50555   0.00000  Uiso   1.00
C107   C     0.23265   0.45927   0.45890   0.00000  Uiso   1.00
C108   C     0.26588   0.41594   0.40623   0.00000  Uiso   1.00
C109   C     0.21174   0.36788   0.36948   0.00000  Uiso   1.00
C110   C     0.26488   0.48197   0.57454   0.00000  Uiso   1.00
C111   C     0.32522   0.45773   0.61911   0.00000  Uiso   1.00
C112   C     0.29823   0.42878   0.67971   0.00000  Uiso   1.00
C113   C     0.23782   0.59948   0.50267   0.00000  Uiso   1.00
C114   C     0.27541   0.67405   0.48683   0.00000  Uiso   1.00
C115   C     0.22563   0.74406   0.48694   0.00000  Uiso   1.00
H116   H     0.05969   0.50367   0.54593   0.00000  Uiso   1.00
H117   H     0.02888   0.40329   0.44957   0.00000  Uiso   1.00
H118   H     0.08822   0.44508   0.66242   0.00000  Uiso   1.00
H119   H     0.03840   0.66137   0.53016   0.00000  Uiso   1.00
H120   H     0.03191   0.29396   0.33596   0.00000  Uiso   1.00
H121   H     0.15702   0.38211   0.78477   0.00000  Uiso   1.00
H122   H     0.05199   0.83820   0.50587   0.00000  Uiso   1.00
H123   H     0.34622   0.51898   0.49356   0.00000  Uiso   1.00
H124   H     0.33114   0.41944   0.39432   0.00000  Uiso   1.00
H125   H     0.39047   0.46123   0.60717   0.00000  Uiso   1.00
H126   H     0.34066   0.67752   0.47490   0.00000  Uiso   1.00
H127   H     0.27723   0.30707   0.29111   0.00000  Uiso   1.00
H128   H     0.40235   0.39522   0.73993   0.00000  Uiso   1.00
H129   H     0.29731   0.85131   0.46102   0.00000  Uiso   1.00
O130   O     0.13948   0.23474   0.24921   0.00000  Uiso   1.00
O131   O     0.30362   0.35040   0.83804   0.00000  Uiso   1.00
O132   O     0.16581   0.94878   0.47212   0.00000  Uiso   1.00
N133   N     0.09172   0.31072   0.33901   0.00000  Uiso   1.00
N134   N     0.20869   0.39312   0.75862   0.00000  Uiso   1.00
N135   N     0.11049   0.81953   0.49789   0.00000  Uiso   1.00
N136   N     0.22372   0.31777   0.31488   0.00000  Uiso   1.00
N137   N     0.34069   0.40017   0.73449   0.00000  Uiso   1.00
N138   N     0.24250   0.82658   0.47376   0.00000  Uiso   1.00
C139   C     0.87466   0.49282   0.53393   0.00000  Uiso   1.00
C140   C     0.85167   0.54523   0.47431   0.00000  Uiso   1.00
C141   C     0.90587   0.59323   0.43763   0.00000  Uiso   1.00
C142   C     0.87273   0.63663   0.38492   0.00000  Uiso   1.00
C143   C     0.84985   0.71873   0.29471   0.00000  Uiso   1.00
C144   C     0.81943   0.52254   0.58995   0.00000  Uiso   1.00
C145   C     0.84653   0.55145   0.65051   0.00000  Uiso   1.00
C146   C     0.78624   0.57573   0.69515   0.00000  Uiso   1.00
C147   C     0.71331   0.62253   0.78450   0.00000  Uiso   1.00
C148   C     0.84650   0.40502   0.51809   0.00000  Uiso   1.00
C149   C     0.89635   0.33512   0.51823   0.00000  Uiso   1.00
C150   C     0.85885   0.26045   0.50238   0.00000  Uiso   1.00
C151   C     0.82794   0.12480   0.48014   0.00000  Uiso   1.00
C152   C     0.71943   0.48453   0.50555   0.00000  Uiso   1.00
C153   C     0.76735   0.54073   0.45890   0.00000  Uiso   1.00
C154   C     0.73412   0.58406   0.40623   0.00000  Uiso   1.00
C155   C     0.78826   0.63212   0.36948   0.00000  Uiso   1.00
C156   C     0.73512   0.51803   0.57454   0.00000  Uiso   1.00
C157   C     0.67478   0.54227   0.61911   0.00000  Uiso   1.00
C158   C     0.70177   0.57122   0.67971   0.00000  Uiso   1.00
C159   C     0.76218   0.40052   0.50267   0.00000  Uiso   1.00
C160   C     0.72459   0.32595   0.48683   0.00000  Uiso   1.00
C161   C     0.77437   0.25594   0.48694   0.00000  Uiso   1.00
H162   H     0.94031   0.49633   0.54593   0.00000  Uiso   1.00
H163   H     0.97112   0.59671   0.44957   0.00000  Uiso   1.00
H164   H     0.91178   0.55492   0.66242   0.00000  Uiso   1.00
H165   H     0.96160   0.33863   0.53016   0.00000  Uiso   1.00
H166   H     0.96809   0.70604   0.33596   0.00000  Uiso   1.00
H167   H     0.84298   0.61789   0.78477   0.00000  Uiso   1.00
H168   H     0.94801   0.16180   0.50587   0.00000  Uiso   1.00
H169   H     0.65378   0.48102   0.49356   0.00000  Uiso   1.00
H170   H     0.66886   0.58056   0.39432   0.00000  Uiso   1.00
H171   H     0.60953   0.53877   0.60717   0.00000  Uiso   1.00
H172   H     0.65934   0.32248   0.47490   0.00000  Uiso   1.00
H173   H     0.72277   0.69293   0.29111   0.00000  Uiso   1.00
H174   H     0.59765   0.60478   0.73993   0.00000  Uiso   1.00
H175   H     0.70269   0.14869   0.46102   0.00000  Uiso   1.00
O176   O     0.86052   0.76526   0.24921   0.00000  Uiso   1.00
O177   O     0.69638   0.64960   0.83804   0.00000  Uiso   1.00
O178   O     0.83419   0.05122   0.47212   0.00000  Uiso   1.00
N179   N     0.90828   0.68928   0.33901   0.00000  Uiso   1.00
N180   N     0.79131   0.60688   0.75862   0.00000  Uiso   1.00
N181   N     0.88951   0.18047   0.49789   0.00000  Uiso   1.00
N182   N     0.77628   0.68223   0.31488   0.00000  Uiso   1.00
N183   N     0.65931   0.59983   0.73449   0.00000  Uiso   1.00
N184   N     0.75750   0.17342   0.47376   0.00000  Uiso   1.00
C185   C     0.49282   0.12534   0.46607   0.00000  Uiso   1.00
C186   C     0.54523   0.14833   0.52569   0.00000  Uiso   1.00
C187   C     0.59323   0.09413   0.56237   0.00000  Uiso   1.00
C188   C     0.63663   0.12727   0.61508   0.00000  Uiso   1.00
C189   C     0.71873   0.15015   0.70529   0.00000  Uiso   1.00
C190   C     0.52254   0.18057   0.41005   0.00000  Uiso   1.00
C191   C     0.55145   0.15347   0.34949   0.00000  Uiso   1.00
C192   C     0.57573   0.21376   0.30485   0.00000  Uiso   1.00
C193   C     0.62253   0.28669   0.21550   0.00000  Uiso   1.00
C194   C     0.40502   0.15350   0.48191   0.00000  Uiso   1.00
C195   C     0.33512   0.10365   0.48177   0.00000  Uiso   1.00
C196   C     0.26045   0.14115   0.49762   0.00000  Uiso   1.00
C197   C     0.12480   0.17206   0.51986   0.00000  Uiso   1.00
C198   C     0.48453   0.28057   0.49445   0.00000  Uiso   1.00
C199   C     0.54073   0.23265   0.54110   0.00000  Uiso   1.00
C200   C     0.58406   0.26588   0.59377   0.00000  Uiso   1.00
C201   C     0.63212   0.21174   0.63052   0.00000  Uiso   1.00
C202   C     0.51803   0.26488   0.42546   0.00000  Uiso   1.00
C203   C     0.54227   0.32522   0.38089   0.00000  Uiso   1.00
C204   C     0.57122   0.29823   0.32029   0.00000  Uiso   1.00
C205   C     0.40052   0.23782   0.49733   0.00000  Uiso   1.00
C206   C     0.32595   0.27541   0.51317   0.00000  Uiso   1.00
C207   C     0.25594   0.22563   0.51306   0.00000  Uiso   1.00
H208   H     0.49633   0.05969   0.45407   0.00000  Uiso   1.00
H209   H     0.59671   0.02888   0.55043   0.00000  Uiso   1.00
H210   H     0.55492   0.08822   0.33758   0.00000  Uiso   1.00
H211   H     0.33863   0.03840   0.46984   0.00000  Uiso   1.00
H212   H     0.70604   0.03191   0.66404   0.00000  Uiso   1.00
H213   H     0.61789   0.15702   0.21523   0.00000  Uiso   1.00
H214   H     0.16180   0.05199   0.49413   0.00000  Uiso   1.00
H215   H     0.48102   0.34622   0.50644   0.00000  Uiso   1.00
H216   H     0.58056   0.33114   0.60568   0.00000  Uiso   1.00
H217   H     0.53877   0.39047   0.39283   0.00000  Uiso   1.00
H218   H     0.32248   0.34066   0.52510   0.00000  Uiso   1.00
H219   H     0.69293   0.27723   0.70889   0.00000  Uiso   1.00
H220   H     0.60478   0.40235   0.26007   0.00000  Uiso   1.00
H221   H     0.14869   0.29731   0.53898   0.00000  Uiso   1.00
O222   O     0.76526   0.13948   0.75079   0.00000  Uiso   1.00
O223   O     0.64960   0.30362   0.16196   0.00000  Uiso   1.00
O224   O     0.05122   0.16581   0.52788   0.00000  Uiso   1.00
N225   N     0.68928   0.09172   0.66099   0.00000  Uiso   1.00
N226   N     0.60688   0.20869   0.24138   0.00000  Uiso   1.00
N227   N     0.18047   0.11049   0.50211   0.00000  Uiso   1.00
N228   N     0.68223   0.22372   0.68512   0.00000  Uiso   1.00
N229   N     0.59983   0.34069   0.26551   0.00000  Uiso   1.00
N230   N     0.17342   0.24250   0.52624   0.00000  Uiso   1.00
C231   C     0.50718   0.87466   0.46607   0.00000  Uiso   1.00
C232   C     0.45477   0.85167   0.52569   0.00000  Uiso   1.00
C233   C     0.40677   0.90587   0.56237   0.00000  Uiso   1.00
C234   C     0.36337   0.87273   0.61508   0.00000  Uiso   1.00
C235   C     0.28127   0.84985   0.70529   0.00000  Uiso   1.00
C236   C     0.47746   0.81943   0.41005   0.00000  Uiso   1.00
C237   C     0.44855   0.84653   0.34949   0.00000  Uiso   1.00
C238   C     0.42427   0.78624   0.30485   0.00000  Uiso   1.00
C239   C     0.37747   0.71331   0.21550   0.00000  Uiso   1.00
C240   C     0.59498   0.84650   0.48191   0.00000  Uiso   1.00
C241   C     0.66488   0.89635   0.48177   0.00000  Uiso   1.00
C242   C     0.73955   0.85885   0.49762   0.00000  Uiso   1.00
C243   C     0.87520   0.82794   0.51986   0.00000  Uiso   1.00
C244   C     0.51547   0.71943   0.49445   0.00000  Uiso   1.00
C245   C     0.45927   0.76735   0.54110   0.00000  Uiso   1.00
C246   C     0.41594   0.73412   0.59377   0.00000  Uiso   1.00
C247   C     0.36788   0.78826   0.63052   0.00000  Uiso   1.00
C248   C     0.48197   0.73512   0.42546   0.00000  Uiso   1.00
C249   C     0.45773   0.67478   0.38089   0.00000  Uiso   1.00
C250   C     0.42878   0.70177   0.32029   0.00000  Uiso   1.00
C251   C     0.59948   0.76218   0.49733   0.00000  Uiso   1.00
C252   C     0.67405   0.72459   0.51317   0.00000  Uiso   1.00
C253   C     0.74406   0.77437   0.51306   0.00000  Uiso   1.00
H254   H     0.50367   0.94031   0.45407   0.00000  Uiso   1.00
H255   H     0.40329   0.97112   0.55043   0.00000  Uiso   1.00
H256   H     0.44508   0.91178   0.33758   0.00000  Uiso   1.00
H257   H     0.66137   0.96160   0.46984   0.00000  Uiso   1.00
H258   H     0.29396   0.96809   0.66404   0.00000  Uiso   1.00
H259   H     0.38211   0.84298   0.21523   0.00000  Uiso   1.00
H260   H     0.83820   0.94801   0.49413   0.00000  Uiso   1.00
H261   H     0.51898   0.65378   0.50644   0.00000  Uiso   1.00
H262   H     0.41944   0.66886   0.60568   0.00000  Uiso   1.00
H263   H     0.46123   0.60953   0.39283   0.00000  Uiso   1.00
H264   H     0.67752   0.65934   0.52510   0.00000  Uiso   1.00
H265   H     0.30707   0.72277   0.70889   0.00000  Uiso   1.00
H266   H     0.39522   0.59765   0.26007   0.00000  Uiso   1.00
H267   H     0.85131   0.70269   0.53898   0.00000  Uiso   1.00
O268   O     0.23474   0.86052   0.75079   0.00000  Uiso   1.00
O269   O     0.35040   0.69638   0.16196   0.00000  Uiso   1.00
O270   O     0.94878   0.83419   0.52788   0.00000  Uiso   1.00
N271   N     0.31072   0.90828   0.66099   0.00000  Uiso   1.00
N272   N     0.39312   0.79131   0.24138   0.00000  Uiso   1.00
N273   N     0.81953   0.88951   0.50211   0.00000  Uiso   1.00
N274   N     0.31777   0.77628   0.68512   0.00000  Uiso   1.00
N275   N     0.40017   0.65931   0.26551   0.00000  Uiso   1.00
N276   N     0.82658   0.75750   0.52624   0.00000  Uiso   1.00
C277   C     0.37466   0.99282   0.96607   0.00000  Uiso   1.00
C278   C     0.35167   0.04523   0.02569   0.00000  Uiso   1.00
C279   C     0.40587   0.09323   0.06237   0.00000  Uiso   1.00
C280   C     0.37273   0.13663   0.11508   0.00000  Uiso   1.00
C281   C     0.34985   0.21873   0.20529   0.00000  Uiso   1.00
C282   C     0.31943   0.02254   0.91005   0.00000  Uiso   1.00
C283   C     0.34653   0.05145   0.84949   0.00000  Uiso   1.00
C284   C     0.28624   0.07573   0.80485   0.00000  Uiso   1.00
C285   C     0.21331   0.12253   0.71550   0.00000  Uiso   1.00
C286   C     0.34650   0.90502   0.98191   0.00000  Uiso   1.00
C287   C     0.39635   0.83512   0.98177   0.00000  Uiso   1.00
C288   C     0.35885   0.76045   0.99762   0.00000  Uiso   1.00
C289   C     0.32794   0.62480   0.01986   0.00000  Uiso   1.00
C290   C     0.21943   0.98453   0.99445   0.00000  Uiso   1.00
C291   C     0.26735   0.04073   0.04110   0.00000  Uiso   1.00
C292   C     0.23412   0.08406   0.09377   0.00000  Uiso   1.00
C293   C     0.28826   0.13212   0.13052   0.00000  Uiso   1.00
C294   C     0.23512   0.01803   0.92546   0.00000  Uiso   1.00
C295   C     0.17478   0.04227   0.88089   0.00000  Uiso   1.00
C296   C     0.20177   0.07122   0.82029   0.00000  Uiso   1.00
C297   C     0.26218   0.90052   0.99733   0.00000  Uiso   1.00
C298   C     0.22459   0.82595   0.01317   0.00000  Uiso   1.00
C299   C     0.27437   0.75594   0.01306   0.00000  Uiso   1.00
H300   H     0.44031   0.99633   0.95407   0.00000  Uiso   1.00
H301   H     0.47112   0.09671   0.05043   0.00000  Uiso   1.00
H302   H     0.41178   0.05492   0.83758   0.00000  Uiso   1.00
H303   H     0.46160   0.83863   0.96984   0.00000  Uiso   1.00
H304   H     0.46809   0.20604   0.16404   0.00000  Uiso   1.00
H305   H     0.34298   0.11789   0.71523   0.00000  Uiso   1.00
H306   H     0.44801   0.66180   0.99413   0.00000  Uiso   1.00
H307   H     0.15378   0.98102   0.00644   0.00000  Uiso   1.00
H308   H     0.16886   0.08056   0.10568   0.00000  Uiso   1.00
H309   H     0.10953   0.03877   0.89283   0.00000  Uiso   1.00
H310   H     0.15934   0.82248   0.02510   0.00000  Uiso   1.00
H311   H     0.22277   0.19293   0.20889   0.00000  Uiso   1.00
H312   H     0.09765   0.10478   0.76007   0.00000  Uiso   1.00
H313   H     0.20269   0.64869   0.03898   0.00000  Uiso   1.00
O314   O     0.36052   0.26526   0.25079   0.00000  Uiso   1.00
O315   O     0.19638   0.14960   0.66196   0.00000  Uiso   1.00
O316   O     0.33419   0.55122   0.02788   0.00000  Uiso   1.00
N317   N     0.40828   0.18928   0.16099   0.00000  Uiso   1.00
N318   N     0.29131   0.10688   0.74138   0.00000  Uiso   1.00
N319   N     0.38951   0.68047   0.00211   0.00000  Uiso   1.00
N320   N     0.27628   0.18223   0.18512   0.00000  Uiso   1.00
N321   N     0.15931   0.09983   0.76551   0.00000  Uiso   1.00
N322   N     0.25750   0.67342   0.02624   0.00000  Uiso   1.00
C323   C     0.62534   0.00718   0.96607   0.00000  Uiso   1.00
C324   C     0.64833   0.95477   0.02569   0.00000  Uiso   1.00
C325   C     0.59413   0.90677   0.06237   0.00000  Uiso   1.00
C326   C     0.62727   0.86337   0.11508   0.00000  Uiso   1.00
C327   C     0.65015   0.78127   0.20529   0.00000  Uiso   1.00
C328   C     0.68057   0.97746   0.91005   0.00000  Uiso   1.00
C329   C     0.65347   0.94855   0.84949   0.00000  Uiso   1.00
C330   C     0.71376   0.92427   0.80485   0.00000  Uiso   1.00
C331   C     0.78669   0.87747   0.71550   0.00000  Uiso   1.00
C332   C     0.65350   0.09498   0.98191   0.00000  Uiso   1.00
C333   C     0.60365   0.16488   0.98177   0.00000  Uiso   1.00
C334   C     0.64115   0.23955   0.99762   0.00000  Uiso   1.00
C335   C     0.67206   0.37520   0.01986   0.00000  Uiso   1.00
C336   C     0.78057   0.01547   0.99445   0.00000  Uiso   1.00
C337   C     0.73265   0.95927   0.04110   0.00000  Uiso   1.00
C338   C     0.76588   0.91594   0.09377   0.00000  Uiso   1.00
C339   C     0.71174   0.86788   0.13052   0.00000  Uiso   1.00
C340   C     0.76488   0.98197   0.92546   0.00000  Uiso   1.00
C341   C     0.82522   0.95773   0.88089   0.00000  Uiso   1.00
C342   C     0.79823   0.92878   0.82029   0.00000  Uiso   1.00
C343   C     0.73782   0.09948   0.99733   0.00000  Uiso   1.00
C344   C     0.77541   0.17405   0.01317   0.00000  Uiso   1.00
C345   C     0.72563   0.24406   0.01306   0.00000  Uiso   1.00
H346   H     0.55969   0.00367   0.95407   0.00000  Uiso   1.00
H347   H     0.52888   0.90329   0.05043   0.00000  Uiso   1.00
H348   H     0.58822   0.94508   0.83758   0.00000  Uiso   1.00
H349   H     0.53840   0.16137   0.96984   0.00000  Uiso   1.00
H350   H     0.53191   0.79396   0.16404   0.00000  Uiso   1.00
H351   H     0.65702   0.88211   0.71523   0.00000  Uiso   1.00
H352   H     0.55199   0.33820   0.99413   0.00000  Uiso   1.00
H353   H     0.84622   0.01898   0.00644   0.00000  Uiso   1.00
H354   H     0.83114   0.91944   0.10568   0.00000  Uiso   1.00
H355   H     0.89047   0.96123   0.89283   0.00000  Uiso   1.00
H356   H     0.84066   0.17752   0.02510   0.00000  Uiso   1.00
H357   H     0.77723   0.80707   0.20889   0.00000  Uiso   1.00
H358   H     0.90235   0.89522   0.76007   0.00000  Uiso   1.00
H359   H     0.79731   0.35131   0.03898   0.00000  Uiso   1.00
O360   O     0.63948   0.73474   0.25079   0.00000  Uiso   1.00
O361   O     0.80362   0.85040   0.66196   0.00000  Uiso   1.00
O362   O     0.66581   0.44878   0.02788   0.00000  Uiso   1.00
N363   N     0.59172   0.81072   0.16099   0.00000  Uiso   1.00
N364   N     0.70869   0.89312   0.74138   0.00000  Uiso   1.00
N365   N     0.61049   0.31953   0.00211   0.00000  Uiso   1.00
N366   N     0.72372   0.81777   0.18512   0.00000  Uiso   1.00
N367   N     0.84069   0.90017   0.76551   0.00000  Uiso   1.00
N368   N     0.74250   0.32658   0.02624   0.00000  Uiso   1.00
