data_job_06002
_audit_creation_date              2018-12-19
_audit_creation_method            'Materials Studio'
_symmetry_space_group_name_H-M    'P1'
_symmetry_Int_Tables_number       1
_symmetry_cell_setting            triclinic
loop_
_symmetry_equiv_pos_as_xyz
  x,y,z
_cell_length_a                    9.4002
_cell_length_b                    20.9217
_cell_length_c                    20.9897
_cell_angle_alpha                 117.8210
_cell_angle_beta                  81.1271
_cell_angle_gamma                 81.9854
loop_
_atom_site_label
_atom_site_type_symbol
_atom_site_fract_x
_atom_site_fract_y
_atom_site_fract_z
_atom_site_U_iso_or_equiv
_atom_site_adp_type
_atom_site_occupancy
C1     C     0.69727   0.63122   0.94928   0.00000  Uiso   1.00
C2     C     0.77803   0.55326   0.88583   0.00000  Uiso   1.00
C3     C     0.88493   0.50324   0.88980   0.00000  Uiso   1.00
C4     C     0.94562   0.43470   0.82563   0.00000  Uiso   1.00
C5     C     0.07787   0.31637   0.73710   0.00000  Uiso   1.00
C6     C     0.72529   0.68425   0.92045   0.00000  Uiso   1.00
C7     C     0.78782   0.74436   0.95352   0.00000  Uiso   1.00
C8     C     0.80409   0.78610   0.91850   0.00000  Uiso   1.00
C9     C     0.85435   0.87116   0.88374   0.00000  Uiso   1.00
C10    C     0.53212   0.63371   0.95863   0.00000  Uiso   1.00
C11    C     0.43222   0.65134   0.02382   0.00000  Uiso   1.00
C12    C     0.28585   0.65054   0.02096   0.00000  Uiso   1.00
C13    C     0.03619   0.65712   0.04549   0.00000  Uiso   1.00
C14    C     0.61497   0.59846   0.82828   0.00000  Uiso   1.00
C15    C     0.73333   0.53547   0.82011   0.00000  Uiso   1.00
C16    C     0.79387   0.46699   0.75592   0.00000  Uiso   1.00
C17    C     0.90084   0.41687   0.75979   0.00000  Uiso   1.00
C18    C     0.68058   0.66646   0.85472   0.00000  Uiso   1.00
C19    C     0.69676   0.70812   0.81965   0.00000  Uiso   1.00
C20    C     0.75931   0.76827   0.85266   0.00000  Uiso   1.00
C21    C     0.48741   0.61591   0.89291   0.00000  Uiso   1.00
C22    C     0.34117   0.61509   0.88995   0.00000  Uiso   1.00
C23    C     0.24107   0.63271   0.95512   0.00000  Uiso   1.00
H24    H     0.73208   0.64508   0.00044   0.00000  Uiso   1.00
H25    H     0.91950   0.51703   0.94067   0.00000  Uiso   1.00
H26    H     0.82239   0.75812   0.00439   0.00000  Uiso   1.00
H27    H     0.46685   0.66511   0.07467   0.00000  Uiso   1.00
H28    H     0.10762   0.36723   0.84540   0.00000  Uiso   1.00
H29    H     0.90280   0.87560   0.97977   0.00000  Uiso   1.00
H30    H     0.15308   0.67946   0.12798   0.00000  Uiso   1.00
H31    H     0.58017   0.58461   0.77711   0.00000  Uiso   1.00
H32    H     0.75925   0.45324   0.70507   0.00000  Uiso   1.00
H33    H     0.66214   0.69433   0.76879   0.00000  Uiso   1.00
H34    H     0.30661   0.60132   0.83908   0.00000  Uiso   1.00
H35    H     0.97756   0.31545   0.65418   0.00000  Uiso   1.00
H36    H     0.77274   0.82383   0.78856   0.00000  Uiso   1.00
H37    H     0.02303   0.62769   0.93676   0.00000  Uiso   1.00
O38    O     0.16318   0.25602   0.70643   0.00000  Uiso   1.00
O39    O     0.89444   0.92299   0.88273   0.00000  Uiso   1.00
O40    O     0.91083   0.66566   0.07717   0.00000  Uiso   1.00
N41    N     0.05241   0.37307   0.81029   0.00000  Uiso   1.00
N42    N     0.86094   0.84836   0.93591   0.00000  Uiso   1.00
N43    N     0.16001   0.66500   0.07448   0.00000  Uiso   1.00
N44    N     0.98243   0.34521   0.70739   0.00000  Uiso   1.00
N45    N     0.79096   0.82050   0.83302   0.00000  Uiso   1.00
N46    N     0.09003   0.63714   0.97159   0.00000  Uiso   1.00
C47    C     0.64558   0.05242   0.68021   0.00000  Uiso   1.00
C48    C     0.66415   0.11608   0.66566   0.00000  Uiso   1.00
C49    C     0.77578   0.11241   0.61154   0.00000  Uiso   1.00
C50    C     0.77343   0.17673   0.60715   0.00000  Uiso   1.00
C51    C     0.81905   0.26561   0.57728   0.00000  Uiso   1.00
C52    C     0.64396   0.08128   0.76186   0.00000  Uiso   1.00
C53    C     0.73861   0.04835   0.78861   0.00000  Uiso   1.00
C54    C     0.71924   0.08337   0.86521   0.00000  Uiso   1.00
C55    C     0.73345   0.11820   0.98469   0.00000  Uiso   1.00
C56    C     0.48974   0.04265   0.67372   0.00000  Uiso   1.00
C57    C     0.45471   0.97723   0.62639   0.00000  Uiso   1.00
C58    C     0.30549   0.97972   0.62880   0.00000  Uiso   1.00
C59    C     0.08025   0.95456   0.61144   0.00000  Uiso   1.00
C60    C     0.44288   0.17316   0.76866   0.00000  Uiso   1.00
C61    C     0.55405   0.18166   0.71370   0.00000  Uiso   1.00
C62    C     0.55152   0.24600   0.70940   0.00000  Uiso   1.00
C63    C     0.66313   0.24243   0.65528   0.00000  Uiso   1.00
C64    C     0.53387   0.14686   0.80990   0.00000  Uiso   1.00
C65    C     0.51435   0.18194   0.88647   0.00000  Uiso   1.00
C66    C     0.60895   0.14907   0.91334   0.00000  Uiso   1.00
C67    C     0.37964   0.10823   0.72176   0.00000  Uiso   1.00
C68    C     0.23045   0.11082   0.72425   0.00000  Uiso   1.00
C69    C     0.19520   0.04542   0.67693   0.00000  Uiso   1.00
H70    H     0.73130   0.00136   0.64281   0.00000  Uiso   1.00
H71    H     0.86097   0.06165   0.57437   0.00000  Uiso   1.00
H72    H     0.82379   0.99759   0.75142   0.00000  Uiso   1.00
H73    H     0.53994   0.92649   0.58922   0.00000  Uiso   1.00
H74    H     0.95622   0.15742   0.51971   0.00000  Uiso   1.00
H75    H     0.87779   0.02234   0.89303   0.00000  Uiso   1.00
H76    H     0.27922   0.87240   0.55100   0.00000  Uiso   1.00
H77    H     0.35716   0.22423   0.80606   0.00000  Uiso   1.00
H78    H     0.46631   0.29675   0.74658   0.00000  Uiso   1.00
H79    H     0.42913   0.23269   0.92363   0.00000  Uiso   1.00
H80    H     0.14528   0.16158   0.76143   0.00000  Uiso   1.00
H81    H     0.63590   0.34823   0.65948   0.00000  Uiso   1.00
H82    H     0.55746   0.21315   0.03280   0.00000  Uiso   1.00
H83    H     0.95890   0.06321   0.69077   0.00000  Uiso   1.00
O84    O     0.87464   0.29652   0.54754   0.00000  Uiso   1.00
O85    O     0.77172   0.11929   0.03732   0.00000  Uiso   1.00
O86    O     0.98642   0.92257   0.58858   0.00000  Uiso   1.00
N87    N     0.86583   0.19237   0.56076   0.00000  Uiso   1.00
N88    N     0.79252   0.06609   0.90979   0.00000  Uiso   1.00
N89    N     0.23291   0.92590   0.59003   0.00000  Uiso   1.00
N90    N     0.69347   0.29505   0.63597   0.00000  Uiso   1.00
N91    N     0.62016   0.16876   0.98500   0.00000  Uiso   1.00
N92    N     0.06055   0.02857   0.66524   0.00000  Uiso   1.00
C93    C     0.32602   0.32155   0.37066   0.00000  Uiso   1.00
C94    C     0.32907   0.33610   0.44865   0.00000  Uiso   1.00
C95    C     0.38668   0.39048   0.49883   0.00000  Uiso   1.00
C96    C     0.37894   0.39482   0.56737   0.00000  Uiso   1.00
C97    C     0.39333   0.42475   0.68579   0.00000  Uiso   1.00
C98    C     0.40554   0.23992   0.31784   0.00000  Uiso   1.00
C99    C     0.52744   0.21343   0.25802   0.00000  Uiso   1.00
C100   C     0.58407   0.13681   0.21645   0.00000  Uiso   1.00
C101   C     0.71712   0.01741   0.13174   0.00000  Uiso   1.00
C102   C     0.16386   0.32764   0.36775   0.00000  Uiso   1.00
C103   C     0.08255   0.37488   0.34988   0.00000  Uiso   1.00
C104   C     0.93570   0.37210   0.35031   0.00000  Uiso   1.00
C105   C     0.69351   0.38889   0.34310   0.00000  Uiso   1.00
C106   C     0.20984   0.23257   0.40318   0.00000  Uiso   1.00
C107   C     0.26596   0.28777   0.46632   0.00000  Uiso   1.00
C108   C     0.25813   0.29203   0.53481   0.00000  Uiso   1.00
C109   C     0.31572   0.34641   0.58508   0.00000  Uiso   1.00
C110   C     0.34244   0.19159   0.33551   0.00000  Uiso   1.00
C111   C     0.39889   0.11499   0.29401   0.00000  Uiso   1.00
C112   C     0.52085   0.08839   0.23415   0.00000  Uiso   1.00
C113   C     0.10075   0.27931   0.38542   0.00000  Uiso   1.00
C114   C     0.95400   0.27644   0.38587   0.00000  Uiso   1.00
C115   C     0.87248   0.32368   0.36801   0.00000  Uiso   1.00
H116   H     0.37516   0.35917   0.35690   0.00000  Uiso   1.00
H117   H     0.43552   0.42787   0.48513   0.00000  Uiso   1.00
H118   H     0.57624   0.25085   0.24436   0.00000  Uiso   1.00
H119   H     0.13142   0.41228   0.33621   0.00000  Uiso   1.00
H120   H     0.47465   0.48270   0.63508   0.00000  Uiso   1.00
H121   H     0.77135   0.10944   0.12739   0.00000  Uiso   1.00
H122   H     0.83336   0.44985   0.32107   0.00000  Uiso   1.00
H123   H     0.16071   0.19494   0.41693   0.00000  Uiso   1.00
H124   H     0.20929   0.25462   0.54847   0.00000  Uiso   1.00
H125   H     0.35002   0.07760   0.30769   0.00000  Uiso   1.00
H126   H     0.90520   0.23903   0.39954   0.00000  Uiso   1.00
H127   H     0.29105   0.34209   0.68648   0.00000  Uiso   1.00
H128   H     0.58774   0.96883   0.17879   0.00000  Uiso   1.00
H129   H     0.64975   0.30923   0.37247   0.00000  Uiso   1.00
O130   O     0.41872   0.45460   0.74622   0.00000  Uiso   1.00
O131   O     0.80796   0.96490   0.08014   0.00000  Uiso   1.00
O132   O     0.57734   0.41151   0.33425   0.00000  Uiso   1.00
N133   N     0.42475   0.44143   0.62913   0.00000  Uiso   1.00
N134   N     0.70215   0.09245   0.15448   0.00000  Uiso   1.00
N135   N     0.82522   0.41069   0.33554   0.00000  Uiso   1.00
N136   N     0.32595   0.36576   0.65679   0.00000  Uiso   1.00
N137   N     0.60335   0.01679   0.18214   0.00000  Uiso   1.00
N138   N     0.72643   0.33503   0.36320   0.00000  Uiso   1.00
C139   C     0.30273   0.36878   0.05072   0.00000  Uiso   1.00
C140   C     0.22197   0.44674   0.11417   0.00000  Uiso   1.00
C141   C     0.11507   0.49676   0.11020   0.00000  Uiso   1.00
C142   C     0.05438   0.56530   0.17437   0.00000  Uiso   1.00
C143   C     0.92213   0.68363   0.26290   0.00000  Uiso   1.00
C144   C     0.27472   0.31575   0.07955   0.00000  Uiso   1.00
C145   C     0.21218   0.25564   0.04648   0.00000  Uiso   1.00
C146   C     0.19591   0.21390   0.08150   0.00000  Uiso   1.00
C147   C     0.14565   0.12884   0.11626   0.00000  Uiso   1.00
C148   C     0.46788   0.36629   0.04137   0.00000  Uiso   1.00
C149   C     0.56778   0.34866   0.97618   0.00000  Uiso   1.00
C150   C     0.71415   0.34946   0.97904   0.00000  Uiso   1.00
C151   C     0.96381   0.34288   0.95451   0.00000  Uiso   1.00
C152   C     0.38503   0.40154   0.17172   0.00000  Uiso   1.00
C153   C     0.26667   0.46453   0.17989   0.00000  Uiso   1.00
C154   C     0.20613   0.53301   0.24408   0.00000  Uiso   1.00
C155   C     0.09916   0.58313   0.24021   0.00000  Uiso   1.00
C156   C     0.31942   0.33354   0.14528   0.00000  Uiso   1.00
C157   C     0.30324   0.29188   0.18035   0.00000  Uiso   1.00
C158   C     0.24069   0.23173   0.14734   0.00000  Uiso   1.00
C159   C     0.51259   0.38409   0.10709   0.00000  Uiso   1.00
C160   C     0.65883   0.38491   0.11005   0.00000  Uiso   1.00
C161   C     0.75893   0.36729   0.04488   0.00000  Uiso   1.00
H162   H     0.26792   0.35492   0.99956   0.00000  Uiso   1.00
H163   H     0.08050   0.48297   0.05933   0.00000  Uiso   1.00
H164   H     0.17761   0.24188   0.99561   0.00000  Uiso   1.00
H165   H     0.53315   0.33489   0.92533   0.00000  Uiso   1.00
H166   H     0.89238   0.63277   0.15460   0.00000  Uiso   1.00
H167   H     0.09720   0.12440   0.02023   0.00000  Uiso   1.00
H168   H     0.84692   0.32054   0.87202   0.00000  Uiso   1.00
H169   H     0.41983   0.41539   0.22289   0.00000  Uiso   1.00
H170   H     0.24075   0.54676   0.29493   0.00000  Uiso   1.00
H171   H     0.33786   0.30567   0.23121   0.00000  Uiso   1.00
H172   H     0.69339   0.39868   0.16092   0.00000  Uiso   1.00
H173   H     0.02244   0.68455   0.34582   0.00000  Uiso   1.00
H174   H     0.22726   0.17617   0.21144   0.00000  Uiso   1.00
H175   H     0.97697   0.37231   0.06324   0.00000  Uiso   1.00
O176   O     0.83682   0.74398   0.29357   0.00000  Uiso   1.00
O177   O     0.10556   0.07701   0.11727   0.00000  Uiso   1.00
O178   O     0.08917   0.33434   0.92283   0.00000  Uiso   1.00
N179   N     0.94759   0.62694   0.18971   0.00000  Uiso   1.00
N180   N     0.13906   0.15165   0.06409   0.00000  Uiso   1.00
N181   N     0.83999   0.33500   0.92552   0.00000  Uiso   1.00
N182   N     0.01757   0.65479   0.29261   0.00000  Uiso   1.00
N183   N     0.20904   0.17951   0.16698   0.00000  Uiso   1.00
N184   N     0.90997   0.36286   0.02841   0.00000  Uiso   1.00
C185   C     0.35442   0.94758   0.31979   0.00000  Uiso   1.00
C186   C     0.33585   0.88392   0.33434   0.00000  Uiso   1.00
C187   C     0.22422   0.88759   0.38846   0.00000  Uiso   1.00
C188   C     0.22657   0.82327   0.39285   0.00000  Uiso   1.00
C189   C     0.18095   0.73439   0.42272   0.00000  Uiso   1.00
C190   C     0.35604   0.91872   0.23814   0.00000  Uiso   1.00
C191   C     0.26139   0.95165   0.21139   0.00000  Uiso   1.00
C192   C     0.28076   0.91663   0.13479   0.00000  Uiso   1.00
C193   C     0.26655   0.88180   0.01531   0.00000  Uiso   1.00
C194   C     0.51026   0.95735   0.32628   0.00000  Uiso   1.00
C195   C     0.54529   0.02277   0.37361   0.00000  Uiso   1.00
C196   C     0.69451   0.02028   0.37120   0.00000  Uiso   1.00
C197   C     0.91975   0.04544   0.38856   0.00000  Uiso   1.00
C198   C     0.55712   0.82684   0.23134   0.00000  Uiso   1.00
C199   C     0.44595   0.81834   0.28630   0.00000  Uiso   1.00
C200   C     0.44848   0.75400   0.29060   0.00000  Uiso   1.00
C201   C     0.33687   0.75757   0.34472   0.00000  Uiso   1.00
C202   C     0.46613   0.85314   0.19010   0.00000  Uiso   1.00
C203   C     0.48565   0.81806   0.11353   0.00000  Uiso   1.00
C204   C     0.39105   0.85093   0.08666   0.00000  Uiso   1.00
C205   C     0.62036   0.89177   0.27824   0.00000  Uiso   1.00
C206   C     0.76955   0.88918   0.27575   0.00000  Uiso   1.00
C207   C     0.80480   0.95458   0.32307   0.00000  Uiso   1.00
H208   H     0.26870   0.99864   0.35719   0.00000  Uiso   1.00
H209   H     0.13903   0.93835   0.42563   0.00000  Uiso   1.00
H210   H     0.17621   0.00241   0.24858   0.00000  Uiso   1.00
H211   H     0.46006   0.07351   0.41078   0.00000  Uiso   1.00
H212   H     0.04378   0.84258   0.48029   0.00000  Uiso   1.00
H213   H     0.12221   0.97766   0.10697   0.00000  Uiso   1.00
H214   H     0.72078   0.12760   0.44900   0.00000  Uiso   1.00
H215   H     0.64284   0.77577   0.19394   0.00000  Uiso   1.00
H216   H     0.53369   0.70326   0.25342   0.00000  Uiso   1.00
H217   H     0.57087   0.76731   0.07637   0.00000  Uiso   1.00
H218   H     0.85472   0.83842   0.23857   0.00000  Uiso   1.00
H219   H     0.36410   0.65177   0.34052   0.00000  Uiso   1.00
H220   H     0.44254   0.78685   0.96720   0.00000  Uiso   1.00
H221   H     0.04110   0.93679   0.30923   0.00000  Uiso   1.00
O222   O     0.12536   0.70348   0.45246   0.00000  Uiso   1.00
O223   O     0.22828   0.88071   0.96268   0.00000  Uiso   1.00
O224   O     0.01358   0.07743   0.41142   0.00000  Uiso   1.00
N225   N     0.13417   0.80763   0.43924   0.00000  Uiso   1.00
N226   N     0.20748   0.93391   0.09021   0.00000  Uiso   1.00
N227   N     0.76709   0.07410   0.40997   0.00000  Uiso   1.00
N228   N     0.30653   0.70495   0.36403   0.00000  Uiso   1.00
N229   N     0.37984   0.83124   0.01500   0.00000  Uiso   1.00
N230   N     0.93945   0.97143   0.33476   0.00000  Uiso   1.00
C231   C     0.67398   0.67845   0.62934   0.00000  Uiso   1.00
C232   C     0.67093   0.66390   0.55135   0.00000  Uiso   1.00
C233   C     0.61332   0.60952   0.50117   0.00000  Uiso   1.00
C234   C     0.62106   0.60518   0.43263   0.00000  Uiso   1.00
C235   C     0.60667   0.57525   0.31421   0.00000  Uiso   1.00
C236   C     0.59446   0.76008   0.68216   0.00000  Uiso   1.00
C237   C     0.47256   0.78657   0.74198   0.00000  Uiso   1.00
C238   C     0.41593   0.86319   0.78355   0.00000  Uiso   1.00
C239   C     0.28288   0.98259   0.86826   0.00000  Uiso   1.00
C240   C     0.83614   0.67236   0.63225   0.00000  Uiso   1.00
C241   C     0.91745   0.62512   0.65012   0.00000  Uiso   1.00
C242   C     0.06430   0.62790   0.64969   0.00000  Uiso   1.00
C243   C     0.30649   0.61111   0.65690   0.00000  Uiso   1.00
C244   C     0.79016   0.76743   0.59682   0.00000  Uiso   1.00
C245   C     0.73404   0.71223   0.53368   0.00000  Uiso   1.00
C246   C     0.74187   0.70797   0.46519   0.00000  Uiso   1.00
C247   C     0.68428   0.65359   0.41492   0.00000  Uiso   1.00
C248   C     0.65756   0.80841   0.66449   0.00000  Uiso   1.00
C249   C     0.60111   0.88501   0.70599   0.00000  Uiso   1.00
C250   C     0.47915   0.91161   0.76585   0.00000  Uiso   1.00
C251   C     0.89925   0.72069   0.61458   0.00000  Uiso   1.00
C252   C     0.04600   0.72356   0.61413   0.00000  Uiso   1.00
C253   C     0.12752   0.67632   0.63199   0.00000  Uiso   1.00
H254   H     0.62484   0.64083   0.64310   0.00000  Uiso   1.00
H255   H     0.56448   0.57213   0.51487   0.00000  Uiso   1.00
H256   H     0.42376   0.74915   0.75564   0.00000  Uiso   1.00
H257   H     0.86858   0.58772   0.66379   0.00000  Uiso   1.00
H258   H     0.52535   0.51730   0.36492   0.00000  Uiso   1.00
H259   H     0.22865   0.89056   0.87261   0.00000  Uiso   1.00
H260   H     0.16664   0.55015   0.67893   0.00000  Uiso   1.00
H261   H     0.83929   0.80507   0.58307   0.00000  Uiso   1.00
H262   H     0.79071   0.74538   0.45153   0.00000  Uiso   1.00
H263   H     0.64998   0.92240   0.69231   0.00000  Uiso   1.00
H264   H     0.09480   0.76097   0.60046   0.00000  Uiso   1.00
H265   H     0.70895   0.65791   0.31352   0.00000  Uiso   1.00
H266   H     0.41226   0.03118   0.82121   0.00000  Uiso   1.00
H267   H     0.35025   0.69077   0.62753   0.00000  Uiso   1.00
O268   O     0.58128   0.54540   0.25378   0.00000  Uiso   1.00
O269   O     0.19204   0.03510   0.91986   0.00000  Uiso   1.00
O270   O     0.42266   0.58849   0.66575   0.00000  Uiso   1.00
N271   N     0.57525   0.55858   0.37087   0.00000  Uiso   1.00
N272   N     0.29785   0.90755   0.84552   0.00000  Uiso   1.00
N273   N     0.17478   0.58931   0.66446   0.00000  Uiso   1.00
N274   N     0.67405   0.63424   0.34321   0.00000  Uiso   1.00
N275   N     0.39665   0.98321   0.81786   0.00000  Uiso   1.00
N276   N     0.27357   0.66497   0.63680   0.00000  Uiso   1.00
