data_job_03793
_audit_creation_date              2018-12-19
_audit_creation_method            'Materials Studio'
_symmetry_space_group_name_H-M    'P1'
_symmetry_Int_Tables_number       1
_symmetry_cell_setting            triclinic
loop_
_symmetry_equiv_pos_as_xyz
  x,y,z
_cell_length_a                    23.2860
_cell_length_b                    12.3018
_cell_length_c                    19.1160
_cell_angle_alpha                 90.0000
_cell_angle_beta                  90.0000
_cell_angle_gamma                 90.0000
loop_
_atom_site_label
_atom_site_type_symbol
_atom_site_fract_x
_atom_site_fract_y
_atom_site_fract_z
_atom_site_U_iso_or_equiv
_atom_site_adp_type
_atom_site_occupancy
C1     C     0.88068   0.78198   0.35214   0.00000  Uiso   1.00
C2     C     0.81872   0.80664   0.33176   0.00000  Uiso   1.00
C3     C     0.79592   0.79903   0.26486   0.00000  Uiso   1.00
C4     C     0.73827   0.82512   0.25703   0.00000  Uiso   1.00
C5     C     0.64718   0.85851   0.21670   0.00000  Uiso   1.00
C6     C     0.90339   0.88459   0.38733   0.00000  Uiso   1.00
C7     C     0.95178   0.94251   0.36717   0.00000  Uiso   1.00
C8     C     0.96541   0.03421   0.40612   0.00000  Uiso   1.00
C9     C     0.00579   0.18858   0.45210   0.00000  Uiso   1.00
C10    C     0.87755   0.69575   0.40932   0.00000  Uiso   1.00
C11    C     0.90424   0.59490   0.40765   0.00000  Uiso   1.00
C12    C     0.89612   0.52762   0.46512   0.00000  Uiso   1.00
C13    C     0.89639   0.38878   0.54523   0.00000  Uiso   1.00
C14    C     0.81884   0.84183   0.45719   0.00000  Uiso   1.00
C15    C     0.78513   0.83915   0.38882   0.00000  Uiso   1.00
C16    C     0.72750   0.86525   0.38108   0.00000  Uiso   1.00
C17    C     0.70462   0.85768   0.31419   0.00000  Uiso   1.00
C18    C     0.86980   0.91710   0.44439   0.00000  Uiso   1.00
C19    C     0.88337   0.00873   0.48339   0.00000  Uiso   1.00
C20    C     0.93176   0.06678   0.46328   0.00000  Uiso   1.00
C21    C     0.84397   0.72825   0.46637   0.00000  Uiso   1.00
C22    C     0.83581   0.66112   0.52386   0.00000  Uiso   1.00
C23    C     0.86247   0.56019   0.52228   0.00000  Uiso   1.00
H24    H     0.90683   0.75668   0.30772   0.00000  Uiso   1.00
H25    H     0.82193   0.77388   0.22072   0.00000  Uiso   1.00
H26    H     0.97777   0.91733   0.32302   0.00000  Uiso   1.00
H27    H     0.93022   0.56978   0.36349   0.00000  Uiso   1.00
H28    H     0.71299   0.80733   0.14942   0.00000  Uiso   1.00
H29    H     0.04160   0.10978   0.36513   0.00000  Uiso   1.00
H30    H     0.94135   0.37689   0.45047   0.00000  Uiso   1.00
H31    H     0.79269   0.86714   0.50161   0.00000  Uiso   1.00
H32    H     0.70152   0.89040   0.42525   0.00000  Uiso   1.00
H33    H     0.85736   0.03386   0.52754   0.00000  Uiso   1.00
H34    H     0.80982   0.68630   0.56801   0.00000  Uiso   1.00
H35    H     0.61526   0.90191   0.31542   0.00000  Uiso   1.00
H36    H     0.94388   0.20435   0.53113   0.00000  Uiso   1.00
H37    H     0.84362   0.47147   0.61647   0.00000  Uiso   1.00
O38    O     0.60621   0.86796   0.17869   0.00000  Uiso   1.00
O39    O     0.03735   0.26475   0.46169   0.00000  Uiso   1.00
O40    O     0.90581   0.30322   0.57365   0.00000  Uiso   1.00
N41    N     0.70250   0.82637   0.19897   0.00000  Uiso   1.00
N42    N     0.00972   0.10916   0.40064   0.00000  Uiso   1.00
N43    N     0.91601   0.42398   0.48043   0.00000  Uiso   1.00
N44    N     0.64991   0.87726   0.28830   0.00000  Uiso   1.00
N45    N     0.95714   0.16005   0.48996   0.00000  Uiso   1.00
N46    N     0.86342   0.47487   0.56975   0.00000  Uiso   1.00
C47    C     0.61932   0.21802   0.35214   0.00000  Uiso   1.00
C48    C     0.68128   0.19336   0.33176   0.00000  Uiso   1.00
C49    C     0.70408   0.20097   0.26486   0.00000  Uiso   1.00
C50    C     0.76173   0.17488   0.25703   0.00000  Uiso   1.00
C51    C     0.85282   0.14149   0.21670   0.00000  Uiso   1.00
C52    C     0.59661   0.11541   0.38733   0.00000  Uiso   1.00
C53    C     0.54822   0.05749   0.36717   0.00000  Uiso   1.00
C54    C     0.53459   0.96579   0.40612   0.00000  Uiso   1.00
C55    C     0.49421   0.81142   0.45210   0.00000  Uiso   1.00
C56    C     0.62245   0.30425   0.40932   0.00000  Uiso   1.00
C57    C     0.59576   0.40510   0.40765   0.00000  Uiso   1.00
C58    C     0.60388   0.47238   0.46512   0.00000  Uiso   1.00
C59    C     0.60361   0.61122   0.54523   0.00000  Uiso   1.00
C60    C     0.68116   0.15817   0.45719   0.00000  Uiso   1.00
C61    C     0.71487   0.16085   0.38882   0.00000  Uiso   1.00
C62    C     0.77250   0.13475   0.38108   0.00000  Uiso   1.00
C63    C     0.79538   0.14232   0.31419   0.00000  Uiso   1.00
C64    C     0.63020   0.08290   0.44439   0.00000  Uiso   1.00
C65    C     0.61663   0.99127   0.48339   0.00000  Uiso   1.00
C66    C     0.56824   0.93322   0.46328   0.00000  Uiso   1.00
C67    C     0.65603   0.27175   0.46637   0.00000  Uiso   1.00
C68    C     0.66419   0.33888   0.52386   0.00000  Uiso   1.00
C69    C     0.63753   0.43981   0.52228   0.00000  Uiso   1.00
H70    H     0.59317   0.24332   0.30772   0.00000  Uiso   1.00
H71    H     0.67807   0.22612   0.22072   0.00000  Uiso   1.00
H72    H     0.52223   0.08267   0.32302   0.00000  Uiso   1.00
H73    H     0.56978   0.43022   0.36349   0.00000  Uiso   1.00
H74    H     0.78701   0.19267   0.14942   0.00000  Uiso   1.00
H75    H     0.45840   0.89022   0.36513   0.00000  Uiso   1.00
H76    H     0.55865   0.62311   0.45047   0.00000  Uiso   1.00
H77    H     0.70731   0.13286   0.50161   0.00000  Uiso   1.00
H78    H     0.79848   0.10960   0.42525   0.00000  Uiso   1.00
H79    H     0.64264   0.96614   0.52754   0.00000  Uiso   1.00
H80    H     0.69018   0.31370   0.56801   0.00000  Uiso   1.00
H81    H     0.88474   0.09809   0.31542   0.00000  Uiso   1.00
H82    H     0.55612   0.79565   0.53113   0.00000  Uiso   1.00
H83    H     0.65638   0.52853   0.61647   0.00000  Uiso   1.00
O84    O     0.89379   0.13204   0.17869   0.00000  Uiso   1.00
O85    O     0.46265   0.73525   0.46169   0.00000  Uiso   1.00
O86    O     0.59419   0.69678   0.57365   0.00000  Uiso   1.00
N87    N     0.79750   0.17363   0.19897   0.00000  Uiso   1.00
N88    N     0.49028   0.89084   0.40064   0.00000  Uiso   1.00
N89    N     0.58399   0.57602   0.48043   0.00000  Uiso   1.00
N90    N     0.85009   0.12274   0.28830   0.00000  Uiso   1.00
N91    N     0.54286   0.83995   0.48996   0.00000  Uiso   1.00
N92    N     0.63658   0.52513   0.56975   0.00000  Uiso   1.00
C93    C     0.11932   0.78198   0.14786   0.00000  Uiso   1.00
C94    C     0.18128   0.80664   0.16824   0.00000  Uiso   1.00
C95    C     0.20408   0.79903   0.23514   0.00000  Uiso   1.00
C96    C     0.26173   0.82512   0.24297   0.00000  Uiso   1.00
C97    C     0.35282   0.85851   0.28330   0.00000  Uiso   1.00
C98    C     0.09661   0.88459   0.11267   0.00000  Uiso   1.00
C99    C     0.04822   0.94251   0.13283   0.00000  Uiso   1.00
C100   C     0.03459   0.03421   0.09388   0.00000  Uiso   1.00
C101   C     0.99421   0.18858   0.04790   0.00000  Uiso   1.00
C102   C     0.12245   0.69575   0.09068   0.00000  Uiso   1.00
C103   C     0.09576   0.59490   0.09235   0.00000  Uiso   1.00
C104   C     0.10388   0.52762   0.03488   0.00000  Uiso   1.00
C105   C     0.10361   0.38878   0.95477   0.00000  Uiso   1.00
C106   C     0.18116   0.84183   0.04281   0.00000  Uiso   1.00
C107   C     0.21487   0.83915   0.11118   0.00000  Uiso   1.00
C108   C     0.27250   0.86525   0.11892   0.00000  Uiso   1.00
C109   C     0.29538   0.85768   0.18581   0.00000  Uiso   1.00
C110   C     0.13020   0.91710   0.05561   0.00000  Uiso   1.00
C111   C     0.11663   0.00873   0.01661   0.00000  Uiso   1.00
C112   C     0.06824   0.06678   0.03672   0.00000  Uiso   1.00
C113   C     0.15603   0.72825   0.03363   0.00000  Uiso   1.00
C114   C     0.16419   0.66112   0.97614   0.00000  Uiso   1.00
C115   C     0.13753   0.56019   0.97772   0.00000  Uiso   1.00
H116   H     0.09317   0.75668   0.19228   0.00000  Uiso   1.00
H117   H     0.17807   0.77388   0.27928   0.00000  Uiso   1.00
H118   H     0.02223   0.91733   0.17698   0.00000  Uiso   1.00
H119   H     0.06978   0.56978   0.13651   0.00000  Uiso   1.00
H120   H     0.28701   0.80733   0.35058   0.00000  Uiso   1.00
H121   H     0.95840   0.10978   0.13487   0.00000  Uiso   1.00
H122   H     0.05865   0.37689   0.04953   0.00000  Uiso   1.00
H123   H     0.20731   0.86714   0.99839   0.00000  Uiso   1.00
H124   H     0.29848   0.89040   0.07475   0.00000  Uiso   1.00
H125   H     0.14264   0.03386   0.97246   0.00000  Uiso   1.00
H126   H     0.19018   0.68630   0.93199   0.00000  Uiso   1.00
H127   H     0.38474   0.90191   0.18458   0.00000  Uiso   1.00
H128   H     0.05612   0.20435   0.96887   0.00000  Uiso   1.00
H129   H     0.15638   0.47147   0.88353   0.00000  Uiso   1.00
O130   O     0.39379   0.86796   0.32131   0.00000  Uiso   1.00
O131   O     0.96265   0.26475   0.03831   0.00000  Uiso   1.00
O132   O     0.09419   0.30322   0.92635   0.00000  Uiso   1.00
N133   N     0.29750   0.82637   0.30103   0.00000  Uiso   1.00
N134   N     0.99028   0.10916   0.09936   0.00000  Uiso   1.00
N135   N     0.08399   0.42398   0.01957   0.00000  Uiso   1.00
N136   N     0.35009   0.87726   0.21170   0.00000  Uiso   1.00
N137   N     0.04286   0.16005   0.01004   0.00000  Uiso   1.00
N138   N     0.13658   0.47487   0.93025   0.00000  Uiso   1.00
C139   C     0.38068   0.21802   0.14786   0.00000  Uiso   1.00
C140   C     0.31872   0.19336   0.16824   0.00000  Uiso   1.00
C141   C     0.29592   0.20097   0.23514   0.00000  Uiso   1.00
C142   C     0.23827   0.17488   0.24297   0.00000  Uiso   1.00
C143   C     0.14718   0.14149   0.28330   0.00000  Uiso   1.00
C144   C     0.40339   0.11541   0.11267   0.00000  Uiso   1.00
C145   C     0.45178   0.05749   0.13283   0.00000  Uiso   1.00
C146   C     0.46541   0.96579   0.09388   0.00000  Uiso   1.00
C147   C     0.50579   0.81142   0.04790   0.00000  Uiso   1.00
C148   C     0.37755   0.30425   0.09068   0.00000  Uiso   1.00
C149   C     0.40424   0.40510   0.09235   0.00000  Uiso   1.00
C150   C     0.39612   0.47238   0.03488   0.00000  Uiso   1.00
C151   C     0.39639   0.61122   0.95477   0.00000  Uiso   1.00
C152   C     0.31884   0.15817   0.04281   0.00000  Uiso   1.00
C153   C     0.28513   0.16085   0.11118   0.00000  Uiso   1.00
C154   C     0.22750   0.13475   0.11892   0.00000  Uiso   1.00
C155   C     0.20462   0.14232   0.18581   0.00000  Uiso   1.00
C156   C     0.36980   0.08290   0.05561   0.00000  Uiso   1.00
C157   C     0.38337   0.99127   0.01661   0.00000  Uiso   1.00
C158   C     0.43176   0.93322   0.03672   0.00000  Uiso   1.00
C159   C     0.34397   0.27175   0.03363   0.00000  Uiso   1.00
C160   C     0.33581   0.33888   0.97614   0.00000  Uiso   1.00
C161   C     0.36247   0.43981   0.97772   0.00000  Uiso   1.00
H162   H     0.40683   0.24332   0.19228   0.00000  Uiso   1.00
H163   H     0.32193   0.22612   0.27928   0.00000  Uiso   1.00
H164   H     0.47777   0.08267   0.17698   0.00000  Uiso   1.00
H165   H     0.43022   0.43022   0.13651   0.00000  Uiso   1.00
H166   H     0.21299   0.19267   0.35058   0.00000  Uiso   1.00
H167   H     0.54160   0.89022   0.13487   0.00000  Uiso   1.00
H168   H     0.44135   0.62311   0.04953   0.00000  Uiso   1.00
H169   H     0.29269   0.13286   0.99839   0.00000  Uiso   1.00
H170   H     0.20152   0.10960   0.07475   0.00000  Uiso   1.00
H171   H     0.35736   0.96614   0.97246   0.00000  Uiso   1.00
H172   H     0.30982   0.31370   0.93199   0.00000  Uiso   1.00
H173   H     0.11526   0.09809   0.18458   0.00000  Uiso   1.00
H174   H     0.44388   0.79565   0.96887   0.00000  Uiso   1.00
H175   H     0.34362   0.52853   0.88353   0.00000  Uiso   1.00
O176   O     0.10621   0.13204   0.32131   0.00000  Uiso   1.00
O177   O     0.53735   0.73525   0.03831   0.00000  Uiso   1.00
O178   O     0.40581   0.69678   0.92635   0.00000  Uiso   1.00
N179   N     0.20250   0.17363   0.30103   0.00000  Uiso   1.00
N180   N     0.50972   0.89084   0.09936   0.00000  Uiso   1.00
N181   N     0.41601   0.57602   0.01957   0.00000  Uiso   1.00
N182   N     0.14991   0.12274   0.21170   0.00000  Uiso   1.00
N183   N     0.45714   0.83995   0.01004   0.00000  Uiso   1.00
N184   N     0.36342   0.52513   0.93025   0.00000  Uiso   1.00
C185   C     0.11932   0.21802   0.64786   0.00000  Uiso   1.00
C186   C     0.18128   0.19336   0.66824   0.00000  Uiso   1.00
C187   C     0.20408   0.20097   0.73514   0.00000  Uiso   1.00
C188   C     0.26173   0.17488   0.74297   0.00000  Uiso   1.00
C189   C     0.35282   0.14149   0.78330   0.00000  Uiso   1.00
C190   C     0.09661   0.11541   0.61267   0.00000  Uiso   1.00
C191   C     0.04822   0.05749   0.63283   0.00000  Uiso   1.00
C192   C     0.03459   0.96579   0.59388   0.00000  Uiso   1.00
C193   C     0.99421   0.81142   0.54790   0.00000  Uiso   1.00
C194   C     0.12245   0.30425   0.59068   0.00000  Uiso   1.00
C195   C     0.09576   0.40510   0.59235   0.00000  Uiso   1.00
C196   C     0.10388   0.47238   0.53488   0.00000  Uiso   1.00
C197   C     0.10361   0.61122   0.45477   0.00000  Uiso   1.00
C198   C     0.18116   0.15817   0.54281   0.00000  Uiso   1.00
C199   C     0.21487   0.16085   0.61118   0.00000  Uiso   1.00
C200   C     0.27250   0.13475   0.61892   0.00000  Uiso   1.00
C201   C     0.29538   0.14232   0.68581   0.00000  Uiso   1.00
C202   C     0.13020   0.08290   0.55561   0.00000  Uiso   1.00
C203   C     0.11663   0.99127   0.51661   0.00000  Uiso   1.00
C204   C     0.06824   0.93322   0.53672   0.00000  Uiso   1.00
C205   C     0.15603   0.27175   0.53363   0.00000  Uiso   1.00
C206   C     0.16419   0.33888   0.47614   0.00000  Uiso   1.00
C207   C     0.13753   0.43981   0.47772   0.00000  Uiso   1.00
H208   H     0.09317   0.24332   0.69228   0.00000  Uiso   1.00
H209   H     0.17807   0.22612   0.77928   0.00000  Uiso   1.00
H210   H     0.02223   0.08267   0.67698   0.00000  Uiso   1.00
H211   H     0.06978   0.43022   0.63651   0.00000  Uiso   1.00
H212   H     0.28701   0.19267   0.85058   0.00000  Uiso   1.00
H213   H     0.95840   0.89022   0.63487   0.00000  Uiso   1.00
H214   H     0.05865   0.62311   0.54953   0.00000  Uiso   1.00
H215   H     0.20731   0.13286   0.49839   0.00000  Uiso   1.00
H216   H     0.29848   0.10960   0.57475   0.00000  Uiso   1.00
H217   H     0.14264   0.96614   0.47246   0.00000  Uiso   1.00
H218   H     0.19018   0.31370   0.43199   0.00000  Uiso   1.00
H219   H     0.38474   0.09809   0.68458   0.00000  Uiso   1.00
H220   H     0.05612   0.79565   0.46887   0.00000  Uiso   1.00
H221   H     0.15638   0.52853   0.38353   0.00000  Uiso   1.00
O222   O     0.39379   0.13204   0.82131   0.00000  Uiso   1.00
O223   O     0.96265   0.73525   0.53831   0.00000  Uiso   1.00
O224   O     0.09419   0.69678   0.42635   0.00000  Uiso   1.00
N225   N     0.29750   0.17363   0.80103   0.00000  Uiso   1.00
N226   N     0.99028   0.89084   0.59936   0.00000  Uiso   1.00
N227   N     0.08399   0.57602   0.51957   0.00000  Uiso   1.00
N228   N     0.35009   0.12274   0.71170   0.00000  Uiso   1.00
N229   N     0.04286   0.83995   0.51004   0.00000  Uiso   1.00
N230   N     0.13658   0.52513   0.43025   0.00000  Uiso   1.00
C231   C     0.38068   0.78198   0.64786   0.00000  Uiso   1.00
C232   C     0.31872   0.80664   0.66824   0.00000  Uiso   1.00
C233   C     0.29592   0.79903   0.73514   0.00000  Uiso   1.00
C234   C     0.23827   0.82512   0.74297   0.00000  Uiso   1.00
C235   C     0.14718   0.85851   0.78330   0.00000  Uiso   1.00
C236   C     0.40339   0.88459   0.61267   0.00000  Uiso   1.00
C237   C     0.45178   0.94251   0.63283   0.00000  Uiso   1.00
C238   C     0.46541   0.03421   0.59388   0.00000  Uiso   1.00
C239   C     0.50579   0.18858   0.54790   0.00000  Uiso   1.00
C240   C     0.37755   0.69575   0.59068   0.00000  Uiso   1.00
C241   C     0.40424   0.59490   0.59235   0.00000  Uiso   1.00
C242   C     0.39612   0.52762   0.53488   0.00000  Uiso   1.00
C243   C     0.39639   0.38878   0.45477   0.00000  Uiso   1.00
C244   C     0.31884   0.84183   0.54281   0.00000  Uiso   1.00
C245   C     0.28513   0.83915   0.61118   0.00000  Uiso   1.00
C246   C     0.22750   0.86525   0.61892   0.00000  Uiso   1.00
C247   C     0.20462   0.85768   0.68581   0.00000  Uiso   1.00
C248   C     0.36980   0.91710   0.55561   0.00000  Uiso   1.00
C249   C     0.38337   0.00873   0.51661   0.00000  Uiso   1.00
C250   C     0.43176   0.06678   0.53672   0.00000  Uiso   1.00
C251   C     0.34397   0.72825   0.53363   0.00000  Uiso   1.00
C252   C     0.33581   0.66112   0.47614   0.00000  Uiso   1.00
C253   C     0.36247   0.56019   0.47772   0.00000  Uiso   1.00
H254   H     0.40683   0.75668   0.69228   0.00000  Uiso   1.00
H255   H     0.32193   0.77388   0.77928   0.00000  Uiso   1.00
H256   H     0.47777   0.91733   0.67698   0.00000  Uiso   1.00
H257   H     0.43022   0.56978   0.63651   0.00000  Uiso   1.00
H258   H     0.21299   0.80733   0.85058   0.00000  Uiso   1.00
H259   H     0.54160   0.10978   0.63487   0.00000  Uiso   1.00
H260   H     0.44135   0.37689   0.54953   0.00000  Uiso   1.00
H261   H     0.29269   0.86714   0.49839   0.00000  Uiso   1.00
H262   H     0.20152   0.89040   0.57475   0.00000  Uiso   1.00
H263   H     0.35736   0.03386   0.47246   0.00000  Uiso   1.00
H264   H     0.30982   0.68630   0.43199   0.00000  Uiso   1.00
H265   H     0.11526   0.90191   0.68458   0.00000  Uiso   1.00
H266   H     0.44388   0.20435   0.46887   0.00000  Uiso   1.00
H267   H     0.34362   0.47147   0.38353   0.00000  Uiso   1.00
O268   O     0.10621   0.86796   0.82131   0.00000  Uiso   1.00
O269   O     0.53735   0.26475   0.53831   0.00000  Uiso   1.00
O270   O     0.40581   0.30322   0.42635   0.00000  Uiso   1.00
N271   N     0.20250   0.82637   0.80103   0.00000  Uiso   1.00
N272   N     0.50972   0.10916   0.59936   0.00000  Uiso   1.00
N273   N     0.41601   0.42398   0.51957   0.00000  Uiso   1.00
N274   N     0.14991   0.87726   0.71170   0.00000  Uiso   1.00
N275   N     0.45714   0.16005   0.51004   0.00000  Uiso   1.00
N276   N     0.36342   0.47487   0.43025   0.00000  Uiso   1.00
C277   C     0.88068   0.21802   0.85214   0.00000  Uiso   1.00
C278   C     0.81872   0.19336   0.83176   0.00000  Uiso   1.00
C279   C     0.79592   0.20097   0.76486   0.00000  Uiso   1.00
C280   C     0.73827   0.17488   0.75703   0.00000  Uiso   1.00
C281   C     0.64718   0.14149   0.71670   0.00000  Uiso   1.00
C282   C     0.90339   0.11541   0.88733   0.00000  Uiso   1.00
C283   C     0.95178   0.05749   0.86717   0.00000  Uiso   1.00
C284   C     0.96541   0.96579   0.90612   0.00000  Uiso   1.00
C285   C     0.00579   0.81142   0.95210   0.00000  Uiso   1.00
C286   C     0.87755   0.30425   0.90932   0.00000  Uiso   1.00
C287   C     0.90424   0.40510   0.90765   0.00000  Uiso   1.00
C288   C     0.89612   0.47238   0.96512   0.00000  Uiso   1.00
C289   C     0.89639   0.61122   0.04523   0.00000  Uiso   1.00
C290   C     0.81884   0.15817   0.95719   0.00000  Uiso   1.00
C291   C     0.78513   0.16085   0.88882   0.00000  Uiso   1.00
C292   C     0.72750   0.13475   0.88108   0.00000  Uiso   1.00
C293   C     0.70462   0.14232   0.81419   0.00000  Uiso   1.00
C294   C     0.86980   0.08290   0.94439   0.00000  Uiso   1.00
C295   C     0.88337   0.99127   0.98339   0.00000  Uiso   1.00
C296   C     0.93176   0.93322   0.96328   0.00000  Uiso   1.00
C297   C     0.84397   0.27175   0.96637   0.00000  Uiso   1.00
C298   C     0.83581   0.33888   0.02386   0.00000  Uiso   1.00
C299   C     0.86247   0.43981   0.02228   0.00000  Uiso   1.00
H300   H     0.90683   0.24332   0.80772   0.00000  Uiso   1.00
H301   H     0.82193   0.22612   0.72072   0.00000  Uiso   1.00
H302   H     0.97777   0.08267   0.82302   0.00000  Uiso   1.00
H303   H     0.93022   0.43022   0.86349   0.00000  Uiso   1.00
H304   H     0.71299   0.19267   0.64942   0.00000  Uiso   1.00
H305   H     0.04160   0.89022   0.86513   0.00000  Uiso   1.00
H306   H     0.94135   0.62311   0.95047   0.00000  Uiso   1.00
H307   H     0.79269   0.13286   0.00161   0.00000  Uiso   1.00
H308   H     0.70152   0.10960   0.92525   0.00000  Uiso   1.00
H309   H     0.85736   0.96614   0.02754   0.00000  Uiso   1.00
H310   H     0.80982   0.31370   0.06801   0.00000  Uiso   1.00
H311   H     0.61526   0.09809   0.81542   0.00000  Uiso   1.00
H312   H     0.94388   0.79565   0.03113   0.00000  Uiso   1.00
H313   H     0.84362   0.52853   0.11647   0.00000  Uiso   1.00
O314   O     0.60621   0.13204   0.67869   0.00000  Uiso   1.00
O315   O     0.03735   0.73525   0.96169   0.00000  Uiso   1.00
O316   O     0.90581   0.69678   0.07365   0.00000  Uiso   1.00
N317   N     0.70250   0.17363   0.69897   0.00000  Uiso   1.00
N318   N     0.00972   0.89084   0.90064   0.00000  Uiso   1.00
N319   N     0.91601   0.57602   0.98043   0.00000  Uiso   1.00
N320   N     0.64991   0.12274   0.78830   0.00000  Uiso   1.00
N321   N     0.95714   0.83995   0.98996   0.00000  Uiso   1.00
N322   N     0.86342   0.52513   0.06975   0.00000  Uiso   1.00
C323   C     0.61932   0.78198   0.85214   0.00000  Uiso   1.00
C324   C     0.68128   0.80664   0.83176   0.00000  Uiso   1.00
C325   C     0.70408   0.79903   0.76486   0.00000  Uiso   1.00
C326   C     0.76173   0.82512   0.75703   0.00000  Uiso   1.00
C327   C     0.85282   0.85851   0.71670   0.00000  Uiso   1.00
C328   C     0.59661   0.88459   0.88733   0.00000  Uiso   1.00
C329   C     0.54822   0.94251   0.86717   0.00000  Uiso   1.00
C330   C     0.53459   0.03421   0.90612   0.00000  Uiso   1.00
C331   C     0.49421   0.18858   0.95210   0.00000  Uiso   1.00
C332   C     0.62245   0.69575   0.90932   0.00000  Uiso   1.00
C333   C     0.59576   0.59490   0.90765   0.00000  Uiso   1.00
C334   C     0.60388   0.52762   0.96512   0.00000  Uiso   1.00
C335   C     0.60361   0.38878   0.04523   0.00000  Uiso   1.00
C336   C     0.68116   0.84183   0.95719   0.00000  Uiso   1.00
C337   C     0.71487   0.83915   0.88882   0.00000  Uiso   1.00
C338   C     0.77250   0.86525   0.88108   0.00000  Uiso   1.00
C339   C     0.79538   0.85768   0.81419   0.00000  Uiso   1.00
C340   C     0.63020   0.91710   0.94439   0.00000  Uiso   1.00
C341   C     0.61663   0.00873   0.98339   0.00000  Uiso   1.00
C342   C     0.56824   0.06678   0.96328   0.00000  Uiso   1.00
C343   C     0.65603   0.72825   0.96637   0.00000  Uiso   1.00
C344   C     0.66419   0.66112   0.02386   0.00000  Uiso   1.00
C345   C     0.63753   0.56019   0.02228   0.00000  Uiso   1.00
H346   H     0.59317   0.75668   0.80772   0.00000  Uiso   1.00
H347   H     0.67807   0.77388   0.72072   0.00000  Uiso   1.00
H348   H     0.52223   0.91733   0.82302   0.00000  Uiso   1.00
H349   H     0.56978   0.56978   0.86349   0.00000  Uiso   1.00
H350   H     0.78701   0.80733   0.64942   0.00000  Uiso   1.00
H351   H     0.45840   0.10978   0.86513   0.00000  Uiso   1.00
H352   H     0.55865   0.37689   0.95047   0.00000  Uiso   1.00
H353   H     0.70731   0.86714   0.00161   0.00000  Uiso   1.00
H354   H     0.79848   0.89040   0.92525   0.00000  Uiso   1.00
H355   H     0.64264   0.03386   0.02754   0.00000  Uiso   1.00
H356   H     0.69018   0.68630   0.06801   0.00000  Uiso   1.00
H357   H     0.88474   0.90191   0.81542   0.00000  Uiso   1.00
H358   H     0.55612   0.20435   0.03113   0.00000  Uiso   1.00
H359   H     0.65638   0.47147   0.11647   0.00000  Uiso   1.00
O360   O     0.89379   0.86796   0.67869   0.00000  Uiso   1.00
O361   O     0.46265   0.26475   0.96169   0.00000  Uiso   1.00
O362   O     0.59419   0.30322   0.07365   0.00000  Uiso   1.00
N363   N     0.79750   0.82637   0.69897   0.00000  Uiso   1.00
N364   N     0.49028   0.10916   0.90064   0.00000  Uiso   1.00
N365   N     0.58399   0.42398   0.98043   0.00000  Uiso   1.00
N366   N     0.85009   0.87726   0.78830   0.00000  Uiso   1.00
N367   N     0.54286   0.16005   0.98996   0.00000  Uiso   1.00
N368   N     0.63658   0.47487   0.06975   0.00000  Uiso   1.00
