data_job_03299
_audit_creation_date              2018-12-19
_audit_creation_method            'Materials Studio'
_symmetry_space_group_name_H-M    'P1'
_symmetry_Int_Tables_number       1
_symmetry_cell_setting            triclinic
loop_
_symmetry_equiv_pos_as_xyz
  x,y,z
_cell_length_a                    41.4338
_cell_length_b                    41.4338
_cell_length_c                    14.8250
_cell_angle_alpha                 90.0000
_cell_angle_beta                  90.0000
_cell_angle_gamma                 120.0000
loop_
_atom_site_label
_atom_site_type_symbol
_atom_site_fract_x
_atom_site_fract_y
_atom_site_fract_z
_atom_site_U_iso_or_equiv
_atom_site_adp_type
_atom_site_occupancy
C1     C     0.67172   0.65450   0.63876   0.00000  Uiso   1.00
C2     C     0.67402   0.68977   0.60057   0.00000  Uiso   1.00
C3     C     0.66903   0.71558   0.64911   0.00000  Uiso   1.00
C4     C     0.67226   0.74599   0.60183   0.00000  Uiso   1.00
C5     C     0.67462   0.80007   0.55659   0.00000  Uiso   1.00
C6     C     0.64235   0.62231   0.58277   0.00000  Uiso   1.00
C7     C     0.61073   0.59141   0.61633   0.00000  Uiso   1.00
C8     C     0.58731   0.56503   0.55407   0.00000  Uiso   1.00
C9     C     0.54050   0.51438   0.48119   0.00000  Uiso   1.00
C10    C     0.70880   0.65696   0.61627   0.00000  Uiso   1.00
C11    C     0.73304   0.65519   0.67800   0.00000  Uiso   1.00
C12    C     0.76556   0.65797   0.64394   0.00000  Uiso   1.00
C13    C     0.82192   0.66112   0.62308   0.00000  Uiso   1.00
C14    C     0.68635   0.66260   0.46850   0.00000  Uiso   1.00
C15    C     0.68197   0.69417   0.50809   0.00000  Uiso   1.00
C16    C     0.68522   0.72454   0.46074   0.00000  Uiso   1.00
C17    C     0.68023   0.75040   0.50919   0.00000  Uiso   1.00
C18    C     0.65030   0.62671   0.49029   0.00000  Uiso   1.00
C19    C     0.62692   0.60037   0.42796   0.00000  Uiso   1.00
C20    C     0.59527   0.56944   0.46142   0.00000  Uiso   1.00
C21    C     0.71675   0.66136   0.52379   0.00000  Uiso   1.00
C22    C     0.74923   0.66415   0.48963   0.00000  Uiso   1.00
C23    C     0.77352   0.66238   0.55130   0.00000  Uiso   1.00
H24    H     0.66553   0.65107   0.71076   0.00000  Uiso   1.00
H25    H     0.66288   0.71216   0.72067   0.00000  Uiso   1.00
H26    H     0.60459   0.58801   0.68790   0.00000  Uiso   1.00
H27    H     0.72688   0.65178   0.74956   0.00000  Uiso   1.00
H28    H     0.66343   0.78183   0.69087   0.00000  Uiso   1.00
H29    H     0.54053   0.52004   0.62178   0.00000  Uiso   1.00
H30    H     0.79841   0.65451   0.75180   0.00000  Uiso   1.00
H31    H     0.69253   0.66602   0.39650   0.00000  Uiso   1.00
H32    H     0.69137   0.72794   0.38917   0.00000  Uiso   1.00
H33    H     0.63308   0.60379   0.35640   0.00000  Uiso   1.00
H34    H     0.75537   0.66755   0.41806   0.00000  Uiso   1.00
H35    H     0.68655   0.79463   0.42181   0.00000  Uiso   1.00
H36    H     0.56365   0.53284   0.35272   0.00000  Uiso   1.00
H37    H     0.82153   0.66731   0.48274   0.00000  Uiso   1.00
O38    O     0.67372   0.82869   0.55718   0.00000  Uiso   1.00
O39    O     0.51249   0.48523   0.46654   0.00000  Uiso   1.00
O40    O     0.85082   0.66165   0.63713   0.00000  Uiso   1.00
N41    N     0.66904   0.77635   0.62856   0.00000  Uiso   1.00
N42    N     0.55413   0.53160   0.56396   0.00000  Uiso   1.00
N43    N     0.79523   0.65730   0.68552   0.00000  Uiso   1.00
N44    N     0.68148   0.78324   0.48378   0.00000  Uiso   1.00
N45    N     0.56657   0.53849   0.41918   0.00000  Uiso   1.00
N46    N     0.80767   0.66419   0.54074   0.00000  Uiso   1.00
C47    C     0.34550   0.01722   0.30543   0.00000  Uiso   1.00
C48    C     0.31023   0.98426   0.26724   0.00000  Uiso   1.00
C49    C     0.28442   0.95345   0.31577   0.00000  Uiso   1.00
C50    C     0.25401   0.92628   0.26850   0.00000  Uiso   1.00
C51    C     0.19993   0.87455   0.22326   0.00000  Uiso   1.00
C52    C     0.37769   0.02004   0.24943   0.00000  Uiso   1.00
C53    C     0.40859   0.01932   0.28300   0.00000  Uiso   1.00
C54    C     0.43497   0.02227   0.22073   0.00000  Uiso   1.00
C55    C     0.48562   0.02612   0.14786   0.00000  Uiso   1.00
C56    C     0.34304   0.05183   0.28294   0.00000  Uiso   1.00
C57    C     0.34481   0.07786   0.34467   0.00000  Uiso   1.00
C58    C     0.34203   0.10759   0.31061   0.00000  Uiso   1.00
C59    C     0.33888   0.16080   0.28975   0.00000  Uiso   1.00
C60    C     0.33740   0.02375   0.13517   0.00000  Uiso   1.00
C61    C     0.30583   0.98781   0.17476   0.00000  Uiso   1.00
C62    C     0.27546   0.96067   0.12740   0.00000  Uiso   1.00
C63    C     0.24960   0.92983   0.17586   0.00000  Uiso   1.00
C64    C     0.37329   0.02359   0.15696   0.00000  Uiso   1.00
C65    C     0.39963   0.02654   0.09463   0.00000  Uiso   1.00
C66    C     0.43056   0.02582   0.12809   0.00000  Uiso   1.00
C67    C     0.33864   0.05538   0.19046   0.00000  Uiso   1.00
C68    C     0.33585   0.08508   0.15630   0.00000  Uiso   1.00
C69    C     0.33762   0.11114   0.21796   0.00000  Uiso   1.00
H70    H     0.34893   0.01446   0.37742   0.00000  Uiso   1.00
H71    H     0.28784   0.95071   0.38734   0.00000  Uiso   1.00
H72    H     0.41199   0.01658   0.35457   0.00000  Uiso   1.00
H73    H     0.34822   0.07510   0.41623   0.00000  Uiso   1.00
H74    H     0.21817   0.88160   0.35754   0.00000  Uiso   1.00
H75    H     0.47996   0.02049   0.28844   0.00000  Uiso   1.00
H76    H     0.34549   0.14390   0.41847   0.00000  Uiso   1.00
H77    H     0.33398   0.02651   0.06317   0.00000  Uiso   1.00
H78    H     0.27206   0.96343   0.05584   0.00000  Uiso   1.00
H79    H     0.39621   0.02929   0.02307   0.00000  Uiso   1.00
H80    H     0.33245   0.08782   0.08473   0.00000  Uiso   1.00
H81    H     0.20537   0.89191   0.08848   0.00000  Uiso   1.00
H82    H     0.46716   0.03081   0.01939   0.00000  Uiso   1.00
H83    H     0.33269   0.15422   0.14941   0.00000  Uiso   1.00
O84    O     0.17131   0.84503   0.22385   0.00000  Uiso   1.00
O85    O     0.51477   0.02726   0.13321   0.00000  Uiso   1.00
O86    O     0.33835   0.18917   0.30379   0.00000  Uiso   1.00
N87    N     0.22365   0.89268   0.29523   0.00000  Uiso   1.00
N88    N     0.46840   0.02253   0.23063   0.00000  Uiso   1.00
N89    N     0.34270   0.13792   0.35218   0.00000  Uiso   1.00
N90    N     0.21676   0.89824   0.15045   0.00000  Uiso   1.00
N91    N     0.46151   0.02809   0.08585   0.00000  Uiso   1.00
N92    N     0.33581   0.14347   0.20741   0.00000  Uiso   1.00
C93    C     0.98278   0.32828   0.97210   0.00000  Uiso   1.00
C94    C     0.01574   0.32598   0.93391   0.00000  Uiso   1.00
C95    C     0.04655   0.33097   0.98244   0.00000  Uiso   1.00
C96    C     0.07372   0.32774   0.93517   0.00000  Uiso   1.00
C97    C     0.12545   0.32538   0.88993   0.00000  Uiso   1.00
C98    C     0.97996   0.35765   0.91610   0.00000  Uiso   1.00
C99    C     0.98068   0.38927   0.94967   0.00000  Uiso   1.00
C100   C     0.97773   0.41269   0.88740   0.00000  Uiso   1.00
C101   C     0.97388   0.45950   0.81452   0.00000  Uiso   1.00
C102   C     0.94817   0.29120   0.94960   0.00000  Uiso   1.00
C103   C     0.92214   0.26696   0.01134   0.00000  Uiso   1.00
C104   C     0.89241   0.23444   0.97728   0.00000  Uiso   1.00
C105   C     0.83920   0.17808   0.95642   0.00000  Uiso   1.00
C106   C     0.97625   0.31365   0.80184   0.00000  Uiso   1.00
C107   C     0.01219   0.31803   0.84143   0.00000  Uiso   1.00
C108   C     0.03933   0.31478   0.79407   0.00000  Uiso   1.00
C109   C     0.07017   0.31977   0.84252   0.00000  Uiso   1.00
C110   C     0.97641   0.34970   0.82362   0.00000  Uiso   1.00
C111   C     0.97346   0.37308   0.76130   0.00000  Uiso   1.00
C112   C     0.97418   0.40473   0.79476   0.00000  Uiso   1.00
C113   C     0.94462   0.28325   0.85713   0.00000  Uiso   1.00
C114   C     0.91492   0.25077   0.82296   0.00000  Uiso   1.00
C115   C     0.88886   0.22648   0.88463   0.00000  Uiso   1.00
H116   H     0.98554   0.33447   0.04409   0.00000  Uiso   1.00
H117   H     0.04929   0.33712   0.05400   0.00000  Uiso   1.00
H118   H     0.98342   0.39541   0.02123   0.00000  Uiso   1.00
H119   H     0.92490   0.27312   0.08289   0.00000  Uiso   1.00
H120   H     0.11840   0.33657   0.02421   0.00000  Uiso   1.00
H121   H     0.97951   0.45947   0.95511   0.00000  Uiso   1.00
H122   H     0.85610   0.20159   0.08513   0.00000  Uiso   1.00
H123   H     0.97349   0.30747   0.72984   0.00000  Uiso   1.00
H124   H     0.03657   0.30863   0.72250   0.00000  Uiso   1.00
H125   H     0.97071   0.36692   0.68974   0.00000  Uiso   1.00
H126   H     0.91218   0.24463   0.75140   0.00000  Uiso   1.00
H127   H     0.10809   0.31345   0.75515   0.00000  Uiso   1.00
H128   H     0.96919   0.43635   0.68606   0.00000  Uiso   1.00
H129   H     0.84578   0.17847   0.81608   0.00000  Uiso   1.00
O130   O     0.15497   0.32628   0.89052   0.00000  Uiso   1.00
O131   O     0.97274   0.48751   0.79987   0.00000  Uiso   1.00
O132   O     0.81083   0.14918   0.97046   0.00000  Uiso   1.00
N133   N     0.10732   0.33096   0.96189   0.00000  Uiso   1.00
N134   N     0.97747   0.44587   0.89729   0.00000  Uiso   1.00
N135   N     0.86208   0.20477   0.01885   0.00000  Uiso   1.00
N136   N     0.10176   0.31852   0.81711   0.00000  Uiso   1.00
N137   N     0.97191   0.43343   0.75252   0.00000  Uiso   1.00
N138   N     0.85653   0.19233   0.87407   0.00000  Uiso   1.00
C139   C     0.32828   0.34550   0.13876   0.00000  Uiso   1.00
C140   C     0.32598   0.31023   0.10057   0.00000  Uiso   1.00
C141   C     0.33097   0.28442   0.14911   0.00000  Uiso   1.00
C142   C     0.32774   0.25401   0.10183   0.00000  Uiso   1.00
C143   C     0.32538   0.19993   0.05659   0.00000  Uiso   1.00
C144   C     0.35765   0.37769   0.08277   0.00000  Uiso   1.00
C145   C     0.38927   0.40859   0.11633   0.00000  Uiso   1.00
C146   C     0.41269   0.43497   0.05407   0.00000  Uiso   1.00
C147   C     0.45950   0.48562   0.98119   0.00000  Uiso   1.00
C148   C     0.29120   0.34304   0.11627   0.00000  Uiso   1.00
C149   C     0.26696   0.34481   0.17800   0.00000  Uiso   1.00
C150   C     0.23444   0.34203   0.14394   0.00000  Uiso   1.00
C151   C     0.17808   0.33888   0.12308   0.00000  Uiso   1.00
C152   C     0.31365   0.33740   0.96850   0.00000  Uiso   1.00
C153   C     0.31803   0.30583   0.00809   0.00000  Uiso   1.00
C154   C     0.31478   0.27546   0.96074   0.00000  Uiso   1.00
C155   C     0.31977   0.24960   0.00919   0.00000  Uiso   1.00
C156   C     0.34970   0.37329   0.99029   0.00000  Uiso   1.00
C157   C     0.37308   0.39963   0.92796   0.00000  Uiso   1.00
C158   C     0.40473   0.43056   0.96142   0.00000  Uiso   1.00
C159   C     0.28325   0.33864   0.02379   0.00000  Uiso   1.00
C160   C     0.25077   0.33585   0.98963   0.00000  Uiso   1.00
C161   C     0.22648   0.33762   0.05130   0.00000  Uiso   1.00
H162   H     0.33447   0.34893   0.21076   0.00000  Uiso   1.00
H163   H     0.33712   0.28784   0.22067   0.00000  Uiso   1.00
H164   H     0.39541   0.41199   0.18790   0.00000  Uiso   1.00
H165   H     0.27312   0.34822   0.24956   0.00000  Uiso   1.00
H166   H     0.33657   0.21817   0.19087   0.00000  Uiso   1.00
H167   H     0.45947   0.47996   0.12178   0.00000  Uiso   1.00
H168   H     0.20159   0.34549   0.25180   0.00000  Uiso   1.00
H169   H     0.30747   0.33398   0.89650   0.00000  Uiso   1.00
H170   H     0.30863   0.27206   0.88917   0.00000  Uiso   1.00
H171   H     0.36692   0.39621   0.85640   0.00000  Uiso   1.00
H172   H     0.24463   0.33245   0.91806   0.00000  Uiso   1.00
H173   H     0.31345   0.20537   0.92181   0.00000  Uiso   1.00
H174   H     0.43635   0.46716   0.85272   0.00000  Uiso   1.00
H175   H     0.17847   0.33269   0.98274   0.00000  Uiso   1.00
O176   O     0.32628   0.17131   0.05718   0.00000  Uiso   1.00
O177   O     0.48751   0.51477   0.96654   0.00000  Uiso   1.00
O178   O     0.14918   0.33835   0.13713   0.00000  Uiso   1.00
N179   N     0.33096   0.22365   0.12856   0.00000  Uiso   1.00
N180   N     0.44587   0.46840   0.06396   0.00000  Uiso   1.00
N181   N     0.20477   0.34270   0.18552   0.00000  Uiso   1.00
N182   N     0.31852   0.21676   0.98378   0.00000  Uiso   1.00
N183   N     0.43343   0.46151   0.91918   0.00000  Uiso   1.00
N184   N     0.19233   0.33581   0.04074   0.00000  Uiso   1.00
C185   C     0.65450   0.98278   0.80543   0.00000  Uiso   1.00
C186   C     0.68977   0.01574   0.76724   0.00000  Uiso   1.00
C187   C     0.71558   0.04655   0.81577   0.00000  Uiso   1.00
C188   C     0.74599   0.07372   0.76850   0.00000  Uiso   1.00
C189   C     0.80007   0.12545   0.72326   0.00000  Uiso   1.00
C190   C     0.62231   0.97996   0.74943   0.00000  Uiso   1.00
C191   C     0.59141   0.98068   0.78300   0.00000  Uiso   1.00
C192   C     0.56503   0.97773   0.72073   0.00000  Uiso   1.00
C193   C     0.51438   0.97388   0.64786   0.00000  Uiso   1.00
C194   C     0.65696   0.94817   0.78294   0.00000  Uiso   1.00
C195   C     0.65519   0.92214   0.84467   0.00000  Uiso   1.00
C196   C     0.65797   0.89241   0.81061   0.00000  Uiso   1.00
C197   C     0.66112   0.83920   0.78975   0.00000  Uiso   1.00
C198   C     0.66260   0.97625   0.63517   0.00000  Uiso   1.00
C199   C     0.69417   0.01219   0.67476   0.00000  Uiso   1.00
C200   C     0.72454   0.03933   0.62740   0.00000  Uiso   1.00
C201   C     0.75040   0.07017   0.67586   0.00000  Uiso   1.00
C202   C     0.62671   0.97641   0.65696   0.00000  Uiso   1.00
C203   C     0.60037   0.97346   0.59463   0.00000  Uiso   1.00
C204   C     0.56944   0.97418   0.62809   0.00000  Uiso   1.00
C205   C     0.66136   0.94462   0.69046   0.00000  Uiso   1.00
C206   C     0.66415   0.91492   0.65630   0.00000  Uiso   1.00
C207   C     0.66238   0.88886   0.71796   0.00000  Uiso   1.00
H208   H     0.65107   0.98554   0.87742   0.00000  Uiso   1.00
H209   H     0.71216   0.04929   0.88734   0.00000  Uiso   1.00
H210   H     0.58801   0.98342   0.85457   0.00000  Uiso   1.00
H211   H     0.65178   0.92490   0.91623   0.00000  Uiso   1.00
H212   H     0.78183   0.11840   0.85754   0.00000  Uiso   1.00
H213   H     0.52004   0.97951   0.78844   0.00000  Uiso   1.00
H214   H     0.65451   0.85610   0.91847   0.00000  Uiso   1.00
H215   H     0.66602   0.97349   0.56317   0.00000  Uiso   1.00
H216   H     0.72794   0.03657   0.55584   0.00000  Uiso   1.00
H217   H     0.60379   0.97071   0.52307   0.00000  Uiso   1.00
H218   H     0.66755   0.91218   0.58473   0.00000  Uiso   1.00
H219   H     0.79463   0.10809   0.58848   0.00000  Uiso   1.00
H220   H     0.53284   0.96919   0.51939   0.00000  Uiso   1.00
H221   H     0.66731   0.84578   0.64941   0.00000  Uiso   1.00
O222   O     0.82869   0.15497   0.72385   0.00000  Uiso   1.00
O223   O     0.48523   0.97274   0.63321   0.00000  Uiso   1.00
O224   O     0.66165   0.81083   0.80379   0.00000  Uiso   1.00
N225   N     0.77635   0.10732   0.79523   0.00000  Uiso   1.00
N226   N     0.53160   0.97747   0.73063   0.00000  Uiso   1.00
N227   N     0.65730   0.86208   0.85218   0.00000  Uiso   1.00
N228   N     0.78324   0.10176   0.65045   0.00000  Uiso   1.00
N229   N     0.53849   0.97191   0.58585   0.00000  Uiso   1.00
N230   N     0.66419   0.85653   0.70741   0.00000  Uiso   1.00
C231   C     0.01722   0.67172   0.47210   0.00000  Uiso   1.00
C232   C     0.98426   0.67402   0.43391   0.00000  Uiso   1.00
C233   C     0.95345   0.66903   0.48244   0.00000  Uiso   1.00
C234   C     0.92628   0.67226   0.43517   0.00000  Uiso   1.00
C235   C     0.87455   0.67462   0.38993   0.00000  Uiso   1.00
C236   C     0.02004   0.64235   0.41610   0.00000  Uiso   1.00
C237   C     0.01932   0.61073   0.44967   0.00000  Uiso   1.00
C238   C     0.02227   0.58731   0.38740   0.00000  Uiso   1.00
C239   C     0.02612   0.54050   0.31452   0.00000  Uiso   1.00
C240   C     0.05183   0.70880   0.44960   0.00000  Uiso   1.00
C241   C     0.07786   0.73304   0.51134   0.00000  Uiso   1.00
C242   C     0.10759   0.76556   0.47728   0.00000  Uiso   1.00
C243   C     0.16080   0.82192   0.45642   0.00000  Uiso   1.00
C244   C     0.02375   0.68635   0.30184   0.00000  Uiso   1.00
C245   C     0.98781   0.68197   0.34143   0.00000  Uiso   1.00
C246   C     0.96067   0.68522   0.29407   0.00000  Uiso   1.00
C247   C     0.92983   0.68023   0.34252   0.00000  Uiso   1.00
C248   C     0.02359   0.65030   0.32362   0.00000  Uiso   1.00
C249   C     0.02654   0.62692   0.26130   0.00000  Uiso   1.00
C250   C     0.02582   0.59527   0.29476   0.00000  Uiso   1.00
C251   C     0.05538   0.71675   0.35713   0.00000  Uiso   1.00
C252   C     0.08508   0.74923   0.32296   0.00000  Uiso   1.00
C253   C     0.11114   0.77352   0.38463   0.00000  Uiso   1.00
H254   H     0.01446   0.66553   0.54409   0.00000  Uiso   1.00
H255   H     0.95071   0.66288   0.55400   0.00000  Uiso   1.00
H256   H     0.01658   0.60459   0.52123   0.00000  Uiso   1.00
H257   H     0.07510   0.72688   0.58289   0.00000  Uiso   1.00
H258   H     0.88160   0.66343   0.52421   0.00000  Uiso   1.00
H259   H     0.02049   0.54053   0.45511   0.00000  Uiso   1.00
H260   H     0.14390   0.79841   0.58513   0.00000  Uiso   1.00
H261   H     0.02651   0.69253   0.22984   0.00000  Uiso   1.00
H262   H     0.96343   0.69137   0.22250   0.00000  Uiso   1.00
H263   H     0.02929   0.63308   0.18974   0.00000  Uiso   1.00
H264   H     0.08782   0.75537   0.25140   0.00000  Uiso   1.00
H265   H     0.89191   0.68655   0.25515   0.00000  Uiso   1.00
H266   H     0.03081   0.56365   0.18606   0.00000  Uiso   1.00
H267   H     0.15422   0.82153   0.31608   0.00000  Uiso   1.00
O268   O     0.84503   0.67372   0.39052   0.00000  Uiso   1.00
O269   O     0.02726   0.51249   0.29987   0.00000  Uiso   1.00
O270   O     0.18917   0.85082   0.47046   0.00000  Uiso   1.00
N271   N     0.89268   0.66904   0.46189   0.00000  Uiso   1.00
N272   N     0.02253   0.55413   0.39729   0.00000  Uiso   1.00
N273   N     0.13792   0.79523   0.51885   0.00000  Uiso   1.00
N274   N     0.89824   0.68148   0.31711   0.00000  Uiso   1.00
N275   N     0.02809   0.56657   0.25252   0.00000  Uiso   1.00
N276   N     0.14347   0.80767   0.37407   0.00000  Uiso   1.00
C277   C     0.65450   0.67172   0.02790   0.00000  Uiso   1.00
C278   C     0.68977   0.67402   0.06609   0.00000  Uiso   1.00
C279   C     0.71558   0.66903   0.01756   0.00000  Uiso   1.00
C280   C     0.74599   0.67226   0.06483   0.00000  Uiso   1.00
C281   C     0.80007   0.67462   0.11007   0.00000  Uiso   1.00
C282   C     0.62231   0.64235   0.08390   0.00000  Uiso   1.00
C283   C     0.59141   0.61073   0.05033   0.00000  Uiso   1.00
C284   C     0.56503   0.58731   0.11260   0.00000  Uiso   1.00
C285   C     0.51438   0.54050   0.18548   0.00000  Uiso   1.00
C286   C     0.65696   0.70880   0.05040   0.00000  Uiso   1.00
C287   C     0.65519   0.73304   0.98866   0.00000  Uiso   1.00
C288   C     0.65797   0.76556   0.02272   0.00000  Uiso   1.00
C289   C     0.66112   0.82192   0.04358   0.00000  Uiso   1.00
C290   C     0.66260   0.68635   0.19816   0.00000  Uiso   1.00
C291   C     0.69417   0.68197   0.15857   0.00000  Uiso   1.00
C292   C     0.72454   0.68522   0.20593   0.00000  Uiso   1.00
C293   C     0.75040   0.68023   0.15748   0.00000  Uiso   1.00
C294   C     0.62671   0.65030   0.17638   0.00000  Uiso   1.00
C295   C     0.60037   0.62692   0.23870   0.00000  Uiso   1.00
C296   C     0.56944   0.59527   0.20524   0.00000  Uiso   1.00
C297   C     0.66136   0.71675   0.14287   0.00000  Uiso   1.00
C298   C     0.66415   0.74923   0.17704   0.00000  Uiso   1.00
C299   C     0.66238   0.77352   0.11537   0.00000  Uiso   1.00
H300   H     0.65107   0.66553   0.95591   0.00000  Uiso   1.00
H301   H     0.71216   0.66288   0.94600   0.00000  Uiso   1.00
H302   H     0.58801   0.60459   0.97877   0.00000  Uiso   1.00
H303   H     0.65178   0.72688   0.91711   0.00000  Uiso   1.00
H304   H     0.78183   0.66343   0.97579   0.00000  Uiso   1.00
H305   H     0.52004   0.54053   0.04489   0.00000  Uiso   1.00
H306   H     0.65451   0.79841   0.91487   0.00000  Uiso   1.00
H307   H     0.66602   0.69253   0.27016   0.00000  Uiso   1.00
H308   H     0.72794   0.69137   0.27750   0.00000  Uiso   1.00
H309   H     0.60379   0.63308   0.31026   0.00000  Uiso   1.00
H310   H     0.66755   0.75537   0.24860   0.00000  Uiso   1.00
H311   H     0.79463   0.68655   0.24485   0.00000  Uiso   1.00
H312   H     0.53284   0.56365   0.31394   0.00000  Uiso   1.00
H313   H     0.66731   0.82153   0.18392   0.00000  Uiso   1.00
O314   O     0.82869   0.67372   0.10948   0.00000  Uiso   1.00
O315   O     0.48523   0.51249   0.20013   0.00000  Uiso   1.00
O316   O     0.66165   0.85082   0.02954   0.00000  Uiso   1.00
N317   N     0.77635   0.66904   0.03811   0.00000  Uiso   1.00
N318   N     0.53160   0.55413   0.10271   0.00000  Uiso   1.00
N319   N     0.65730   0.79523   0.98115   0.00000  Uiso   1.00
N320   N     0.78324   0.68148   0.18289   0.00000  Uiso   1.00
N321   N     0.53849   0.56657   0.24748   0.00000  Uiso   1.00
N322   N     0.66419   0.80767   0.12593   0.00000  Uiso   1.00
C323   C     0.01722   0.34550   0.36124   0.00000  Uiso   1.00
C324   C     0.98426   0.31023   0.39943   0.00000  Uiso   1.00
C325   C     0.95345   0.28442   0.35089   0.00000  Uiso   1.00
C326   C     0.92628   0.25401   0.39817   0.00000  Uiso   1.00
C327   C     0.87455   0.19993   0.44341   0.00000  Uiso   1.00
C328   C     0.02004   0.37769   0.41723   0.00000  Uiso   1.00
C329   C     0.01932   0.40859   0.38367   0.00000  Uiso   1.00
C330   C     0.02227   0.43497   0.44593   0.00000  Uiso   1.00
C331   C     0.02612   0.48562   0.51881   0.00000  Uiso   1.00
C332   C     0.05183   0.34304   0.38373   0.00000  Uiso   1.00
C333   C     0.07786   0.34481   0.32200   0.00000  Uiso   1.00
C334   C     0.10759   0.34203   0.35606   0.00000  Uiso   1.00
C335   C     0.16080   0.33888   0.37692   0.00000  Uiso   1.00
C336   C     0.02375   0.33740   0.53150   0.00000  Uiso   1.00
C337   C     0.98781   0.30583   0.49191   0.00000  Uiso   1.00
C338   C     0.96067   0.27546   0.53926   0.00000  Uiso   1.00
C339   C     0.92983   0.24960   0.49081   0.00000  Uiso   1.00
C340   C     0.02359   0.37329   0.50971   0.00000  Uiso   1.00
C341   C     0.02654   0.39963   0.57204   0.00000  Uiso   1.00
C342   C     0.02582   0.43056   0.53858   0.00000  Uiso   1.00
C343   C     0.05538   0.33864   0.47621   0.00000  Uiso   1.00
C344   C     0.08508   0.33585   0.51037   0.00000  Uiso   1.00
C345   C     0.11114   0.33762   0.44870   0.00000  Uiso   1.00
H346   H     0.01446   0.34893   0.28924   0.00000  Uiso   1.00
H347   H     0.95071   0.28784   0.27933   0.00000  Uiso   1.00
H348   H     0.01658   0.41199   0.31210   0.00000  Uiso   1.00
H349   H     0.07510   0.34822   0.25044   0.00000  Uiso   1.00
H350   H     0.88160   0.21817   0.30913   0.00000  Uiso   1.00
H351   H     0.02049   0.47996   0.37822   0.00000  Uiso   1.00
H352   H     0.14390   0.34549   0.24820   0.00000  Uiso   1.00
H353   H     0.02651   0.33398   0.60350   0.00000  Uiso   1.00
H354   H     0.96343   0.27206   0.61083   0.00000  Uiso   1.00
H355   H     0.02929   0.39621   0.64360   0.00000  Uiso   1.00
H356   H     0.08782   0.33245   0.58194   0.00000  Uiso   1.00
H357   H     0.89191   0.20537   0.57819   0.00000  Uiso   1.00
H358   H     0.03081   0.46716   0.64728   0.00000  Uiso   1.00
H359   H     0.15422   0.33269   0.51726   0.00000  Uiso   1.00
O360   O     0.84503   0.17131   0.44282   0.00000  Uiso   1.00
O361   O     0.02726   0.51477   0.53346   0.00000  Uiso   1.00
O362   O     0.18917   0.33835   0.36287   0.00000  Uiso   1.00
N363   N     0.89268   0.22365   0.37144   0.00000  Uiso   1.00
N364   N     0.02253   0.46840   0.43604   0.00000  Uiso   1.00
N365   N     0.13792   0.34270   0.31448   0.00000  Uiso   1.00
N366   N     0.89824   0.21676   0.51622   0.00000  Uiso   1.00
N367   N     0.02809   0.46151   0.58082   0.00000  Uiso   1.00
N368   N     0.14347   0.33581   0.45926   0.00000  Uiso   1.00
C369   C     0.32828   0.98278   0.69457   0.00000  Uiso   1.00
C370   C     0.32598   0.01574   0.73276   0.00000  Uiso   1.00
C371   C     0.33097   0.04655   0.68423   0.00000  Uiso   1.00
C372   C     0.32774   0.07372   0.73150   0.00000  Uiso   1.00
C373   C     0.32538   0.12545   0.77674   0.00000  Uiso   1.00
C374   C     0.35765   0.97996   0.75057   0.00000  Uiso   1.00
C375   C     0.38927   0.98068   0.71700   0.00000  Uiso   1.00
C376   C     0.41269   0.97773   0.77927   0.00000  Uiso   1.00
C377   C     0.45950   0.97388   0.85214   0.00000  Uiso   1.00
C378   C     0.29120   0.94817   0.71706   0.00000  Uiso   1.00
C379   C     0.26696   0.92214   0.65533   0.00000  Uiso   1.00
C380   C     0.23444   0.89241   0.68939   0.00000  Uiso   1.00
C381   C     0.17808   0.83920   0.71025   0.00000  Uiso   1.00
C382   C     0.31365   0.97625   0.86483   0.00000  Uiso   1.00
C383   C     0.31803   0.01219   0.82524   0.00000  Uiso   1.00
C384   C     0.31478   0.03933   0.87260   0.00000  Uiso   1.00
C385   C     0.31977   0.07017   0.82414   0.00000  Uiso   1.00
C386   C     0.34970   0.97641   0.84304   0.00000  Uiso   1.00
C387   C     0.37308   0.97346   0.90537   0.00000  Uiso   1.00
C388   C     0.40473   0.97418   0.87191   0.00000  Uiso   1.00
C389   C     0.28325   0.94462   0.80954   0.00000  Uiso   1.00
C390   C     0.25077   0.91492   0.84370   0.00000  Uiso   1.00
C391   C     0.22648   0.88886   0.78204   0.00000  Uiso   1.00
H392   H     0.33447   0.98554   0.62258   0.00000  Uiso   1.00
H393   H     0.33712   0.04929   0.61266   0.00000  Uiso   1.00
H394   H     0.39541   0.98342   0.64543   0.00000  Uiso   1.00
H395   H     0.27312   0.92490   0.58377   0.00000  Uiso   1.00
H396   H     0.33657   0.11840   0.64246   0.00000  Uiso   1.00
H397   H     0.45947   0.97951   0.71156   0.00000  Uiso   1.00
H398   H     0.20159   0.85610   0.58153   0.00000  Uiso   1.00
H399   H     0.30747   0.97349   0.93683   0.00000  Uiso   1.00
H400   H     0.30863   0.03657   0.94416   0.00000  Uiso   1.00
H401   H     0.36692   0.97071   0.97693   0.00000  Uiso   1.00
H402   H     0.24463   0.91218   0.91527   0.00000  Uiso   1.00
H403   H     0.31345   0.10809   0.91152   0.00000  Uiso   1.00
H404   H     0.43635   0.96919   0.98061   0.00000  Uiso   1.00
H405   H     0.17847   0.84578   0.85059   0.00000  Uiso   1.00
O406   O     0.32628   0.15497   0.77615   0.00000  Uiso   1.00
O407   O     0.48751   0.97274   0.86679   0.00000  Uiso   1.00
O408   O     0.14918   0.81083   0.69621   0.00000  Uiso   1.00
N409   N     0.33096   0.10732   0.70477   0.00000  Uiso   1.00
N410   N     0.44587   0.97747   0.76937   0.00000  Uiso   1.00
N411   N     0.20477   0.86208   0.64782   0.00000  Uiso   1.00
N412   N     0.31852   0.10176   0.84955   0.00000  Uiso   1.00
N413   N     0.43343   0.97191   0.91415   0.00000  Uiso   1.00
N414   N     0.19233   0.85653   0.79259   0.00000  Uiso   1.00
C415   C     0.34550   0.32828   0.52790   0.00000  Uiso   1.00
C416   C     0.31023   0.32598   0.56609   0.00000  Uiso   1.00
C417   C     0.28442   0.33097   0.51756   0.00000  Uiso   1.00
C418   C     0.25401   0.32774   0.56483   0.00000  Uiso   1.00
C419   C     0.19993   0.32538   0.61007   0.00000  Uiso   1.00
C420   C     0.37769   0.35765   0.58390   0.00000  Uiso   1.00
C421   C     0.40859   0.38927   0.55033   0.00000  Uiso   1.00
C422   C     0.43497   0.41269   0.61260   0.00000  Uiso   1.00
C423   C     0.48562   0.45950   0.68548   0.00000  Uiso   1.00
C424   C     0.34304   0.29120   0.55040   0.00000  Uiso   1.00
C425   C     0.34481   0.26696   0.48866   0.00000  Uiso   1.00
C426   C     0.34203   0.23444   0.52272   0.00000  Uiso   1.00
C427   C     0.33888   0.17808   0.54358   0.00000  Uiso   1.00
C428   C     0.33740   0.31365   0.69816   0.00000  Uiso   1.00
C429   C     0.30583   0.31803   0.65857   0.00000  Uiso   1.00
C430   C     0.27546   0.31478   0.70593   0.00000  Uiso   1.00
C431   C     0.24960   0.31977   0.65748   0.00000  Uiso   1.00
C432   C     0.37329   0.34970   0.67638   0.00000  Uiso   1.00
C433   C     0.39963   0.37308   0.73870   0.00000  Uiso   1.00
C434   C     0.43056   0.40473   0.70524   0.00000  Uiso   1.00
C435   C     0.33864   0.28325   0.64287   0.00000  Uiso   1.00
C436   C     0.33585   0.25077   0.67704   0.00000  Uiso   1.00
C437   C     0.33762   0.22648   0.61537   0.00000  Uiso   1.00
H438   H     0.34893   0.33447   0.45591   0.00000  Uiso   1.00
H439   H     0.28784   0.33712   0.44600   0.00000  Uiso   1.00
H440   H     0.41199   0.39541   0.47877   0.00000  Uiso   1.00
H441   H     0.34822   0.27312   0.41711   0.00000  Uiso   1.00
H442   H     0.21817   0.33657   0.47579   0.00000  Uiso   1.00
H443   H     0.47996   0.45947   0.54489   0.00000  Uiso   1.00
H444   H     0.34549   0.20159   0.41487   0.00000  Uiso   1.00
H445   H     0.33398   0.30747   0.77016   0.00000  Uiso   1.00
H446   H     0.27206   0.30863   0.77750   0.00000  Uiso   1.00
H447   H     0.39621   0.36692   0.81026   0.00000  Uiso   1.00
H448   H     0.33245   0.24463   0.74860   0.00000  Uiso   1.00
H449   H     0.20537   0.31345   0.74485   0.00000  Uiso   1.00
H450   H     0.46716   0.43635   0.81394   0.00000  Uiso   1.00
H451   H     0.33269   0.17847   0.68392   0.00000  Uiso   1.00
O452   O     0.17131   0.32628   0.60948   0.00000  Uiso   1.00
O453   O     0.51477   0.48751   0.70013   0.00000  Uiso   1.00
O454   O     0.33835   0.14918   0.52954   0.00000  Uiso   1.00
N455   N     0.22365   0.33096   0.53811   0.00000  Uiso   1.00
N456   N     0.46840   0.44587   0.60271   0.00000  Uiso   1.00
N457   N     0.34270   0.20477   0.48115   0.00000  Uiso   1.00
N458   N     0.21676   0.31852   0.68289   0.00000  Uiso   1.00
N459   N     0.46151   0.43343   0.74748   0.00000  Uiso   1.00
N460   N     0.33581   0.19233   0.62593   0.00000  Uiso   1.00
C461   C     0.98278   0.65450   0.86124   0.00000  Uiso   1.00
C462   C     0.01574   0.68977   0.89943   0.00000  Uiso   1.00
C463   C     0.04655   0.71558   0.85089   0.00000  Uiso   1.00
C464   C     0.07372   0.74599   0.89817   0.00000  Uiso   1.00
C465   C     0.12545   0.80007   0.94341   0.00000  Uiso   1.00
C466   C     0.97996   0.62231   0.91723   0.00000  Uiso   1.00
C467   C     0.98068   0.59141   0.88367   0.00000  Uiso   1.00
C468   C     0.97773   0.56503   0.94593   0.00000  Uiso   1.00
C469   C     0.97388   0.51438   0.01881   0.00000  Uiso   1.00
C470   C     0.94817   0.65696   0.88373   0.00000  Uiso   1.00
C471   C     0.92214   0.65519   0.82200   0.00000  Uiso   1.00
C472   C     0.89241   0.65797   0.85606   0.00000  Uiso   1.00
C473   C     0.83920   0.66112   0.87692   0.00000  Uiso   1.00
C474   C     0.97625   0.66260   0.03150   0.00000  Uiso   1.00
C475   C     0.01219   0.69417   0.99191   0.00000  Uiso   1.00
C476   C     0.03933   0.72454   0.03926   0.00000  Uiso   1.00
C477   C     0.07017   0.75040   0.99081   0.00000  Uiso   1.00
C478   C     0.97641   0.62671   0.00971   0.00000  Uiso   1.00
C479   C     0.97346   0.60037   0.07204   0.00000  Uiso   1.00
C480   C     0.97418   0.56944   0.03858   0.00000  Uiso   1.00
C481   C     0.94462   0.66136   0.97621   0.00000  Uiso   1.00
C482   C     0.91492   0.66415   0.01037   0.00000  Uiso   1.00
C483   C     0.88886   0.66238   0.94870   0.00000  Uiso   1.00
H484   H     0.98554   0.65107   0.78924   0.00000  Uiso   1.00
H485   H     0.04929   0.71216   0.77933   0.00000  Uiso   1.00
H486   H     0.98342   0.58801   0.81210   0.00000  Uiso   1.00
H487   H     0.92490   0.65178   0.75044   0.00000  Uiso   1.00
H488   H     0.11840   0.78183   0.80913   0.00000  Uiso   1.00
H489   H     0.97951   0.52004   0.87822   0.00000  Uiso   1.00
H490   H     0.85610   0.65451   0.74820   0.00000  Uiso   1.00
H491   H     0.97349   0.66602   0.10350   0.00000  Uiso   1.00
H492   H     0.03657   0.72794   0.11083   0.00000  Uiso   1.00
H493   H     0.97071   0.60379   0.14360   0.00000  Uiso   1.00
H494   H     0.91218   0.66755   0.08194   0.00000  Uiso   1.00
H495   H     0.10809   0.79463   0.07819   0.00000  Uiso   1.00
H496   H     0.96919   0.53284   0.14728   0.00000  Uiso   1.00
H497   H     0.84578   0.66731   0.01726   0.00000  Uiso   1.00
O498   O     0.15497   0.82869   0.94282   0.00000  Uiso   1.00
O499   O     0.97274   0.48523   0.03346   0.00000  Uiso   1.00
O500   O     0.81083   0.66165   0.86287   0.00000  Uiso   1.00
N501   N     0.10732   0.77635   0.87144   0.00000  Uiso   1.00
N502   N     0.97747   0.53160   0.93604   0.00000  Uiso   1.00
N503   N     0.86208   0.65730   0.81448   0.00000  Uiso   1.00
N504   N     0.10176   0.78324   0.01622   0.00000  Uiso   1.00
N505   N     0.97191   0.53849   0.08082   0.00000  Uiso   1.00
N506   N     0.85653   0.66419   0.95926   0.00000  Uiso   1.00
C507   C     0.67172   0.01722   0.19457   0.00000  Uiso   1.00
C508   C     0.67402   0.98426   0.23276   0.00000  Uiso   1.00
C509   C     0.66903   0.95345   0.18423   0.00000  Uiso   1.00
C510   C     0.67226   0.92628   0.23150   0.00000  Uiso   1.00
C511   C     0.67462   0.87455   0.27674   0.00000  Uiso   1.00
C512   C     0.64235   0.02004   0.25057   0.00000  Uiso   1.00
C513   C     0.61073   0.01932   0.21700   0.00000  Uiso   1.00
C514   C     0.58731   0.02227   0.27927   0.00000  Uiso   1.00
C515   C     0.54050   0.02612   0.35214   0.00000  Uiso   1.00
C516   C     0.70880   0.05183   0.21706   0.00000  Uiso   1.00
C517   C     0.73304   0.07786   0.15533   0.00000  Uiso   1.00
C518   C     0.76556   0.10759   0.18939   0.00000  Uiso   1.00
C519   C     0.82192   0.16080   0.21025   0.00000  Uiso   1.00
C520   C     0.68635   0.02375   0.36483   0.00000  Uiso   1.00
C521   C     0.68197   0.98781   0.32524   0.00000  Uiso   1.00
C522   C     0.68522   0.96067   0.37260   0.00000  Uiso   1.00
C523   C     0.68023   0.92983   0.32414   0.00000  Uiso   1.00
C524   C     0.65030   0.02359   0.34304   0.00000  Uiso   1.00
C525   C     0.62692   0.02654   0.40537   0.00000  Uiso   1.00
C526   C     0.59527   0.02582   0.37191   0.00000  Uiso   1.00
C527   C     0.71675   0.05538   0.30954   0.00000  Uiso   1.00
C528   C     0.74923   0.08508   0.34370   0.00000  Uiso   1.00
C529   C     0.77352   0.11114   0.28204   0.00000  Uiso   1.00
H530   H     0.66553   0.01446   0.12258   0.00000  Uiso   1.00
H531   H     0.66288   0.95071   0.11266   0.00000  Uiso   1.00
H532   H     0.60459   0.01658   0.14543   0.00000  Uiso   1.00
H533   H     0.72688   0.07510   0.08377   0.00000  Uiso   1.00
H534   H     0.66343   0.88160   0.14246   0.00000  Uiso   1.00
H535   H     0.54053   0.02049   0.21156   0.00000  Uiso   1.00
H536   H     0.79841   0.14390   0.08153   0.00000  Uiso   1.00
H537   H     0.69253   0.02651   0.43683   0.00000  Uiso   1.00
H538   H     0.69137   0.96343   0.44416   0.00000  Uiso   1.00
H539   H     0.63308   0.02929   0.47693   0.00000  Uiso   1.00
H540   H     0.75537   0.08782   0.41527   0.00000  Uiso   1.00
H541   H     0.68655   0.89191   0.41152   0.00000  Uiso   1.00
H542   H     0.56365   0.03081   0.48061   0.00000  Uiso   1.00
H543   H     0.82153   0.15422   0.35059   0.00000  Uiso   1.00
O544   O     0.67372   0.84503   0.27615   0.00000  Uiso   1.00
O545   O     0.51249   0.02726   0.36679   0.00000  Uiso   1.00
O546   O     0.85082   0.18917   0.19621   0.00000  Uiso   1.00
N547   N     0.66904   0.89268   0.20477   0.00000  Uiso   1.00
N548   N     0.55413   0.02253   0.26937   0.00000  Uiso   1.00
N549   N     0.79523   0.13792   0.14782   0.00000  Uiso   1.00
N550   N     0.68148   0.89824   0.34955   0.00000  Uiso   1.00
N551   N     0.56657   0.02809   0.41415   0.00000  Uiso   1.00
N552   N     0.80767   0.14347   0.29259   0.00000  Uiso   1.00
