data_job_06931
_audit_creation_date              2018-12-19
_audit_creation_method            'Materials Studio'
_symmetry_space_group_name_H-M    'P1'
_symmetry_Int_Tables_number       1
_symmetry_cell_setting            triclinic
loop_
_symmetry_equiv_pos_as_xyz
  x,y,z
_cell_length_a                    19.6747
_cell_length_b                    20.3944
_cell_length_c                    20.8113
_cell_angle_alpha                 95.6280
_cell_angle_beta                  91.7564
_cell_angle_gamma                 99.0090
loop_
_atom_site_label
_atom_site_type_symbol
_atom_site_fract_x
_atom_site_fract_y
_atom_site_fract_z
_atom_site_U_iso_or_equiv
_atom_site_adp_type
_atom_site_occupancy
C1     C     0.28864   0.11926   0.96845   0.00000  Uiso   1.00
C2     C     0.36701   0.13096   0.97694   0.00000  Uiso   1.00
C3     C     0.40508   0.10612   0.02347   0.00000  Uiso   1.00
C4     C     0.47628   0.12248   0.02325   0.00000  Uiso   1.00
C5     C     0.59311   0.13463   0.04333   0.00000  Uiso   1.00
C6     C     0.26752   0.18832   0.97255   0.00000  Uiso   1.00
C7     C     0.22194   0.21170   0.01539   0.00000  Uiso   1.00
C8     C     0.20937   0.27635   0.01146   0.00000  Uiso   1.00
C9     C     0.17171   0.37752   0.02470   0.00000  Uiso   1.00
C10    C     0.27164   0.08868   0.89887   0.00000  Uiso   1.00
C11    C     0.22950   0.02830   0.87975   0.00000  Uiso   1.00
C12    C     0.22039   0.00906   0.81378   0.00000  Uiso   1.00
C13    C     0.18912   0.95554   0.71262   0.00000  Uiso   1.00
C14    C     0.34737   0.19247   0.88530   0.00000  Uiso   1.00
C15    C     0.39891   0.17073   0.93178   0.00000  Uiso   1.00
C16    C     0.47006   0.18713   0.93149   0.00000  Uiso   1.00
C17    C     0.50824   0.16232   0.97801   0.00000  Uiso   1.00
C18    C     0.29942   0.22808   0.92740   0.00000  Uiso   1.00
C19    C     0.28692   0.29271   0.92340   0.00000  Uiso   1.00
C20    C     0.24133   0.31619   0.96622   0.00000  Uiso   1.00
C21    C     0.30354   0.12845   0.85371   0.00000  Uiso   1.00
C22    C     0.29449   0.10930   0.78776   0.00000  Uiso   1.00
C23    C     0.25235   0.04890   0.76854   0.00000  Uiso   1.00
H24    H     0.26380   0.08830   0.00360   0.00000  Uiso   1.00
H25    H     0.38038   0.07535   0.05842   0.00000  Uiso   1.00
H26    H     0.19725   0.18091   0.05033   0.00000  Uiso   1.00
H27    H     0.20483   0.99754   0.91471   0.00000  Uiso   1.00
H28    H     0.52369   0.07856   0.09928   0.00000  Uiso   1.00
H29    H     0.13754   0.30113   0.08221   0.00000  Uiso   1.00
H30    H     0.15351   0.91445   0.79624   0.00000  Uiso   1.00
H31    H     0.37221   0.22344   0.85014   0.00000  Uiso   1.00
H32    H     0.49474   0.21790   0.89653   0.00000  Uiso   1.00
H33    H     0.31161   0.32346   0.88845   0.00000  Uiso   1.00
H34    H     0.31918   0.14009   0.75283   0.00000  Uiso   1.00
H35    H     0.61651   0.19426   0.96790   0.00000  Uiso   1.00
H36    H     0.23036   0.41683   0.95083   0.00000  Uiso   1.00
H37    H     0.24632   0.03015   0.66485   0.00000  Uiso   1.00
O38    O     0.64874   0.13035   0.06689   0.00000  Uiso   1.00
O39    O     0.14212   0.42235   0.04449   0.00000  Uiso   1.00
O40    O     0.16307   0.91503   0.66929   0.00000  Uiso   1.00
N41    N     0.52872   0.10654   0.06199   0.00000  Uiso   1.00
N42    N     0.16770   0.31463   0.04604   0.00000  Uiso   1.00
N43    N     0.18261   0.95312   0.77867   0.00000  Uiso   1.00
N44    N     0.57866   0.16879   0.99129   0.00000  Uiso   1.00
N45    N     0.21765   0.37689   0.97534   0.00000  Uiso   1.00
N46    N     0.23256   0.01538   0.70797   0.00000  Uiso   1.00
C47    C     0.02178   0.28135   0.19711   0.00000  Uiso   1.00
C48    C     0.01745   0.35558   0.20000   0.00000  Uiso   1.00
C49    C     0.06826   0.40484   0.18224   0.00000  Uiso   1.00
C50    C     0.05441   0.46979   0.18846   0.00000  Uiso   1.00
C51    C     0.05720   0.58276   0.18945   0.00000  Uiso   1.00
C52    C     0.00963   0.26208   0.26529   0.00000  Uiso   1.00
C53    C     0.05387   0.23271   0.30243   0.00000  Uiso   1.00
C54    C     0.03343   0.21896   0.36361   0.00000  Uiso   1.00
C55    C     0.02406   0.18672   0.46594   0.00000  Uiso   1.00
C56    C     0.95949   0.24543   0.15527   0.00000  Uiso   1.00
C57    C     0.96156   0.20205   0.09991   0.00000  Uiso   1.00
C58    C     0.89890   0.17426   0.06847   0.00000  Uiso   1.00
C59    C     0.81168   0.11617   0.99999   0.00000  Uiso   1.00
C60    C     0.90684   0.30912   0.23974   0.00000  Uiso   1.00
C61    C     0.95502   0.37066   0.22315   0.00000  Uiso   1.00
C62    C     0.94108   0.43556   0.22940   0.00000  Uiso   1.00
C63    C     0.99186   0.48491   0.21165   0.00000  Uiso   1.00
C64    C     0.94720   0.27716   0.28844   0.00000  Uiso   1.00
C65    C     0.92670   0.26344   0.34958   0.00000  Uiso   1.00
C66    C     0.97089   0.23407   0.38680   0.00000  Uiso   1.00
C67    C     0.89706   0.26051   0.17842   0.00000  Uiso   1.00
C68    C     0.83439   0.23278   0.14707   0.00000  Uiso   1.00
C69    C     0.83636   0.18937   0.09167   0.00000  Uiso   1.00
H70    H     0.07039   0.26961   0.17909   0.00000  Uiso   1.00
H71    H     0.11657   0.39314   0.16433   0.00000  Uiso   1.00
H72    H     0.10218   0.22104   0.28449   0.00000  Uiso   1.00
H73    H     0.00988   0.19039   0.08201   0.00000  Uiso   1.00
H74    H     0.14025   0.53676   0.15820   0.00000  Uiso   1.00
H75    H     0.10989   0.17385   0.41156   0.00000  Uiso   1.00
H76    H     0.91527   0.10921   0.98458   0.00000  Uiso   1.00
H77    H     0.85823   0.32087   0.25776   0.00000  Uiso   1.00
H78    H     0.89277   0.44722   0.24732   0.00000  Uiso   1.00
H79    H     0.87838   0.27512   0.36748   0.00000  Uiso   1.00
H80    H     0.78608   0.24446   0.16500   0.00000  Uiso   1.00
H81    H     0.95860   0.58065   0.22556   0.00000  Uiso   1.00
H82    H     0.92824   0.21774   0.47891   0.00000  Uiso   1.00
H83    H     0.73362   0.15310   0.05194   0.00000  Uiso   1.00
O84    O     0.07598   0.64090   0.18361   0.00000  Uiso   1.00
O85    O     0.03615   0.16477   0.51600   0.00000  Uiso   1.00
O86    O     0.78081   0.07997   0.95581   0.00000  Uiso   1.00
N87    N     0.09275   0.52975   0.17547   0.00000  Uiso   1.00
N88    N     0.06438   0.19046   0.41235   0.00000  Uiso   1.00
N89    N     0.88242   0.13001   0.01317   0.00000  Uiso   1.00
N90    N     0.99501   0.55337   0.21172   0.00000  Uiso   1.00
N91    N     0.96663   0.21408   0.44860   0.00000  Uiso   1.00
N92    N     0.78468   0.15363   0.04942   0.00000  Uiso   1.00
C93    C     0.14407   0.98903   0.28401   0.00000  Uiso   1.00
C94    C     0.14243   0.98738   0.35705   0.00000  Uiso   1.00
C95    C     0.12037   0.03488   0.40042   0.00000  Uiso   1.00
C96    C     0.12287   0.02434   0.46529   0.00000  Uiso   1.00
C97    C     0.11674   0.03033   0.57556   0.00000  Uiso   1.00
C98    C     0.21827   0.98547   0.26674   0.00000  Uiso   1.00
C99    C     0.25997   0.03137   0.23419   0.00000  Uiso   1.00
C100   C     0.32631   0.01921   0.22304   0.00000  Uiso   1.00
C101   C     0.43791   0.02222   0.19307   0.00000  Uiso   1.00
C102   C     0.10146   0.92351   0.25433   0.00000  Uiso   1.00
C103   C     0.04496   0.91730   0.21131   0.00000  Uiso   1.00
C104   C     0.01297   0.85298   0.18969   0.00000  Uiso   1.00
C105   C     0.94321   0.75977   0.14044   0.00000  Uiso   1.00
C106   C     0.18776   0.88583   0.32209   0.00000  Uiso   1.00
C107   C     0.16616   0.93133   0.37773   0.00000  Uiso   1.00
C108   C     0.16870   0.92071   0.44255   0.00000  Uiso   1.00
C109   C     0.14664   0.96819   0.48602   0.00000  Uiso   1.00
C110   C     0.24200   0.92943   0.28743   0.00000  Uiso   1.00
C111   C     0.30829   0.91720   0.27632   0.00000  Uiso   1.00
C112   C     0.35008   0.96306   0.24376   0.00000  Uiso   1.00
C113   C     0.12519   0.86746   0.27501   0.00000  Uiso   1.00
C114   C     0.09329   0.80313   0.25345   0.00000  Uiso   1.00
C115   C     0.03674   0.79682   0.21041   0.00000  Uiso   1.00
H116   H     0.12561   0.03266   0.26790   0.00000  Uiso   1.00
H117   H     0.10202   0.07825   0.38439   0.00000  Uiso   1.00
H118   H     0.24159   0.07474   0.21818   0.00000  Uiso   1.00
H119   H     0.02661   0.96069   0.19531   0.00000  Uiso   1.00
H120   H     0.08635   0.10409   0.52267   0.00000  Uiso   1.00
H121   H     0.38064   0.09666   0.17218   0.00000  Uiso   1.00
H122   H     0.92732   0.85617   0.12396   0.00000  Uiso   1.00
H123   H     0.20623   0.84219   0.33819   0.00000  Uiso   1.00
H124   H     0.18706   0.87733   0.45855   0.00000  Uiso   1.00
H125   H     0.32664   0.87382   0.29233   0.00000  Uiso   1.00
H126   H     0.11166   0.75977   0.26946   0.00000  Uiso   1.00
H127   H     0.15538   0.94102   0.58286   0.00000  Uiso   1.00
H128   H     0.44967   0.93359   0.23236   0.00000  Uiso   1.00
H129   H     0.99635   0.69310   0.18414   0.00000  Uiso   1.00
O130   O     0.10682   0.04912   0.63067   0.00000  Uiso   1.00
O131   O     0.49291   0.03936   0.17083   0.00000  Uiso   1.00
O132   O     0.89817   0.72384   0.10757   0.00000  Uiso   1.00
N133   N     0.10521   0.06088   0.52032   0.00000  Uiso   1.00
N134   N     0.38036   0.05394   0.19264   0.00000  Uiso   1.00
N135   N     0.95656   0.82910   0.14754   0.00000  Uiso   1.00
N136   N     0.14235   0.97313   0.55271   0.00000  Uiso   1.00
N137   N     0.41750   0.96620   0.22502   0.00000  Uiso   1.00
N138   N     0.99370   0.74135   0.17993   0.00000  Uiso   1.00
C139   C     0.76020   0.43338   0.64079   0.00000  Uiso   1.00
C140   C     0.83809   0.45198   0.65204   0.00000  Uiso   1.00
C141   C     0.87914   0.50514   0.62834   0.00000  Uiso   1.00
C142   C     0.94929   0.51377   0.64403   0.00000  Uiso   1.00
C143   C     0.06596   0.54921   0.65574   0.00000  Uiso   1.00
C144   C     0.73074   0.43283   0.70770   0.00000  Uiso   1.00
C145   C     0.68152   0.46989   0.73079   0.00000  Uiso   1.00
C146   C     0.66130   0.46239   0.79333   0.00000  Uiso   1.00
C147   C     0.61127   0.46807   0.89143   0.00000  Uiso   1.00
C148   C     0.74714   0.36106   0.61063   0.00000  Uiso   1.00
C149   C     0.71169   0.33776   0.55211   0.00000  Uiso   1.00
C150   C     0.70525   0.26984   0.53295   0.00000  Uiso   1.00
C151   C     0.68068   0.16408   0.48033   0.00000  Uiso   1.00
C152   C     0.81180   0.35418   0.71082   0.00000  Uiso   1.00
C153   C     0.86611   0.40896   0.69008   0.00000  Uiso   1.00
C154   C     0.93622   0.41751   0.70581   0.00000  Uiso   1.00
C155   C     0.97736   0.47067   0.68213   0.00000  Uiso   1.00
C156   C     0.75876   0.38982   0.74573   0.00000  Uiso   1.00
C157   C     0.73860   0.38226   0.80826   0.00000  Uiso   1.00
C158   C     0.68937   0.41929   0.83144   0.00000  Uiso   1.00
C159   C     0.77516   0.31804   0.64867   0.00000  Uiso   1.00
C160   C     0.76877   0.25014   0.62959   0.00000  Uiso   1.00
C161   C     0.73333   0.22674   0.57105   0.00000  Uiso   1.00
H162   H     0.73838   0.46687   0.61119   0.00000  Uiso   1.00
H163   H     0.85743   0.53842   0.59891   0.00000  Uiso   1.00
H164   H     0.65984   0.50317   0.70134   0.00000  Uiso   1.00
H165   H     0.69001   0.37107   0.52270   0.00000  Uiso   1.00
H166   H     0.00177   0.59878   0.60209   0.00000  Uiso   1.00
H167   H     0.58512   0.52444   0.81807   0.00000  Uiso   1.00
H168   H     0.64873   0.24588   0.44136   0.00000  Uiso   1.00
H169   H     0.83361   0.32069   0.74043   0.00000  Uiso   1.00
H170   H     0.95789   0.38421   0.73524   0.00000  Uiso   1.00
H171   H     0.76030   0.34896   0.83768   0.00000  Uiso   1.00
H172   H     0.79047   0.21686   0.65903   0.00000  Uiso   1.00
H173   H     0.08330   0.47363   0.71275   0.00000  Uiso   1.00
H174   H     0.66666   0.39928   0.92872   0.00000  Uiso   1.00
H175   H     0.73027   0.12072   0.55201   0.00000  Uiso   1.00
O176   O     0.12257   0.58064   0.65170   0.00000  Uiso   1.00
O177   O     0.57594   0.48310   0.93504   0.00000  Uiso   1.00
O178   O     0.65940   0.11763   0.44080   0.00000  Uiso   1.00
N179   N     0.00390   0.56060   0.62884   0.00000  Uiso   1.00
N180   N     0.61437   0.49110   0.83076   0.00000  Uiso   1.00
N181   N     0.67383   0.23067   0.47858   0.00000  Uiso   1.00
N182   N     0.04778   0.49325   0.68838   0.00000  Uiso   1.00
N183   N     0.65825   0.42375   0.89031   0.00000  Uiso   1.00
N184   N     0.71770   0.16332   0.53812   0.00000  Uiso   1.00
C185   C     0.49262   0.63352   0.83501   0.00000  Uiso   1.00
C186   C     0.48187   0.63592   0.90741   0.00000  Uiso   1.00
C187   C     0.52941   0.62497   0.95422   0.00000  Uiso   1.00
C188   C     0.50976   0.62942   0.01780   0.00000  Uiso   1.00
C189   C     0.50295   0.63091   0.12777   0.00000  Uiso   1.00
C190   C     0.48051   0.70103   0.81542   0.00000  Uiso   1.00
C191   C     0.52691   0.74482   0.78489   0.00000  Uiso   1.00
C192   C     0.50610   0.80409   0.77103   0.00000  Uiso   1.00
C193   C     0.49717   0.90665   0.73815   0.00000  Uiso   1.00
C194   C     0.43363   0.58240   0.80255   0.00000  Uiso   1.00
C195   C     0.44061   0.52645   0.76117   0.00000  Uiso   1.00
C196   C     0.38033   0.48584   0.73646   0.00000  Uiso   1.00
C197   C     0.29861   0.40420   0.68358   0.00000  Uiso   1.00
C198   C     0.37319   0.66092   0.86470   0.00000  Uiso   1.00
C199   C     0.41700   0.65080   0.92353   0.00000  Uiso   1.00
C200   C     0.39727   0.65527   0.98706   0.00000  Uiso   1.00
C201   C     0.44477   0.64433   0.03396   0.00000  Uiso   1.00
C202   C     0.41565   0.71591   0.83155   0.00000  Uiso   1.00
C203   C     0.39477   0.77513   0.81773   0.00000  Uiso   1.00
C204   C     0.44112   0.81900   0.78718   0.00000  Uiso   1.00
C205   C     0.36876   0.59728   0.81867   0.00000  Uiso   1.00
C206   C     0.30847   0.55676   0.79402   0.00000  Uiso   1.00
C207   C     0.31535   0.50075   0.75261   0.00000  Uiso   1.00
H208   H     0.54312   0.62194   0.82246   0.00000  Uiso   1.00
H209   H     0.57961   0.61346   0.94172   0.00000  Uiso   1.00
H210   H     0.57710   0.73329   0.77241   0.00000  Uiso   1.00
H211   H     0.49081   0.51495   0.74870   0.00000  Uiso   1.00
H212   H     0.59146   0.61064   0.08106   0.00000  Uiso   1.00
H213   H     0.58616   0.86330   0.72404   0.00000  Uiso   1.00
H214   H     0.40421   0.40289   0.67404   0.00000  Uiso   1.00
H215   H     0.32268   0.67250   0.87725   0.00000  Uiso   1.00
H216   H     0.34707   0.66679   0.99952   0.00000  Uiso   1.00
H217   H     0.34456   0.78663   0.83021   0.00000  Uiso   1.00
H218   H     0.25828   0.56829   0.80651   0.00000  Uiso   1.00
H219   H     0.40272   0.65393   0.12798   0.00000  Uiso   1.00
H220   H     0.39743   0.90659   0.77095   0.00000  Uiso   1.00
H221   H     0.21548   0.44618   0.72096   0.00000  Uiso   1.00
O222   O     0.51712   0.62763   0.18397   0.00000  Uiso   1.00
O223   O     0.51016   0.95911   0.71556   0.00000  Uiso   1.00
O224   O     0.27145   0.35506   0.64997   0.00000  Uiso   1.00
N225   N     0.54369   0.62159   0.07532   0.00000  Uiso   1.00
N226   N     0.53874   0.85783   0.74154   0.00000  Uiso   1.00
N227   N     0.36863   0.42739   0.69478   0.00000  Uiso   1.00
N228   N     0.44213   0.64489   0.10056   0.00000  Uiso   1.00
N229   N     0.43718   0.88112   0.76678   0.00000  Uiso   1.00
N230   N     0.26707   0.45068   0.72003   0.00000  Uiso   1.00
C231   C     0.63567   0.73115   0.53682   0.00000  Uiso   1.00
C232   C     0.63216   0.80493   0.53362   0.00000  Uiso   1.00
C233   C     0.60661   0.84651   0.58053   0.00000  Uiso   1.00
C234   C     0.60791   0.91247   0.56855   0.00000  Uiso   1.00
C235   C     0.59855   0.02347   0.57225   0.00000  Uiso   1.00
C236   C     0.71100   0.72379   0.52898   0.00000  Uiso   1.00
C237   C     0.75173   0.69714   0.57197   0.00000  Uiso   1.00
C238   C     0.81939   0.69478   0.55607   0.00000  Uiso   1.00
C239   C     0.93242   0.67977   0.55253   0.00000  Uiso   1.00
C240   C     0.59657   0.69432   0.47612   0.00000  Uiso   1.00
C241   C     0.54109   0.64288   0.47467   0.00000  Uiso   1.00
C242   C     0.51241   0.61570   0.41426   0.00000  Uiso   1.00
C243   C     0.44776   0.55493   0.32865   0.00000  Uiso   1.00
C244   C     0.68340   0.77434   0.43213   0.00000  Uiso   1.00
C245   C     0.65809   0.82839   0.47676   0.00000  Uiso   1.00
C246   C     0.65942   0.89430   0.46470   0.00000  Uiso   1.00
C247   C     0.63388   0.93597   0.51158   0.00000  Uiso   1.00
C248   C     0.73693   0.74725   0.47211   0.00000  Uiso   1.00
C249   C     0.80454   0.74493   0.45614   0.00000  Uiso   1.00
C250   C     0.84537   0.71829   0.49910   0.00000  Uiso   1.00
C251   C     0.62249   0.71778   0.41925   0.00000  Uiso   1.00
C252   C     0.59390   0.69067   0.35884   0.00000  Uiso   1.00
C253   C     0.53839   0.63920   0.35729   0.00000  Uiso   1.00
H254   H     0.61549   0.71288   0.58109   0.00000  Uiso   1.00
H255   H     0.58656   0.82834   0.62453   0.00000  Uiso   1.00
H256   H     0.73165   0.67898   0.61597   0.00000  Uiso   1.00
H257   H     0.52104   0.62474   0.51868   0.00000  Uiso   1.00
H258   H     0.56594   0.96670   0.64763   0.00000  Uiso   1.00
H259   H     0.87187   0.65175   0.62956   0.00000  Uiso   1.00
H260   H     0.42776   0.53736   0.42441   0.00000  Uiso   1.00
H261   H     0.70359   0.79261   0.38785   0.00000  Uiso   1.00
H262   H     0.67949   0.91244   0.42069   0.00000  Uiso   1.00
H263   H     0.82458   0.76309   0.41213   0.00000  Uiso   1.00
H264   H     0.61397   0.70884   0.31484   0.00000  Uiso   1.00
H265   H     0.64137   0.03496   0.48219   0.00000  Uiso   1.00
H266   H     0.94730   0.72001   0.46412   0.00000  Uiso   1.00
H267   H     0.50319   0.60562   0.25897   0.00000  Uiso   1.00
O268   O     0.58623   0.07822   0.59001   0.00000  Uiso   1.00
O269   O     0.98760   0.66502   0.56630   0.00000  Uiso   1.00
O270   O     0.40493   0.51494   0.29714   0.00000  Uiso   1.00
N271   N     0.58699   0.96631   0.60418   0.00000  Uiso   1.00
N272   N     0.87302   0.67187   0.58729   0.00000  Uiso   1.00
N273   N     0.45782   0.56491   0.39549   0.00000  Uiso   1.00
N274   N     0.62757   0.00304   0.51516   0.00000  Uiso   1.00
N275   N     0.91360   0.70860   0.49827   0.00000  Uiso   1.00
N276   N     0.49841   0.60164   0.30647   0.00000  Uiso   1.00
C277   C     0.68083   0.94086   0.07301   0.00000  Uiso   1.00
C278   C     0.60839   0.94096   0.04481   0.00000  Uiso   1.00
C279   C     0.59231   0.96106   0.98516   0.00000  Uiso   1.00
C280   C     0.52292   0.95739   0.96816   0.00000  Uiso   1.00
C281   C     0.41826   0.96102   0.91810   0.00000  Uiso   1.00
C282   C     0.68301   0.86951   0.08807   0.00000  Uiso   1.00
C283   C     0.72967   0.82954   0.06479   0.00000  Uiso   1.00
C284   C     0.72310   0.76572   0.08421   0.00000  Uiso   1.00
C285   C     0.73431   0.65843   0.10134   0.00000  Uiso   1.00
C286   C     0.68625   0.98313   0.13814   0.00000  Uiso   1.00
C287   C     0.73564   0.03867   0.15697   0.00000  Uiso   1.00
C288   C     0.73181   0.07050   0.21856   0.00000  Uiso   1.00
C289   C     0.74806   0.13962   0.31344   0.00000  Uiso   1.00
C290   C     0.58621   0.89860   0.14890   0.00000  Uiso   1.00
C291   C     0.55700   0.91801   0.08604   0.00000  Uiso   1.00
C292   C     0.48762   0.91431   0.06913   0.00000  Uiso   1.00
C293   C     0.47143   0.93440   0.00946   0.00000  Uiso   1.00
C294   C     0.63162   0.84656   0.12929   0.00000  Uiso   1.00
C295   C     0.62498   0.78278   0.14876   0.00000  Uiso   1.00
C296   C     0.67161   0.74272   0.12551   0.00000  Uiso   1.00
C297   C     0.63486   0.96018   0.17937   0.00000  Uiso   1.00
C298   C     0.63095   0.99192   0.24094   0.00000  Uiso   1.00
C299   C     0.68033   0.04751   0.25986   0.00000  Uiso   1.00
H300   H     0.72084   0.95872   0.04092   0.00000  Uiso   1.00
H301   H     0.63209   0.97881   0.95327   0.00000  Uiso   1.00
H302   H     0.76944   0.84731   0.03290   0.00000  Uiso   1.00
H303   H     0.77540   0.05642   0.12506   0.00000  Uiso   1.00
H304   H     0.51103   0.99095   0.87427   0.00000  Uiso   1.00
H305   H     0.80064   0.71368   0.04218   0.00000  Uiso   1.00
H306   H     0.81323   0.15462   0.23653   0.00000  Uiso   1.00
H307   H     0.54620   0.88073   0.18100   0.00000  Uiso   1.00
H308   H     0.44786   0.89654   0.10104   0.00000  Uiso   1.00
H309   H     0.58521   0.76504   0.18066   0.00000  Uiso   1.00
H310   H     0.59118   0.97415   0.27282   0.00000  Uiso   1.00
H311   H     0.36150   0.92417   0.99420   0.00000  Uiso   1.00
H312   H     0.65111   0.64690   0.16211   0.00000  Uiso   1.00
H313   H     0.66370   0.08784   0.35646   0.00000  Uiso   1.00
O314   O     0.37473   0.96935   0.87909   0.00000  Uiso   1.00
O315   O     0.75469   0.60559   0.09940   0.00000  Uiso   1.00
O316   O     0.77121   0.18409   0.35438   0.00000  Uiso   1.00
N317   N     0.48933   0.97307   0.91347   0.00000  Uiso   1.00
N318   N     0.76010   0.71384   0.07045   0.00000  Uiso   1.00
N319   N     0.77188   0.12607   0.25216   0.00000  Uiso   1.00
N320   N     0.40887   0.93714   0.97801   0.00000  Uiso   1.00
N321   N     0.67964   0.67791   0.13498   0.00000  Uiso   1.00
N322   N     0.69142   0.09014   0.31669   0.00000  Uiso   1.00
C323   C     0.00155   0.70593   0.95421   0.00000  Uiso   1.00
C324   C     0.96351   0.63498   0.95563   0.00000  Uiso   1.00
C325   C     0.89778   0.61762   0.97735   0.00000  Uiso   1.00
C326   C     0.87207   0.54996   0.97469   0.00000  Uiso   1.00
C327   C     0.80709   0.44717   0.98044   0.00000  Uiso   1.00
C328   C     0.02062   0.71194   0.88432   0.00000  Uiso   1.00
C329   C     0.00291   0.75930   0.84609   0.00000  Uiso   1.00
C330   C     0.02528   0.75643   0.78339   0.00000  Uiso   1.00
C331   C     0.04901   0.77316   0.67845   0.00000  Uiso   1.00
C332   C     0.06935   0.70968   0.99296   0.00000  Uiso   1.00
C333   C     0.09262   0.75514   0.04607   0.00000  Uiso   1.00
C334   C     0.15603   0.75038   0.07484   0.00000  Uiso   1.00
C335   C     0.25542   0.76360   0.13859   0.00000  Uiso   1.00
C336   C     0.07278   0.61665   0.91085   0.00000  Uiso   1.00
C337   C     0.00219   0.58649   0.93208   0.00000  Uiso   1.00
C338   C     0.97658   0.51884   0.92938   0.00000  Uiso   1.00
C339   C     0.91082   0.50138   0.95110   0.00000  Uiso   1.00
C340   C     0.05930   0.66345   0.86077   0.00000  Uiso   1.00
C341   C     0.08171   0.66052   0.79812   0.00000  Uiso   1.00
C342   C     0.06404   0.70785   0.75980   0.00000  Uiso   1.00
C343   C     0.10803   0.66118   0.96941   0.00000  Uiso   1.00
C344   C     0.17142   0.65636   0.99810   0.00000  Uiso   1.00
C345   C     0.19479   0.70180   0.05125   0.00000  Uiso   1.00
H346   H     0.97144   0.74369   0.97254   0.00000  Uiso   1.00
H347   H     0.86786   0.65516   0.99557   0.00000  Uiso   1.00
H348   H     0.97298   0.79682   0.86433   0.00000  Uiso   1.00
H349   H     0.06267   0.79266   0.06428   0.00000  Uiso   1.00
H350   H     0.77007   0.53563   0.01069   0.00000  Uiso   1.00
H351   H     0.99174   0.83434   0.73397   0.00000  Uiso   1.00
H352   H     0.18089   0.82558   0.15561   0.00000  Uiso   1.00
H353   H     0.10290   0.57889   0.89251   0.00000  Uiso   1.00
H354   H     0.00653   0.48132   0.91115   0.00000  Uiso   1.00
H355   H     0.11165   0.62298   0.77991   0.00000  Uiso   1.00
H356   H     0.20134   0.61882   0.97987   0.00000  Uiso   1.00
H357   H     0.88261   0.39453   0.94217   0.00000  Uiso   1.00
H358   H     0.10429   0.69325   0.66545   0.00000  Uiso   1.00
H359   H     0.29343   0.68448   0.08710   0.00000  Uiso   1.00
O360   O     0.76056   0.40387   0.99012   0.00000  Uiso   1.00
O361   O     0.05140   0.79578   0.62707   0.00000  Uiso   1.00
O362   O     0.29955   0.78427   0.18026   0.00000  Uiso   1.00
N363   N     0.80979   0.51581   0.99202   0.00000  Uiso   1.00
N364   N     0.01703   0.79509   0.73330   0.00000  Uiso   1.00
N365   N     0.19387   0.78690   0.12749   0.00000  Uiso   1.00
N366   N     0.87035   0.43989   0.95515   0.00000  Uiso   1.00
N367   N     0.07759   0.71916   0.69643   0.00000  Uiso   1.00
N368   N     0.25443   0.71098   0.09062   0.00000  Uiso   1.00
C369   C     0.93615   0.05616   0.71451   0.00000  Uiso   1.00
C370   C     0.93802   0.01442   0.64984   0.00000  Uiso   1.00
C371   C     0.97036   0.95880   0.63923   0.00000  Uiso   1.00
C372   C     0.96615   0.92749   0.57659   0.00000  Uiso   1.00
C373   C     0.97439   0.85908   0.48382   0.00000  Uiso   1.00
C374   C     0.86016   0.05611   0.72695   0.00000  Uiso   1.00
C375   C     0.82705   0.03556   0.78118   0.00000  Uiso   1.00
C376   C     0.75730   0.03936   0.78344   0.00000  Uiso   1.00
C377   C     0.64468   0.03572   0.81040   0.00000  Uiso   1.00
C378   C     0.96573   0.12764   0.70342   0.00000  Uiso   1.00
C379   C     0.02137   0.16723   0.73788   0.00000  Uiso   1.00
C380   C     0.04050   0.23126   0.72035   0.00000  Uiso   1.00
C381   C     0.09179   0.33867   0.71079   0.00000  Uiso   1.00
C382   C     0.87117   0.09948   0.62212   0.00000  Uiso   1.00
C383   C     0.90272   0.03795   0.59966   0.00000  Uiso   1.00
C384   C     0.89847   0.00672   0.53702   0.00000  Uiso   1.00
C385   C     0.93080   0.95106   0.52632   0.00000  Uiso   1.00
C386   C     0.82487   0.07964   0.67677   0.00000  Uiso   1.00
C387   C     0.75516   0.08348   0.67896   0.00000  Uiso   1.00
C388   C     0.72194   0.06293   0.73317   0.00000  Uiso   1.00
C389   C     0.93044   0.15117   0.65324   0.00000  Uiso   1.00
C390   C     0.94948   0.21515   0.63566   0.00000  Uiso   1.00
C391   C     0.00514   0.25483   0.67008   0.00000  Uiso   1.00
H392   H     0.96362   0.03785   0.75358   0.00000  Uiso   1.00
H393   H     0.99766   0.94060   0.67808   0.00000  Uiso   1.00
H394   H     0.85437   0.01736   0.82000   0.00000  Uiso   1.00
H395   H     0.04867   0.14901   0.77671   0.00000  Uiso   1.00
H396   H     0.01982   0.84315   0.57226   0.00000  Uiso   1.00
H397   H     0.71769   0.00501   0.87151   0.00000  Uiso   1.00
H398   H     0.12740   0.28262   0.78023   0.00000  Uiso   1.00
H399   H     0.84369   0.11780   0.58305   0.00000  Uiso   1.00
H400   H     0.87115   0.02494   0.49819   0.00000  Uiso   1.00
H401   H     0.72786   0.10169   0.64012   0.00000  Uiso   1.00
H402   H     0.92216   0.23334   0.59683   0.00000  Uiso   1.00
H403   H     0.91713   0.91160   0.42625   0.00000  Uiso   1.00
H404   H     0.61501   0.07346   0.72551   0.00000  Uiso   1.00
H405   H     0.02471   0.35107   0.63423   0.00000  Uiso   1.00
O406   O     0.98868   0.81483   0.44652   0.00000  Uiso   1.00
O407   O     0.59231   0.02720   0.83914   0.00000  Uiso   1.00
O408   O     0.12984   0.39141   0.71937   0.00000  Uiso   1.00
N409   N     0.99189   0.87201   0.54954   0.00000  Uiso   1.00
N410   N     0.70942   0.02333   0.82932   0.00000  Uiso   1.00
N411   N     0.09245   0.28288   0.74399   0.00000  Uiso   1.00
N412   N     0.93664   0.90884   0.47097   0.00000  Uiso   1.00
N413   N     0.65417   0.06016   0.75076   0.00000  Uiso   1.00
N414   N     0.03720   0.31971   0.66543   0.00000  Uiso   1.00
C415   C     0.21150   0.55581   0.48055   0.00000  Uiso   1.00
C416   C     0.13866   0.51793   0.48395   0.00000  Uiso   1.00
C417   C     0.12167   0.45392   0.50208   0.00000  Uiso   1.00
C418   C     0.05206   0.42805   0.50207   0.00000  Uiso   1.00
C419   C     0.94669   0.36360   0.50998   0.00000  Uiso   1.00
C420   C     0.21740   0.57495   0.41169   0.00000  Uiso   1.00
C421   C     0.26662   0.55890   0.36908   0.00000  Uiso   1.00
C422   C     0.26330   0.58104   0.30824   0.00000  Uiso   1.00
C423   C     0.28020   0.60517   0.20398   0.00000  Uiso   1.00
C424   C     0.21441   0.62106   0.52389   0.00000  Uiso   1.00
C425   C     0.26113   0.64379   0.57561   0.00000  Uiso   1.00
C426   C     0.25530   0.70477   0.60922   0.00000  Uiso   1.00
C427   C     0.26756   0.80049   0.67917   0.00000  Uiso   1.00
C428   C     0.11810   0.62368   0.44827   0.00000  Uiso   1.00
C429   C     0.08793   0.55479   0.46641   0.00000  Uiso   1.00
C430   C     0.01833   0.52901   0.46637   0.00000  Uiso   1.00
C431   C     0.00124   0.46498   0.48450   0.00000  Uiso   1.00
C432   C     0.16668   0.61181   0.39415   0.00000  Uiso   1.00
C433   C     0.16328   0.63399   0.33336   0.00000  Uiso   1.00
C434   C     0.21248   0.61797   0.29067   0.00000  Uiso   1.00
C435   C     0.16368   0.65793   0.50636   0.00000  Uiso   1.00
C436   C     0.15779   0.71889   0.53989   0.00000  Uiso   1.00
C437   C     0.20448   0.74170   0.59165   0.00000  Uiso   1.00
H438   H     0.25099   0.52711   0.49420   0.00000  Uiso   1.00
H439   H     0.16094   0.42540   0.51565   0.00000  Uiso   1.00
H440   H     0.30587   0.53037   0.38266   0.00000  Uiso   1.00
H441   H     0.30038   0.61525   0.58916   0.00000  Uiso   1.00
H442   H     0.03874   0.32889   0.53167   0.00000  Uiso   1.00
H443   H     0.34434   0.55024   0.25128   0.00000  Uiso   1.00
H444   H     0.33276   0.72923   0.68671   0.00000  Uiso   1.00
H445   H     0.07860   0.65239   0.43462   0.00000  Uiso   1.00
H446   H     0.97909   0.55756   0.45280   0.00000  Uiso   1.00
H447   H     0.12402   0.66252   0.31981   0.00000  Uiso   1.00
H448   H     0.11852   0.74740   0.52631   0.00000  Uiso   1.00
H449   H     0.89113   0.43615   0.48065   0.00000  Uiso   1.00
H450   H     0.19675   0.65750   0.20026   0.00000  Uiso   1.00
H451   H     0.18515   0.83649   0.63570   0.00000  Uiso   1.00
O452   O     0.90258   0.31787   0.51917   0.00000  Uiso   1.00
O453   O     0.30354   0.60828   0.15132   0.00000  Uiso   1.00
O454   O     0.28833   0.84311   0.72260   0.00000  Uiso   1.00
N455   N     0.01765   0.36716   0.51718   0.00000  Uiso   1.00
N456   N     0.30337   0.57410   0.25502   0.00000  Uiso   1.00
N457   N     0.29255   0.74144   0.66211   0.00000  Uiso   1.00
N458   N     0.93823   0.42487   0.48973   0.00000  Uiso   1.00
N459   N     0.22395   0.63181   0.22758   0.00000  Uiso   1.00
N460   N     0.21313   0.79916   0.63466   0.00000  Uiso   1.00
C461   C     0.55530   0.43226   0.22410   0.00000  Uiso   1.00
C462   C     0.51747   0.43562   0.15974   0.00000  Uiso   1.00
C463   C     0.45892   0.46457   0.15151   0.00000  Uiso   1.00
C464   C     0.43207   0.46248   0.08873   0.00000  Uiso   1.00
C465   C     0.36865   0.47222   0.99680   0.00000  Uiso   1.00
C466   C     0.55754   0.35850   0.22900   0.00000  Uiso   1.00
C467   C     0.53269   0.32263   0.27901   0.00000  Uiso   1.00
C468   C     0.53959   0.25563   0.27453   0.00000  Uiso   1.00
C469   C     0.53842   0.14567   0.29015   0.00000  Uiso   1.00
C470   C     0.62957   0.46483   0.21718   0.00000  Uiso   1.00
C471   C     0.66530   0.51835   0.25725   0.00000  Uiso   1.00
C472   C     0.73285   0.54087   0.24283   0.00000  Uiso   1.00
C473   C     0.84353   0.59600   0.24010   0.00000  Uiso   1.00
C474   C     0.61176   0.37708   0.12723   0.00000  Uiso   1.00
C475   C     0.54814   0.40564   0.10713   0.00000  Uiso   1.00
C476   C     0.52138   0.40352   0.04434   0.00000  Uiso   1.00
C477   C     0.46279   0.43246   0.03602   0.00000  Uiso   1.00
C478   C     0.58820   0.32853   0.17639   0.00000  Uiso   1.00
C479   C     0.59515   0.26158   0.17184   0.00000  Uiso   1.00
C480   C     0.57031   0.22561   0.22182   0.00000  Uiso   1.00
C481   C     0.66024   0.43487   0.16456   0.00000  Uiso   1.00
C482   C     0.72776   0.45730   0.15008   0.00000  Uiso   1.00
C483   C     0.76357   0.51084   0.19013   0.00000  Uiso   1.00
H484   H     0.53143   0.45559   0.26506   0.00000  Uiso   1.00
H485   H     0.43520   0.48775   0.19224   0.00000  Uiso   1.00
H486   H     0.50896   0.34584   0.31972   0.00000  Uiso   1.00
H487   H     0.64155   0.54153   0.29796   0.00000  Uiso   1.00
H488   H     0.34201   0.51017   0.08830   0.00000  Uiso   1.00
H489   H     0.49758   0.21094   0.35711   0.00000  Uiso   1.00
H490   H     0.77716   0.62360   0.31124   0.00000  Uiso   1.00
H491   H     0.63563   0.35374   0.08627   0.00000  Uiso   1.00
H492   H     0.54512   0.38032   0.00364   0.00000  Uiso   1.00
H493   H     0.61888   0.23840   0.13112   0.00000  Uiso   1.00
H494   H     0.75147   0.43410   0.10936   0.00000  Uiso   1.00
H495   H     0.43123   0.42297   0.93523   0.00000  Uiso   1.00
H496   H     0.58680   0.12374   0.20404   0.00000  Uiso   1.00
H497   H     0.86638   0.53640   0.15817   0.00000  Uiso   1.00
O498   O     0.32519   0.48587   0.96063   0.00000  Uiso   1.00
O499   O     0.52929   0.09330   0.31330   0.00000  Uiso   1.00
O500   O     0.89610   0.63470   0.25313   0.00000  Uiso   1.00
N501   N     0.37544   0.48601   0.06361   0.00000  Uiso   1.00
N502   N     0.52087   0.20625   0.31493   0.00000  Uiso   1.00
N503   N     0.78227   0.59204   0.27206   0.00000  Uiso   1.00
N504   N     0.42345   0.43909   0.98125   0.00000  Uiso   1.00
N505   N     0.56888   0.15933   0.23256   0.00000  Uiso   1.00
N506   N     0.83028   0.54512   0.18969   0.00000  Uiso   1.00
C507   C     0.45266   0.17948   0.54737   0.00000  Uiso   1.00
C508   C     0.44804   0.10886   0.51393   0.00000  Uiso   1.00
C509   C     0.47823   0.09131   0.45670   0.00000  Uiso   1.00
C510   C     0.46794   0.02402   0.43399   0.00000  Uiso   1.00
C511   C     0.46668   0.92167   0.37697   0.00000  Uiso   1.00
C512   C     0.37856   0.19147   0.55459   0.00000  Uiso   1.00
C513   C     0.35035   0.24339   0.53155   0.00000  Uiso   1.00
C514   C     0.28158   0.24564   0.54309   0.00000  Uiso   1.00
C515   C     0.17248   0.27158   0.54923   0.00000  Uiso   1.00
C516   C     0.48204   0.17759   0.61570   0.00000  Uiso   1.00
C517   C     0.54083   0.21785   0.64406   0.00000  Uiso   1.00
C518   C     0.55917   0.20843   0.70705   0.00000  Uiso   1.00
C519   C     0.61074   0.21282   0.80808   0.00000  Uiso   1.00
C520   C     0.38068   0.09118   0.60881   0.00000  Uiso   1.00
C521   C     0.40894   0.06090   0.54730   0.00000  Uiso   1.00
C522   C     0.39860   0.99362   0.52468   0.00000  Uiso   1.00
C523   C     0.42878   0.97597   0.46743   0.00000  Uiso   1.00
C524   C     0.33947   0.14351   0.58796   0.00000  Uiso   1.00
C525   C     0.27072   0.14569   0.59953   0.00000  Uiso   1.00
C526   C     0.24241   0.19760   0.57652   0.00000  Uiso   1.00
C527   C     0.44295   0.12963   0.64907   0.00000  Uiso   1.00
C528   C     0.46120   0.12015   0.71204   0.00000  Uiso   1.00
C529   C     0.52001   0.16039   0.74049   0.00000  Uiso   1.00
H530   H     0.48309   0.21682   0.52139   0.00000  Uiso   1.00
H531   H     0.50848   0.12845   0.43088   0.00000  Uiso   1.00
H532   H     0.38062   0.28050   0.50573   0.00000  Uiso   1.00
H533   H     0.57107   0.25496   0.61822   0.00000  Uiso   1.00
H534   H     0.51937   0.00932   0.34524   0.00000  Uiso   1.00
H535   H     0.24978   0.32995   0.50309   0.00000  Uiso   1.00
H536   H     0.65138   0.27610   0.74029   0.00000  Uiso   1.00
H537   H     0.35024   0.05384   0.63480   0.00000  Uiso   1.00
H538   H     0.36834   0.95651   0.55051   0.00000  Uiso   1.00
H539   H     0.24049   0.10857   0.62536   0.00000  Uiso   1.00
H540   H     0.43094   0.08303   0.73785   0.00000  Uiso   1.00
H541   H     0.40562   0.86977   0.44234   0.00000  Uiso   1.00
H542   H     0.13604   0.19040   0.60019   0.00000  Uiso   1.00
H543   H     0.53764   0.13655   0.83739   0.00000  Uiso   1.00
O544   O     0.47678   0.87847   0.33629   0.00000  Uiso   1.00
O545   O     0.12310   0.29913   0.54339   0.00000  Uiso   1.00
O546   O     0.64999   0.22847   0.85459   0.00000  Uiso   1.00
N547   N     0.49012   0.98983   0.37967   0.00000  Uiso   1.00
N548   N     0.23807   0.28959   0.52724   0.00000  Uiso   1.00
N549   N     0.61353   0.23926   0.74901   0.00000  Uiso   1.00
N550   N     0.42892   0.91474   0.43192   0.00000  Uiso   1.00
N551   N     0.17687   0.21450   0.57949   0.00000  Uiso   1.00
N552   N     0.55232   0.16417   0.80125   0.00000  Uiso   1.00
