data_job_01169
_audit_creation_date              2018-12-19
_audit_creation_method            'Materials Studio'
_symmetry_space_group_name_H-M    'P1'
_symmetry_Int_Tables_number       1
_symmetry_cell_setting            triclinic
loop_
_symmetry_equiv_pos_as_xyz
  x,y,z
_cell_length_a                    14.7734
_cell_length_b                    17.7676
_cell_length_c                    9.9195
_cell_angle_alpha                 90.0000
_cell_angle_beta                  87.6225
_cell_angle_gamma                 90.0000
loop_
_atom_site_label
_atom_site_type_symbol
_atom_site_fract_x
_atom_site_fract_y
_atom_site_fract_z
_atom_site_U_iso_or_equiv
_atom_site_adp_type
_atom_site_occupancy
C1     C     0.19985   0.89553   0.87523   0.00000  Uiso   1.00
C2     C     0.24916   0.94423   0.97534   0.00000  Uiso   1.00
C3     C     0.24785   0.93397   0.11410   0.00000  Uiso   1.00
C4     C     0.29736   0.98458   0.18816   0.00000  Uiso   1.00
C5     C     0.36642   0.05129   0.35314   0.00000  Uiso   1.00
C6     C     0.13998   0.94897   0.79808   0.00000  Uiso   1.00
C7     C     0.04689   0.94268   0.78779   0.00000  Uiso   1.00
C8     C     0.00450   0.99727   0.71261   0.00000  Uiso   1.00
C9     C     0.90408   0.07130   0.60232   0.00000  Uiso   1.00
C10    C     0.27226   0.86749   0.77329   0.00000  Uiso   1.00
C11    C     0.29038   0.79271   0.74212   0.00000  Uiso   1.00
C12    C     0.35934   0.77870   0.64604   0.00000  Uiso   1.00
C13    C     0.46430   0.72622   0.49725   0.00000  Uiso   1.00
C14    C     0.29011   0.00364   0.76000   0.00000  Uiso   1.00
C15    C     0.29818   0.00295   0.91275   0.00000  Uiso   1.00
C16    C     0.34771   0.05359   0.98661   0.00000  Uiso   1.00
C17    C     0.34647   0.04340   0.12546   0.00000  Uiso   1.00
C18    C     0.18900   0.00769   0.73550   0.00000  Uiso   1.00
C19    C     0.14674   0.06229   0.66030   0.00000  Uiso   1.00
C20    C     0.05361   0.05610   0.64991   0.00000  Uiso   1.00
C21    C     0.32129   0.92621   0.71070   0.00000  Uiso   1.00
C22    C     0.39023   0.91232   0.61464   0.00000  Uiso   1.00
C23    C     0.40845   0.83753   0.58334   0.00000  Uiso   1.00
H24    H     0.16168   0.84982   0.92395   0.00000  Uiso   1.00
H25    H     0.20990   0.88853   0.16250   0.00000  Uiso   1.00
H26    H     0.00897   0.89723   0.83623   0.00000  Uiso   1.00
H27    H     0.25243   0.74728   0.79058   0.00000  Uiso   1.00
H28    H     0.28494   0.95736   0.39938   0.00000  Uiso   1.00
H29    H     0.86128   0.97569   0.71139   0.00000  Uiso   1.00
H30    H     0.37465   0.65949   0.61511   0.00000  Uiso   1.00
H31    H     0.32827   0.04936   0.71126   0.00000  Uiso   1.00
H32    H     0.38563   0.09902   0.93815   0.00000  Uiso   1.00
H33    H     0.18470   0.10773   0.61188   0.00000  Uiso   1.00
H34    H     0.42816   0.95777   0.56622   0.00000  Uiso   1.00
H35    H     0.42757   0.12820   0.21729   0.00000  Uiso   1.00
H36    H     0.00391   0.14654   0.52929   0.00000  Uiso   1.00
H37    H     0.51728   0.83034   0.43301   0.00000  Uiso   1.00
O38    O     0.39096   0.07186   0.46143   0.00000  Uiso   1.00
O39    O     0.83514   0.09591   0.55878   0.00000  Uiso   1.00
O40    O     0.50866   0.68106   0.43248   0.00000  Uiso   1.00
N41    N     0.31065   0.99074   0.32539   0.00000  Uiso   1.00
N42    N     0.91455   0.00789   0.68217   0.00000  Uiso   1.00
N43    N     0.39449   0.71227   0.59213   0.00000  Uiso   1.00
N44    N     0.38740   0.08267   0.22741   0.00000  Uiso   1.00
N45    N     0.99130   0.09982   0.58419   0.00000  Uiso   1.00
N46    N     0.47124   0.80420   0.49415   0.00000  Uiso   1.00
C47    C     0.80015   0.39553   0.62477   0.00000  Uiso   1.00
C48    C     0.75084   0.44423   0.52466   0.00000  Uiso   1.00
C49    C     0.75215   0.43397   0.38590   0.00000  Uiso   1.00
C50    C     0.70264   0.48458   0.31184   0.00000  Uiso   1.00
C51    C     0.63358   0.55129   0.14686   0.00000  Uiso   1.00
C52    C     0.86002   0.44897   0.70192   0.00000  Uiso   1.00
C53    C     0.95311   0.44268   0.71221   0.00000  Uiso   1.00
C54    C     0.99550   0.49727   0.78739   0.00000  Uiso   1.00
C55    C     0.09592   0.57130   0.89768   0.00000  Uiso   1.00
C56    C     0.72774   0.36749   0.72671   0.00000  Uiso   1.00
C57    C     0.70962   0.29271   0.75788   0.00000  Uiso   1.00
C58    C     0.64066   0.27870   0.85396   0.00000  Uiso   1.00
C59    C     0.53570   0.22622   0.00275   0.00000  Uiso   1.00
C60    C     0.70989   0.50364   0.74000   0.00000  Uiso   1.00
C61    C     0.70182   0.50295   0.58725   0.00000  Uiso   1.00
C62    C     0.65229   0.55359   0.51339   0.00000  Uiso   1.00
C63    C     0.65353   0.54340   0.37454   0.00000  Uiso   1.00
C64    C     0.81100   0.50769   0.76450   0.00000  Uiso   1.00
C65    C     0.85326   0.56229   0.83970   0.00000  Uiso   1.00
C66    C     0.94639   0.55610   0.85009   0.00000  Uiso   1.00
C67    C     0.67871   0.42621   0.78930   0.00000  Uiso   1.00
C68    C     0.60977   0.41232   0.88536   0.00000  Uiso   1.00
C69    C     0.59155   0.33753   0.91666   0.00000  Uiso   1.00
H70    H     0.83832   0.34982   0.57605   0.00000  Uiso   1.00
H71    H     0.79010   0.38853   0.33750   0.00000  Uiso   1.00
H72    H     0.99103   0.39723   0.66377   0.00000  Uiso   1.00
H73    H     0.74757   0.24728   0.70942   0.00000  Uiso   1.00
H74    H     0.71506   0.45736   0.10062   0.00000  Uiso   1.00
H75    H     0.13872   0.47569   0.78861   0.00000  Uiso   1.00
H76    H     0.62535   0.15949   0.88489   0.00000  Uiso   1.00
H77    H     0.67173   0.54936   0.78874   0.00000  Uiso   1.00
H78    H     0.61437   0.59902   0.56185   0.00000  Uiso   1.00
H79    H     0.81530   0.60773   0.88812   0.00000  Uiso   1.00
H80    H     0.57184   0.45777   0.93378   0.00000  Uiso   1.00
H81    H     0.57243   0.62820   0.28271   0.00000  Uiso   1.00
H82    H     0.99609   0.64654   0.97071   0.00000  Uiso   1.00
H83    H     0.48272   0.33034   0.06699   0.00000  Uiso   1.00
O84    O     0.60904   0.57186   0.03857   0.00000  Uiso   1.00
O85    O     0.16486   0.59591   0.94122   0.00000  Uiso   1.00
O86    O     0.49134   0.18106   0.06752   0.00000  Uiso   1.00
N87    N     0.68935   0.49074   0.17461   0.00000  Uiso   1.00
N88    N     0.08545   0.50789   0.81783   0.00000  Uiso   1.00
N89    N     0.60551   0.21227   0.90787   0.00000  Uiso   1.00
N90    N     0.61260   0.58267   0.27259   0.00000  Uiso   1.00
N91    N     0.00870   0.59982   0.91581   0.00000  Uiso   1.00
N92    N     0.52876   0.30420   0.00585   0.00000  Uiso   1.00
C93    C     0.80015   0.10447   0.12477   0.00000  Uiso   1.00
C94    C     0.75084   0.05577   0.02466   0.00000  Uiso   1.00
C95    C     0.75215   0.06603   0.88590   0.00000  Uiso   1.00
C96    C     0.70264   0.01542   0.81184   0.00000  Uiso   1.00
C97    C     0.63358   0.94871   0.64686   0.00000  Uiso   1.00
C98    C     0.86002   0.05103   0.20192   0.00000  Uiso   1.00
C99    C     0.95311   0.05732   0.21221   0.00000  Uiso   1.00
C100   C     0.99550   0.00273   0.28739   0.00000  Uiso   1.00
C101   C     0.09592   0.92870   0.39768   0.00000  Uiso   1.00
C102   C     0.72774   0.13251   0.22671   0.00000  Uiso   1.00
C103   C     0.70962   0.20729   0.25788   0.00000  Uiso   1.00
C104   C     0.64066   0.22130   0.35396   0.00000  Uiso   1.00
C105   C     0.53570   0.27378   0.50275   0.00000  Uiso   1.00
C106   C     0.70989   0.99636   0.24000   0.00000  Uiso   1.00
C107   C     0.70182   0.99705   0.08725   0.00000  Uiso   1.00
C108   C     0.65229   0.94641   0.01339   0.00000  Uiso   1.00
C109   C     0.65353   0.95660   0.87454   0.00000  Uiso   1.00
C110   C     0.81100   0.99231   0.26450   0.00000  Uiso   1.00
C111   C     0.85326   0.93771   0.33970   0.00000  Uiso   1.00
C112   C     0.94639   0.94390   0.35009   0.00000  Uiso   1.00
C113   C     0.67871   0.07379   0.28930   0.00000  Uiso   1.00
C114   C     0.60977   0.08768   0.38536   0.00000  Uiso   1.00
C115   C     0.59155   0.16247   0.41666   0.00000  Uiso   1.00
H116   H     0.83832   0.15018   0.07605   0.00000  Uiso   1.00
H117   H     0.79010   0.11147   0.83750   0.00000  Uiso   1.00
H118   H     0.99103   0.10277   0.16377   0.00000  Uiso   1.00
H119   H     0.74757   0.25272   0.20942   0.00000  Uiso   1.00
H120   H     0.71506   0.04264   0.60062   0.00000  Uiso   1.00
H121   H     0.13872   0.02431   0.28861   0.00000  Uiso   1.00
H122   H     0.62535   0.34051   0.38489   0.00000  Uiso   1.00
H123   H     0.67173   0.95064   0.28874   0.00000  Uiso   1.00
H124   H     0.61437   0.90098   0.06185   0.00000  Uiso   1.00
H125   H     0.81530   0.89227   0.38812   0.00000  Uiso   1.00
H126   H     0.57184   0.04223   0.43378   0.00000  Uiso   1.00
H127   H     0.57243   0.87180   0.78271   0.00000  Uiso   1.00
H128   H     0.99609   0.85346   0.47071   0.00000  Uiso   1.00
H129   H     0.48272   0.16966   0.56699   0.00000  Uiso   1.00
O130   O     0.60904   0.92814   0.53857   0.00000  Uiso   1.00
O131   O     0.16486   0.90409   0.44122   0.00000  Uiso   1.00
O132   O     0.49134   0.31894   0.56752   0.00000  Uiso   1.00
N133   N     0.68935   0.00926   0.67461   0.00000  Uiso   1.00
N134   N     0.08545   0.99211   0.31783   0.00000  Uiso   1.00
N135   N     0.60551   0.28773   0.40787   0.00000  Uiso   1.00
N136   N     0.61260   0.91733   0.77259   0.00000  Uiso   1.00
N137   N     0.00870   0.90018   0.41581   0.00000  Uiso   1.00
N138   N     0.52876   0.19580   0.50585   0.00000  Uiso   1.00
C139   C     0.19985   0.60447   0.37523   0.00000  Uiso   1.00
C140   C     0.24916   0.55577   0.47534   0.00000  Uiso   1.00
C141   C     0.24785   0.56603   0.61410   0.00000  Uiso   1.00
C142   C     0.29736   0.51542   0.68816   0.00000  Uiso   1.00
C143   C     0.36642   0.44871   0.85314   0.00000  Uiso   1.00
C144   C     0.13998   0.55103   0.29808   0.00000  Uiso   1.00
C145   C     0.04689   0.55732   0.28779   0.00000  Uiso   1.00
C146   C     0.00450   0.50273   0.21261   0.00000  Uiso   1.00
C147   C     0.90408   0.42870   0.10232   0.00000  Uiso   1.00
C148   C     0.27226   0.63251   0.27329   0.00000  Uiso   1.00
C149   C     0.29038   0.70729   0.24212   0.00000  Uiso   1.00
C150   C     0.35934   0.72130   0.14604   0.00000  Uiso   1.00
C151   C     0.46430   0.77378   0.99725   0.00000  Uiso   1.00
C152   C     0.29011   0.49636   0.26000   0.00000  Uiso   1.00
C153   C     0.29818   0.49705   0.41275   0.00000  Uiso   1.00
C154   C     0.34771   0.44641   0.48661   0.00000  Uiso   1.00
C155   C     0.34647   0.45660   0.62546   0.00000  Uiso   1.00
C156   C     0.18900   0.49231   0.23550   0.00000  Uiso   1.00
C157   C     0.14674   0.43771   0.16030   0.00000  Uiso   1.00
C158   C     0.05361   0.44390   0.14991   0.00000  Uiso   1.00
C159   C     0.32129   0.57379   0.21070   0.00000  Uiso   1.00
C160   C     0.39023   0.58768   0.11464   0.00000  Uiso   1.00
C161   C     0.40845   0.66247   0.08334   0.00000  Uiso   1.00
H162   H     0.16168   0.65018   0.42395   0.00000  Uiso   1.00
H163   H     0.20990   0.61147   0.66250   0.00000  Uiso   1.00
H164   H     0.00897   0.60277   0.33623   0.00000  Uiso   1.00
H165   H     0.25243   0.75272   0.29058   0.00000  Uiso   1.00
H166   H     0.28494   0.54264   0.89938   0.00000  Uiso   1.00
H167   H     0.86128   0.52431   0.21139   0.00000  Uiso   1.00
H168   H     0.37465   0.84051   0.11511   0.00000  Uiso   1.00
H169   H     0.32827   0.45064   0.21126   0.00000  Uiso   1.00
H170   H     0.38563   0.40098   0.43815   0.00000  Uiso   1.00
H171   H     0.18470   0.39227   0.11188   0.00000  Uiso   1.00
H172   H     0.42816   0.54223   0.06622   0.00000  Uiso   1.00
H173   H     0.42757   0.37180   0.71729   0.00000  Uiso   1.00
H174   H     0.00391   0.35346   0.02929   0.00000  Uiso   1.00
H175   H     0.51728   0.66966   0.93301   0.00000  Uiso   1.00
O176   O     0.39096   0.42814   0.96143   0.00000  Uiso   1.00
O177   O     0.83514   0.40409   0.05878   0.00000  Uiso   1.00
O178   O     0.50866   0.81894   0.93248   0.00000  Uiso   1.00
N179   N     0.31065   0.50926   0.82539   0.00000  Uiso   1.00
N180   N     0.91455   0.49211   0.18217   0.00000  Uiso   1.00
N181   N     0.39449   0.78773   0.09213   0.00000  Uiso   1.00
N182   N     0.38740   0.41733   0.72741   0.00000  Uiso   1.00
N183   N     0.99130   0.40018   0.08419   0.00000  Uiso   1.00
N184   N     0.47124   0.69580   0.99415   0.00000  Uiso   1.00
