data_job_04606
_audit_creation_date              2018-12-19
_audit_creation_method            'Materials Studio'
_symmetry_space_group_name_H-M    'P1'
_symmetry_Int_Tables_number       1
_symmetry_cell_setting            triclinic
loop_
_symmetry_equiv_pos_as_xyz
  x,y,z
_cell_length_a                    33.4008
_cell_length_b                    12.5994
_cell_length_c                    31.7496
_cell_angle_alpha                 90.0000
_cell_angle_beta                  158.7724
_cell_angle_gamma                 90.0000
loop_
_atom_site_label
_atom_site_type_symbol
_atom_site_fract_x
_atom_site_fract_y
_atom_site_fract_z
_atom_site_U_iso_or_equiv
_atom_site_adp_type
_atom_site_occupancy
C1     C     0.08030   0.31827   0.73129   0.00000  Uiso   1.00
C2     C     0.02047   0.42333   0.67964   0.00000  Uiso   1.00
C3     C     0.96367   0.45226   0.66014   0.00000  Uiso   1.00
C4     C     0.91449   0.55183   0.61215   0.00000  Uiso   1.00
C5     C     0.82041   0.70457   0.53608   0.00000  Uiso   1.00
C6     C     0.03045   0.27053   0.64256   0.00000  Uiso   1.00
C7     C     0.98206   0.17097   0.59191   0.00000  Uiso   1.00
C8     C     0.94131   0.14191   0.51272   0.00000  Uiso   1.00
C9     C     0.86280   0.05739   0.37915   0.00000  Uiso   1.00
C10    C     0.19935   0.34689   0.83700   0.00000  Uiso   1.00
C11    C     0.29298   0.31153   0.94984   0.00000  Uiso   1.00
C12    C     0.39443   0.34674   0.03436   0.00000  Uiso   1.00
C13    C     0.57815   0.38080   0.20269   0.00000  Uiso   1.00
C14    C     0.09398   0.44367   0.68074   0.00000  Uiso   1.00
C15    C     0.02790   0.49144   0.65218   0.00000  Uiso   1.00
C16    C     0.97880   0.59100   0.60421   0.00000  Uiso   1.00
C17    C     0.92194   0.62007   0.58465   0.00000  Uiso   1.00
C18    C     0.03788   0.33863   0.61510   0.00000  Uiso   1.00
C19    C     0.99720   0.30971   0.53598   0.00000  Uiso   1.00
C20    C     0.94875   0.21014   0.48521   0.00000  Uiso   1.00
C21    C     0.20678   0.41501   0.80955   0.00000  Uiso   1.00
C22    C     0.30811   0.45027   0.89391   0.00000  Uiso   1.00
C23    C     0.40187   0.41498   0.00685   0.00000  Uiso   1.00
H24    H     0.07452   0.26524   0.75266   0.00000  Uiso   1.00
H25    H     0.95793   0.39952   0.68139   0.00000  Uiso   1.00
H26    H     0.97633   0.11828   0.61318   0.00000  Uiso   1.00
H27    H     0.28719   0.25882   0.97105   0.00000  Uiso   1.00
H28    H     0.83191   0.57841   0.59023   0.00000  Uiso   1.00
H29    H     0.87076   0.98538   0.44643   0.00000  Uiso   1.00
H30    H     0.52627   0.28174   0.20108   0.00000  Uiso   1.00
H31    H     0.09977   0.49670   0.65936   0.00000  Uiso   1.00
H32    H     0.98456   0.64369   0.58298   0.00000  Uiso   1.00
H33    H     0.00297   0.36244   0.51476   0.00000  Uiso   1.00
H34    H     0.31383   0.50298   0.87263   0.00000  Uiso   1.00
H35    H     0.85352   0.77658   0.51035   0.00000  Uiso   1.00
H36    H     0.89237   0.18355   0.36655   0.00000  Uiso   1.00
H37    H     0.54788   0.47991   0.12120   0.00000  Uiso   1.00
O38    O     0.76644   0.77000   0.50169   0.00000  Uiso   1.00
O39    O     0.81743   0.99196   0.31305   0.00000  Uiso   1.00
O40    O     0.67744   0.38078   0.30313   0.00000  Uiso   1.00
N41    N     0.85283   0.60489   0.58193   0.00000  Uiso   1.00
N42    N     0.88913   0.05045   0.44748   0.00000  Uiso   1.00
N43    N     0.50198   0.32749   0.15301   0.00000  Uiso   1.00
N44    N     0.86446   0.71153   0.53895   0.00000  Uiso   1.00
N45    N     0.90076   0.15708   0.40449   0.00000  Uiso   1.00
N46    N     0.51361   0.43413   0.11002   0.00000  Uiso   1.00
C47    C     0.52401   0.17659   0.68247   0.00000  Uiso   1.00
C48    C     0.58234   0.07205   0.74929   0.00000  Uiso   1.00
C49    C     0.62432   0.04186   0.82933   0.00000  Uiso   1.00
C50    C     0.67478   0.94305   0.88112   0.00000  Uiso   1.00
C51    C     0.76417   0.79083   0.98908   0.00000  Uiso   1.00
C52    C     0.58848   0.22741   0.70967   0.00000  Uiso   1.00
C53    C     0.63560   0.32784   0.75639   0.00000  Uiso   1.00
C54    C     0.69121   0.35981   0.77483   0.00000  Uiso   1.00
C55    C     0.79006   0.44880   0.82121   0.00000  Uiso   1.00
C56    C     0.41146   0.14684   0.55395   0.00000  Uiso   1.00
C57    C     0.30973   0.17955   0.46972   0.00000  Uiso   1.00
C58    C     0.21630   0.14371   0.35703   0.00000  Uiso   1.00
C59    C     0.04030   0.10761   0.16162   0.00000  Uiso   1.00
C60    C     0.53896   0.05480   0.63212   0.00000  Uiso   1.00
C61    C     0.59046   0.00591   0.72194   0.00000  Uiso   1.00
C62    C     0.64086   0.90711   0.77362   0.00000  Uiso   1.00
C63    C     0.68291   0.87678   0.85373   0.00000  Uiso   1.00
C64    C     0.59660   0.16126   0.68233   0.00000  Uiso   1.00
C65    C     0.65214   0.19309   0.70069   0.00000  Uiso   1.00
C66    C     0.69935   0.29354   0.74744   0.00000  Uiso   1.00
C67    C     0.41958   0.08069   0.52660   0.00000  Uiso   1.00
C68    C     0.32628   0.04480   0.41402   0.00000  Uiso   1.00
C69    C     0.22444   0.07744   0.32964   0.00000  Uiso   1.00
H70    H     0.51769   0.22809   0.70376   0.00000  Uiso   1.00
H71    H     0.61803   0.09308   0.85047   0.00000  Uiso   1.00
H72    H     0.62929   0.37901   0.77754   0.00000  Uiso   1.00
H73    H     0.30348   0.23074   0.49091   0.00000  Uiso   1.00
H74    H     0.73289   0.91424   0.00111   0.00000  Uiso   1.00
H75    H     0.75661   0.51716   0.84728   0.00000  Uiso   1.00
H76    H     0.06958   0.20450   0.24287   0.00000  Uiso   1.00
H77    H     0.54528   0.00330   0.61083   0.00000  Uiso   1.00
H78    H     0.64714   0.85594   0.75244   0.00000  Uiso   1.00
H79    H     0.65841   0.14188   0.67951   0.00000  Uiso   1.00
H80    H     0.33260   0.99361   0.39289   0.00000  Uiso   1.00
H81    H     0.75653   0.72177   0.92155   0.00000  Uiso   1.00
H82    H     0.78024   0.32470   0.76772   0.00000  Uiso   1.00
H83    H     0.09321   0.01204   0.16331   0.00000  Uiso   1.00
O84    O     0.81125   0.72514   0.05619   0.00000  Uiso   1.00
O85    O     0.84235   0.51616   0.85436   0.00000  Uiso   1.00
O86    O     0.94098   0.10596   0.06139   0.00000  Uiso   1.00
N87    N     0.72446   0.88916   0.96293   0.00000  Uiso   1.00
N88    N     0.74665   0.45284   0.81913   0.00000  Uiso   1.00
N89    N     0.10433   0.16056   0.25405   0.00000  Uiso   1.00
N90    N     0.73717   0.78559   0.92012   0.00000  Uiso   1.00
N91    N     0.75937   0.34928   0.77632   0.00000  Uiso   1.00
N92    N     0.11704   0.05699   0.21124   0.00000  Uiso   1.00
C93    C     0.91970   0.31827   0.76871   0.00000  Uiso   1.00
C94    C     0.97953   0.42333   0.82036   0.00000  Uiso   1.00
C95    C     0.03633   0.45226   0.83986   0.00000  Uiso   1.00
C96    C     0.08551   0.55183   0.88785   0.00000  Uiso   1.00
C97    C     0.17959   0.70457   0.96392   0.00000  Uiso   1.00
C98    C     0.96955   0.27053   0.85744   0.00000  Uiso   1.00
C99    C     0.01794   0.17097   0.90809   0.00000  Uiso   1.00
C100   C     0.05869   0.14191   0.98728   0.00000  Uiso   1.00
C101   C     0.13720   0.05739   0.12085   0.00000  Uiso   1.00
C102   C     0.80065   0.34689   0.66300   0.00000  Uiso   1.00
C103   C     0.70702   0.31153   0.55016   0.00000  Uiso   1.00
C104   C     0.60557   0.34674   0.46564   0.00000  Uiso   1.00
C105   C     0.42185   0.38080   0.29731   0.00000  Uiso   1.00
C106   C     0.90602   0.44367   0.81926   0.00000  Uiso   1.00
C107   C     0.97210   0.49144   0.84782   0.00000  Uiso   1.00
C108   C     0.02120   0.59100   0.89579   0.00000  Uiso   1.00
C109   C     0.07806   0.62007   0.91535   0.00000  Uiso   1.00
C110   C     0.96212   0.33863   0.88490   0.00000  Uiso   1.00
C111   C     0.00280   0.30971   0.96402   0.00000  Uiso   1.00
C112   C     0.05125   0.21014   0.01479   0.00000  Uiso   1.00
C113   C     0.79322   0.41501   0.69045   0.00000  Uiso   1.00
C114   C     0.69189   0.45027   0.60609   0.00000  Uiso   1.00
C115   C     0.59813   0.41498   0.49315   0.00000  Uiso   1.00
H116   H     0.92548   0.26524   0.74734   0.00000  Uiso   1.00
H117   H     0.04207   0.39952   0.81861   0.00000  Uiso   1.00
H118   H     0.02367   0.11828   0.88682   0.00000  Uiso   1.00
H119   H     0.71281   0.25882   0.52895   0.00000  Uiso   1.00
H120   H     0.16809   0.57841   0.90977   0.00000  Uiso   1.00
H121   H     0.12924   0.98538   0.05357   0.00000  Uiso   1.00
H122   H     0.47373   0.28174   0.29892   0.00000  Uiso   1.00
H123   H     0.90023   0.49670   0.84064   0.00000  Uiso   1.00
H124   H     0.01544   0.64369   0.91702   0.00000  Uiso   1.00
H125   H     0.99703   0.36244   0.98524   0.00000  Uiso   1.00
H126   H     0.68617   0.50298   0.62737   0.00000  Uiso   1.00
H127   H     0.14648   0.77658   0.98965   0.00000  Uiso   1.00
H128   H     0.10763   0.18355   0.13345   0.00000  Uiso   1.00
H129   H     0.45212   0.47991   0.37880   0.00000  Uiso   1.00
O130   O     0.23356   0.77000   0.99831   0.00000  Uiso   1.00
O131   O     0.18257   0.99196   0.18695   0.00000  Uiso   1.00
O132   O     0.32256   0.38078   0.19687   0.00000  Uiso   1.00
N133   N     0.14717   0.60489   0.91807   0.00000  Uiso   1.00
N134   N     0.11087   0.05045   0.05252   0.00000  Uiso   1.00
N135   N     0.49802   0.32749   0.34699   0.00000  Uiso   1.00
N136   N     0.13554   0.71153   0.96105   0.00000  Uiso   1.00
N137   N     0.09924   0.15708   0.09551   0.00000  Uiso   1.00
N138   N     0.48639   0.43413   0.38998   0.00000  Uiso   1.00
C139   C     0.47599   0.17659   0.81753   0.00000  Uiso   1.00
C140   C     0.41766   0.07205   0.75071   0.00000  Uiso   1.00
C141   C     0.37568   0.04186   0.67067   0.00000  Uiso   1.00
C142   C     0.32522   0.94305   0.61888   0.00000  Uiso   1.00
C143   C     0.23583   0.79083   0.51092   0.00000  Uiso   1.00
C144   C     0.41152   0.22741   0.79033   0.00000  Uiso   1.00
C145   C     0.36440   0.32784   0.74361   0.00000  Uiso   1.00
C146   C     0.30879   0.35981   0.72517   0.00000  Uiso   1.00
C147   C     0.20994   0.44880   0.67879   0.00000  Uiso   1.00
C148   C     0.58854   0.14684   0.94605   0.00000  Uiso   1.00
C149   C     0.69027   0.17955   0.03028   0.00000  Uiso   1.00
C150   C     0.78370   0.14371   0.14297   0.00000  Uiso   1.00
C151   C     0.95970   0.10761   0.33838   0.00000  Uiso   1.00
C152   C     0.46104   0.05480   0.86788   0.00000  Uiso   1.00
C153   C     0.40954   0.00591   0.77806   0.00000  Uiso   1.00
C154   C     0.35914   0.90711   0.72638   0.00000  Uiso   1.00
C155   C     0.31709   0.87678   0.64627   0.00000  Uiso   1.00
C156   C     0.40340   0.16126   0.81767   0.00000  Uiso   1.00
C157   C     0.34786   0.19309   0.79931   0.00000  Uiso   1.00
C158   C     0.30065   0.29354   0.75256   0.00000  Uiso   1.00
C159   C     0.58042   0.08069   0.97340   0.00000  Uiso   1.00
C160   C     0.67372   0.04480   0.08598   0.00000  Uiso   1.00
C161   C     0.77556   0.07744   0.17036   0.00000  Uiso   1.00
H162   H     0.48231   0.22809   0.79624   0.00000  Uiso   1.00
H163   H     0.38197   0.09308   0.64953   0.00000  Uiso   1.00
H164   H     0.37071   0.37901   0.72246   0.00000  Uiso   1.00
H165   H     0.69652   0.23074   0.00909   0.00000  Uiso   1.00
H166   H     0.26711   0.91424   0.49889   0.00000  Uiso   1.00
H167   H     0.24339   0.51716   0.65272   0.00000  Uiso   1.00
H168   H     0.93042   0.20450   0.25713   0.00000  Uiso   1.00
H169   H     0.45472   0.00330   0.88917   0.00000  Uiso   1.00
H170   H     0.35286   0.85594   0.74756   0.00000  Uiso   1.00
H171   H     0.34159   0.14188   0.82049   0.00000  Uiso   1.00
H172   H     0.66740   0.99361   0.10711   0.00000  Uiso   1.00
H173   H     0.24347   0.72177   0.57845   0.00000  Uiso   1.00
H174   H     0.21976   0.32470   0.73228   0.00000  Uiso   1.00
H175   H     0.90679   0.01204   0.33669   0.00000  Uiso   1.00
O176   O     0.18875   0.72514   0.44381   0.00000  Uiso   1.00
O177   O     0.15765   0.51616   0.64564   0.00000  Uiso   1.00
O178   O     0.05902   0.10596   0.43861   0.00000  Uiso   1.00
N179   N     0.27554   0.88916   0.53707   0.00000  Uiso   1.00
N180   N     0.25335   0.45284   0.68087   0.00000  Uiso   1.00
N181   N     0.89567   0.16056   0.24595   0.00000  Uiso   1.00
N182   N     0.26283   0.78559   0.57988   0.00000  Uiso   1.00
N183   N     0.24063   0.34928   0.72368   0.00000  Uiso   1.00
N184   N     0.88296   0.05699   0.28876   0.00000  Uiso   1.00
C185   C     0.91970   0.68173   0.26871   0.00000  Uiso   1.00
C186   C     0.97953   0.57667   0.32036   0.00000  Uiso   1.00
C187   C     0.03633   0.54774   0.33986   0.00000  Uiso   1.00
C188   C     0.08551   0.44817   0.38785   0.00000  Uiso   1.00
C189   C     0.17959   0.29543   0.46392   0.00000  Uiso   1.00
C190   C     0.96955   0.72947   0.35744   0.00000  Uiso   1.00
C191   C     0.01794   0.82903   0.40809   0.00000  Uiso   1.00
C192   C     0.05869   0.85809   0.48728   0.00000  Uiso   1.00
C193   C     0.13720   0.94261   0.62085   0.00000  Uiso   1.00
C194   C     0.80065   0.65311   0.16300   0.00000  Uiso   1.00
C195   C     0.70702   0.68847   0.05016   0.00000  Uiso   1.00
C196   C     0.60557   0.65326   0.96564   0.00000  Uiso   1.00
C197   C     0.42185   0.61920   0.79731   0.00000  Uiso   1.00
C198   C     0.90602   0.55633   0.31926   0.00000  Uiso   1.00
C199   C     0.97210   0.50856   0.34782   0.00000  Uiso   1.00
C200   C     0.02120   0.40900   0.39579   0.00000  Uiso   1.00
C201   C     0.07806   0.37993   0.41535   0.00000  Uiso   1.00
C202   C     0.96212   0.66137   0.38490   0.00000  Uiso   1.00
C203   C     0.00280   0.69029   0.46402   0.00000  Uiso   1.00
C204   C     0.05125   0.78986   0.51479   0.00000  Uiso   1.00
C205   C     0.79322   0.58499   0.19045   0.00000  Uiso   1.00
C206   C     0.69189   0.54973   0.10609   0.00000  Uiso   1.00
C207   C     0.59813   0.58502   0.99315   0.00000  Uiso   1.00
H208   H     0.92548   0.73476   0.24734   0.00000  Uiso   1.00
H209   H     0.04207   0.60048   0.31861   0.00000  Uiso   1.00
H210   H     0.02367   0.88172   0.38682   0.00000  Uiso   1.00
H211   H     0.71281   0.74118   0.02895   0.00000  Uiso   1.00
H212   H     0.16809   0.42159   0.40977   0.00000  Uiso   1.00
H213   H     0.12924   0.01462   0.55357   0.00000  Uiso   1.00
H214   H     0.47373   0.71826   0.79892   0.00000  Uiso   1.00
H215   H     0.90023   0.50330   0.34064   0.00000  Uiso   1.00
H216   H     0.01544   0.35631   0.41702   0.00000  Uiso   1.00
H217   H     0.99703   0.63756   0.48524   0.00000  Uiso   1.00
H218   H     0.68617   0.49702   0.12737   0.00000  Uiso   1.00
H219   H     0.14648   0.22342   0.48965   0.00000  Uiso   1.00
H220   H     0.10763   0.81645   0.63345   0.00000  Uiso   1.00
H221   H     0.45212   0.52009   0.87880   0.00000  Uiso   1.00
O222   O     0.23356   0.23000   0.49831   0.00000  Uiso   1.00
O223   O     0.18257   0.00804   0.68695   0.00000  Uiso   1.00
O224   O     0.32256   0.61922   0.69687   0.00000  Uiso   1.00
N225   N     0.14717   0.39511   0.41807   0.00000  Uiso   1.00
N226   N     0.11087   0.94955   0.55252   0.00000  Uiso   1.00
N227   N     0.49802   0.67251   0.84699   0.00000  Uiso   1.00
N228   N     0.13554   0.28847   0.46105   0.00000  Uiso   1.00
N229   N     0.09924   0.84292   0.59551   0.00000  Uiso   1.00
N230   N     0.48639   0.56587   0.88998   0.00000  Uiso   1.00
C231   C     0.47599   0.82341   0.31753   0.00000  Uiso   1.00
C232   C     0.41766   0.92795   0.25071   0.00000  Uiso   1.00
C233   C     0.37568   0.95814   0.17067   0.00000  Uiso   1.00
C234   C     0.32522   0.05695   0.11888   0.00000  Uiso   1.00
C235   C     0.23583   0.20917   0.01092   0.00000  Uiso   1.00
C236   C     0.41152   0.77259   0.29033   0.00000  Uiso   1.00
C237   C     0.36440   0.67216   0.24361   0.00000  Uiso   1.00
C238   C     0.30879   0.64019   0.22517   0.00000  Uiso   1.00
C239   C     0.20994   0.55120   0.17879   0.00000  Uiso   1.00
C240   C     0.58854   0.85316   0.44605   0.00000  Uiso   1.00
C241   C     0.69027   0.82045   0.53028   0.00000  Uiso   1.00
C242   C     0.78370   0.85629   0.64297   0.00000  Uiso   1.00
C243   C     0.95970   0.89239   0.83838   0.00000  Uiso   1.00
C244   C     0.46104   0.94520   0.36788   0.00000  Uiso   1.00
C245   C     0.40954   0.99409   0.27806   0.00000  Uiso   1.00
C246   C     0.35914   0.09289   0.22638   0.00000  Uiso   1.00
C247   C     0.31709   0.12322   0.14627   0.00000  Uiso   1.00
C248   C     0.40340   0.83874   0.31767   0.00000  Uiso   1.00
C249   C     0.34786   0.80691   0.29931   0.00000  Uiso   1.00
C250   C     0.30065   0.70646   0.25256   0.00000  Uiso   1.00
C251   C     0.58042   0.91931   0.47340   0.00000  Uiso   1.00
C252   C     0.67372   0.95520   0.58598   0.00000  Uiso   1.00
C253   C     0.77556   0.92256   0.67036   0.00000  Uiso   1.00
H254   H     0.48231   0.77191   0.29624   0.00000  Uiso   1.00
H255   H     0.38197   0.90692   0.14953   0.00000  Uiso   1.00
H256   H     0.37071   0.62099   0.22246   0.00000  Uiso   1.00
H257   H     0.69652   0.76926   0.50909   0.00000  Uiso   1.00
H258   H     0.26711   0.08576   0.99889   0.00000  Uiso   1.00
H259   H     0.24339   0.48284   0.15272   0.00000  Uiso   1.00
H260   H     0.93042   0.79550   0.75713   0.00000  Uiso   1.00
H261   H     0.45472   0.99670   0.38917   0.00000  Uiso   1.00
H262   H     0.35286   0.14406   0.24756   0.00000  Uiso   1.00
H263   H     0.34159   0.85812   0.32049   0.00000  Uiso   1.00
H264   H     0.66740   0.00639   0.60711   0.00000  Uiso   1.00
H265   H     0.24347   0.27823   0.07845   0.00000  Uiso   1.00
H266   H     0.21976   0.67530   0.23228   0.00000  Uiso   1.00
H267   H     0.90679   0.98796   0.83669   0.00000  Uiso   1.00
O268   O     0.18875   0.27486   0.94381   0.00000  Uiso   1.00
O269   O     0.15765   0.48384   0.14564   0.00000  Uiso   1.00
O270   O     0.05902   0.89404   0.93861   0.00000  Uiso   1.00
N271   N     0.27554   0.11084   0.03707   0.00000  Uiso   1.00
N272   N     0.25335   0.54716   0.18087   0.00000  Uiso   1.00
N273   N     0.89567   0.83944   0.74595   0.00000  Uiso   1.00
N274   N     0.26283   0.21441   0.07988   0.00000  Uiso   1.00
N275   N     0.24063   0.65072   0.22368   0.00000  Uiso   1.00
N276   N     0.88296   0.94301   0.78876   0.00000  Uiso   1.00
C277   C     0.08030   0.68173   0.23129   0.00000  Uiso   1.00
C278   C     0.02047   0.57667   0.17964   0.00000  Uiso   1.00
C279   C     0.96367   0.54774   0.16014   0.00000  Uiso   1.00
C280   C     0.91449   0.44817   0.11215   0.00000  Uiso   1.00
C281   C     0.82041   0.29543   0.03608   0.00000  Uiso   1.00
C282   C     0.03045   0.72947   0.14256   0.00000  Uiso   1.00
C283   C     0.98206   0.82903   0.09191   0.00000  Uiso   1.00
C284   C     0.94131   0.85809   0.01272   0.00000  Uiso   1.00
C285   C     0.86280   0.94261   0.87915   0.00000  Uiso   1.00
C286   C     0.19935   0.65311   0.33700   0.00000  Uiso   1.00
C287   C     0.29298   0.68847   0.44984   0.00000  Uiso   1.00
C288   C     0.39443   0.65326   0.53436   0.00000  Uiso   1.00
C289   C     0.57815   0.61920   0.70269   0.00000  Uiso   1.00
C290   C     0.09398   0.55633   0.18074   0.00000  Uiso   1.00
C291   C     0.02790   0.50856   0.15218   0.00000  Uiso   1.00
C292   C     0.97880   0.40900   0.10421   0.00000  Uiso   1.00
C293   C     0.92194   0.37993   0.08465   0.00000  Uiso   1.00
C294   C     0.03788   0.66137   0.11510   0.00000  Uiso   1.00
C295   C     0.99720   0.69029   0.03598   0.00000  Uiso   1.00
C296   C     0.94875   0.78986   0.98521   0.00000  Uiso   1.00
C297   C     0.20678   0.58499   0.30955   0.00000  Uiso   1.00
C298   C     0.30811   0.54973   0.39391   0.00000  Uiso   1.00
C299   C     0.40187   0.58502   0.50685   0.00000  Uiso   1.00
H300   H     0.07452   0.73476   0.25266   0.00000  Uiso   1.00
H301   H     0.95793   0.60048   0.18139   0.00000  Uiso   1.00
H302   H     0.97633   0.88172   0.11318   0.00000  Uiso   1.00
H303   H     0.28719   0.74118   0.47105   0.00000  Uiso   1.00
H304   H     0.83191   0.42159   0.09023   0.00000  Uiso   1.00
H305   H     0.87076   0.01462   0.94643   0.00000  Uiso   1.00
H306   H     0.52627   0.71826   0.70108   0.00000  Uiso   1.00
H307   H     0.09977   0.50330   0.15936   0.00000  Uiso   1.00
H308   H     0.98456   0.35631   0.08298   0.00000  Uiso   1.00
H309   H     0.00297   0.63756   0.01476   0.00000  Uiso   1.00
H310   H     0.31383   0.49702   0.37263   0.00000  Uiso   1.00
H311   H     0.85352   0.22342   0.01035   0.00000  Uiso   1.00
H312   H     0.89237   0.81645   0.86655   0.00000  Uiso   1.00
H313   H     0.54788   0.52009   0.62120   0.00000  Uiso   1.00
O314   O     0.76644   0.23000   0.00169   0.00000  Uiso   1.00
O315   O     0.81743   0.00804   0.81305   0.00000  Uiso   1.00
O316   O     0.67744   0.61922   0.80313   0.00000  Uiso   1.00
N317   N     0.85283   0.39511   0.08193   0.00000  Uiso   1.00
N318   N     0.88913   0.94955   0.94748   0.00000  Uiso   1.00
N319   N     0.50198   0.67251   0.65301   0.00000  Uiso   1.00
N320   N     0.86446   0.28847   0.03895   0.00000  Uiso   1.00
N321   N     0.90076   0.84292   0.90449   0.00000  Uiso   1.00
N322   N     0.51361   0.56587   0.61002   0.00000  Uiso   1.00
C323   C     0.52401   0.82341   0.18247   0.00000  Uiso   1.00
C324   C     0.58234   0.92795   0.24929   0.00000  Uiso   1.00
C325   C     0.62432   0.95814   0.32933   0.00000  Uiso   1.00
C326   C     0.67478   0.05695   0.38112   0.00000  Uiso   1.00
C327   C     0.76417   0.20917   0.48908   0.00000  Uiso   1.00
C328   C     0.58848   0.77259   0.20967   0.00000  Uiso   1.00
C329   C     0.63560   0.67216   0.25639   0.00000  Uiso   1.00
C330   C     0.69121   0.64019   0.27483   0.00000  Uiso   1.00
C331   C     0.79006   0.55120   0.32121   0.00000  Uiso   1.00
C332   C     0.41146   0.85316   0.05395   0.00000  Uiso   1.00
C333   C     0.30973   0.82045   0.96972   0.00000  Uiso   1.00
C334   C     0.21630   0.85629   0.85703   0.00000  Uiso   1.00
C335   C     0.04030   0.89239   0.66162   0.00000  Uiso   1.00
C336   C     0.53896   0.94520   0.13212   0.00000  Uiso   1.00
C337   C     0.59046   0.99409   0.22194   0.00000  Uiso   1.00
C338   C     0.64086   0.09289   0.27362   0.00000  Uiso   1.00
C339   C     0.68291   0.12322   0.35373   0.00000  Uiso   1.00
C340   C     0.59660   0.83874   0.18233   0.00000  Uiso   1.00
C341   C     0.65214   0.80691   0.20069   0.00000  Uiso   1.00
C342   C     0.69935   0.70646   0.24744   0.00000  Uiso   1.00
C343   C     0.41958   0.91931   0.02660   0.00000  Uiso   1.00
C344   C     0.32628   0.95520   0.91402   0.00000  Uiso   1.00
C345   C     0.22444   0.92256   0.82964   0.00000  Uiso   1.00
H346   H     0.51769   0.77191   0.20376   0.00000  Uiso   1.00
H347   H     0.61803   0.90692   0.35047   0.00000  Uiso   1.00
H348   H     0.62929   0.62099   0.27754   0.00000  Uiso   1.00
H349   H     0.30348   0.76926   0.99091   0.00000  Uiso   1.00
H350   H     0.73289   0.08576   0.50111   0.00000  Uiso   1.00
H351   H     0.75661   0.48284   0.34728   0.00000  Uiso   1.00
H352   H     0.06958   0.79550   0.74287   0.00000  Uiso   1.00
H353   H     0.54528   0.99670   0.11083   0.00000  Uiso   1.00
H354   H     0.64714   0.14406   0.25244   0.00000  Uiso   1.00
H355   H     0.65841   0.85812   0.17951   0.00000  Uiso   1.00
H356   H     0.33260   0.00639   0.89289   0.00000  Uiso   1.00
H357   H     0.75653   0.27823   0.42155   0.00000  Uiso   1.00
H358   H     0.78024   0.67530   0.26772   0.00000  Uiso   1.00
H359   H     0.09321   0.98796   0.66331   0.00000  Uiso   1.00
O360   O     0.81125   0.27486   0.55619   0.00000  Uiso   1.00
O361   O     0.84235   0.48384   0.35436   0.00000  Uiso   1.00
O362   O     0.94098   0.89404   0.56139   0.00000  Uiso   1.00
N363   N     0.72446   0.11084   0.46293   0.00000  Uiso   1.00
N364   N     0.74665   0.54716   0.31913   0.00000  Uiso   1.00
N365   N     0.10433   0.83944   0.75405   0.00000  Uiso   1.00
N366   N     0.73717   0.21441   0.42012   0.00000  Uiso   1.00
N367   N     0.75937   0.65072   0.27632   0.00000  Uiso   1.00
N368   N     0.11704   0.94301   0.71124   0.00000  Uiso   1.00
