data_job_05276
_audit_creation_date              2018-12-19
_audit_creation_method            'Materials Studio'
_symmetry_space_group_name_H-M    'P1'
_symmetry_Int_Tables_number       1
_symmetry_cell_setting            triclinic
loop_
_symmetry_equiv_pos_as_xyz
  x,y,z
_cell_length_a                    10.4539
_cell_length_b                    10.4539
_cell_length_c                    24.5958
_cell_angle_alpha                 90.0000
_cell_angle_beta                  90.0000
_cell_angle_gamma                 90.0000
loop_
_atom_site_label
_atom_site_type_symbol
_atom_site_fract_x
_atom_site_fract_y
_atom_site_fract_z
_atom_site_U_iso_or_equiv
_atom_site_adp_type
_atom_site_occupancy
C1     C     0.26474   0.55101   0.81700   0.00000  Uiso   1.00
C2     C     0.21760   0.47708   0.76745   0.00000  Uiso   1.00
C3     C     0.13717   0.52434   0.72731   0.00000  Uiso   1.00
C4     C     0.10511   0.44158   0.68531   0.00000  Uiso   1.00
C5     C     0.02475   0.34586   0.60865   0.00000  Uiso   1.00
C6     C     0.22518   0.47234   0.86643   0.00000  Uiso   1.00
C7     C     0.15115   0.51562   0.90951   0.00000  Uiso   1.00
C8     C     0.12549   0.42887   0.95084   0.00000  Uiso   1.00
C9     C     0.05698   0.32581   0.02786   0.00000  Uiso   1.00
C10    C     0.41041   0.54530   0.81494   0.00000  Uiso   1.00
C11    C     0.49213   0.64992   0.81474   0.00000  Uiso   1.00
C12    C     0.62243   0.62460   0.81274   0.00000  Uiso   1.00
C13    C     0.84152   0.63482   0.80982   0.00000  Uiso   1.00
C14    C     0.35081   0.32001   0.81382   0.00000  Uiso   1.00
C15    C     0.26435   0.35161   0.76573   0.00000  Uiso   1.00
C16    C     0.23241   0.26876   0.72378   0.00000  Uiso   1.00
C17    C     0.15196   0.31589   0.68358   0.00000  Uiso   1.00
C18    C     0.27193   0.34687   0.86470   0.00000  Uiso   1.00
C19    C     0.24638   0.26004   0.90598   0.00000  Uiso   1.00
C20    C     0.17233   0.30317   0.94911   0.00000  Uiso   1.00
C21    C     0.45717   0.41983   0.81321   0.00000  Uiso   1.00
C22    C     0.58736   0.39434   0.81121   0.00000  Uiso   1.00
C23    C     0.66926   0.49890   0.81100   0.00000  Uiso   1.00
H24    H     0.22833   0.64870   0.81836   0.00000  Uiso   1.00
H25    H     0.10100   0.62144   0.72867   0.00000  Uiso   1.00
H26    H     0.11499   0.61273   0.91084   0.00000  Uiso   1.00
H27    H     0.45591   0.74700   0.81608   0.00000  Uiso   1.00
H28    H     0.98041   0.53588   0.62847   0.00000  Uiso   1.00
H29    H     0.00994   0.51752   0.01261   0.00000  Uiso   1.00
H30    H     0.72885   0.80067   0.81280   0.00000  Uiso   1.00
H31    H     0.38721   0.22232   0.81247   0.00000  Uiso   1.00
H32    H     0.26860   0.17167   0.72245   0.00000  Uiso   1.00
H33    H     0.28258   0.16295   0.90463   0.00000  Uiso   1.00
H34    H     0.62351   0.29723   0.80987   0.00000  Uiso   1.00
H35    H     0.11644   0.17082   0.62343   0.00000  Uiso   1.00
H36    H     0.14597   0.15246   0.00757   0.00000  Uiso   1.00
H37    H     0.86488   0.43561   0.80776   0.00000  Uiso   1.00
O38    O     0.96750   0.32771   0.56685   0.00000  Uiso   1.00
O39    O     0.00626   0.30363   0.07083   0.00000  Uiso   1.00
O40    O     0.94945   0.67512   0.80868   0.00000  Uiso   1.00
N41    N     0.02873   0.45692   0.63963   0.00000  Uiso   1.00
N42    N     0.05631   0.43975   0.99877   0.00000  Uiso   1.00
N43    N     0.72844   0.70447   0.81198   0.00000  Uiso   1.00
N44    N     0.10192   0.26049   0.63692   0.00000  Uiso   1.00
N45    N     0.12951   0.24332   0.99606   0.00000  Uiso   1.00
N46    N     0.80163   0.50804   0.80927   0.00000  Uiso   1.00
C47    C     0.73526   0.44899   0.31700   0.00000  Uiso   1.00
C48    C     0.78240   0.52292   0.26745   0.00000  Uiso   1.00
C49    C     0.86283   0.47566   0.22731   0.00000  Uiso   1.00
C50    C     0.89489   0.55842   0.18531   0.00000  Uiso   1.00
C51    C     0.97525   0.65414   0.10865   0.00000  Uiso   1.00
C52    C     0.77482   0.52766   0.36643   0.00000  Uiso   1.00
C53    C     0.84885   0.48438   0.40951   0.00000  Uiso   1.00
C54    C     0.87451   0.57113   0.45084   0.00000  Uiso   1.00
C55    C     0.94302   0.67419   0.52786   0.00000  Uiso   1.00
C56    C     0.58959   0.45470   0.31494   0.00000  Uiso   1.00
C57    C     0.50787   0.35008   0.31474   0.00000  Uiso   1.00
C58    C     0.37757   0.37540   0.31274   0.00000  Uiso   1.00
C59    C     0.15848   0.36518   0.30982   0.00000  Uiso   1.00
C60    C     0.64919   0.67999   0.31382   0.00000  Uiso   1.00
C61    C     0.73565   0.64839   0.26573   0.00000  Uiso   1.00
C62    C     0.76759   0.73124   0.22378   0.00000  Uiso   1.00
C63    C     0.84804   0.68411   0.18358   0.00000  Uiso   1.00
C64    C     0.72807   0.65313   0.36470   0.00000  Uiso   1.00
C65    C     0.75362   0.73996   0.40598   0.00000  Uiso   1.00
C66    C     0.82767   0.69683   0.44911   0.00000  Uiso   1.00
C67    C     0.54283   0.58017   0.31321   0.00000  Uiso   1.00
C68    C     0.41264   0.60566   0.31121   0.00000  Uiso   1.00
C69    C     0.33074   0.50110   0.31100   0.00000  Uiso   1.00
H70    H     0.77167   0.35130   0.31836   0.00000  Uiso   1.00
H71    H     0.89900   0.37856   0.22867   0.00000  Uiso   1.00
H72    H     0.88501   0.38727   0.41084   0.00000  Uiso   1.00
H73    H     0.54409   0.25300   0.31608   0.00000  Uiso   1.00
H74    H     0.01959   0.46412   0.12847   0.00000  Uiso   1.00
H75    H     0.99006   0.48248   0.51261   0.00000  Uiso   1.00
H76    H     0.27115   0.19933   0.31280   0.00000  Uiso   1.00
H77    H     0.61279   0.77768   0.31247   0.00000  Uiso   1.00
H78    H     0.73140   0.82833   0.22245   0.00000  Uiso   1.00
H79    H     0.71742   0.83705   0.40463   0.00000  Uiso   1.00
H80    H     0.37649   0.70277   0.30987   0.00000  Uiso   1.00
H81    H     0.88356   0.82918   0.12343   0.00000  Uiso   1.00
H82    H     0.85403   0.84754   0.50757   0.00000  Uiso   1.00
H83    H     0.13512   0.56439   0.30776   0.00000  Uiso   1.00
O84    O     0.03250   0.67229   0.06685   0.00000  Uiso   1.00
O85    O     0.99374   0.69637   0.57083   0.00000  Uiso   1.00
O86    O     0.05055   0.32488   0.30868   0.00000  Uiso   1.00
N87    N     0.97127   0.54308   0.13963   0.00000  Uiso   1.00
N88    N     0.94369   0.56025   0.49877   0.00000  Uiso   1.00
N89    N     0.27156   0.29553   0.31198   0.00000  Uiso   1.00
N90    N     0.89808   0.73951   0.13692   0.00000  Uiso   1.00
N91    N     0.87049   0.75668   0.49606   0.00000  Uiso   1.00
N92    N     0.19837   0.49196   0.30927   0.00000  Uiso   1.00
C93    C     0.44899   0.26474   0.06700   0.00000  Uiso   1.00
C94    C     0.52292   0.21760   0.01745   0.00000  Uiso   1.00
C95    C     0.47566   0.13717   0.97731   0.00000  Uiso   1.00
C96    C     0.55842   0.10511   0.93531   0.00000  Uiso   1.00
C97    C     0.65414   0.02475   0.85865   0.00000  Uiso   1.00
C98    C     0.52766   0.22518   0.11643   0.00000  Uiso   1.00
C99    C     0.48438   0.15115   0.15951   0.00000  Uiso   1.00
C100   C     0.57113   0.12549   0.20084   0.00000  Uiso   1.00
C101   C     0.67419   0.05698   0.27786   0.00000  Uiso   1.00
C102   C     0.45470   0.41041   0.06494   0.00000  Uiso   1.00
C103   C     0.35008   0.49213   0.06474   0.00000  Uiso   1.00
C104   C     0.37540   0.62243   0.06274   0.00000  Uiso   1.00
C105   C     0.36518   0.84152   0.05982   0.00000  Uiso   1.00
C106   C     0.67999   0.35081   0.06382   0.00000  Uiso   1.00
C107   C     0.64839   0.26435   0.01573   0.00000  Uiso   1.00
C108   C     0.73124   0.23241   0.97378   0.00000  Uiso   1.00
C109   C     0.68411   0.15196   0.93358   0.00000  Uiso   1.00
C110   C     0.65313   0.27193   0.11470   0.00000  Uiso   1.00
C111   C     0.73996   0.24638   0.15598   0.00000  Uiso   1.00
C112   C     0.69683   0.17233   0.19911   0.00000  Uiso   1.00
C113   C     0.58017   0.45717   0.06321   0.00000  Uiso   1.00
C114   C     0.60566   0.58736   0.06121   0.00000  Uiso   1.00
C115   C     0.50110   0.66926   0.06100   0.00000  Uiso   1.00
H116   H     0.35130   0.22833   0.06836   0.00000  Uiso   1.00
H117   H     0.37856   0.10100   0.97867   0.00000  Uiso   1.00
H118   H     0.38727   0.11499   0.16084   0.00000  Uiso   1.00
H119   H     0.25300   0.45591   0.06608   0.00000  Uiso   1.00
H120   H     0.46412   0.98041   0.87847   0.00000  Uiso   1.00
H121   H     0.48248   0.00994   0.26261   0.00000  Uiso   1.00
H122   H     0.19933   0.72885   0.06280   0.00000  Uiso   1.00
H123   H     0.77768   0.38721   0.06247   0.00000  Uiso   1.00
H124   H     0.82833   0.26860   0.97245   0.00000  Uiso   1.00
H125   H     0.83705   0.28258   0.15463   0.00000  Uiso   1.00
H126   H     0.70277   0.62351   0.05987   0.00000  Uiso   1.00
H127   H     0.82918   0.11644   0.87343   0.00000  Uiso   1.00
H128   H     0.84754   0.14597   0.25757   0.00000  Uiso   1.00
H129   H     0.56439   0.86488   0.05776   0.00000  Uiso   1.00
O130   O     0.67229   0.96750   0.81685   0.00000  Uiso   1.00
O131   O     0.69637   0.00626   0.32083   0.00000  Uiso   1.00
O132   O     0.32488   0.94945   0.05868   0.00000  Uiso   1.00
N133   N     0.54308   0.02873   0.88963   0.00000  Uiso   1.00
N134   N     0.56025   0.05631   0.24877   0.00000  Uiso   1.00
N135   N     0.29553   0.72844   0.06198   0.00000  Uiso   1.00
N136   N     0.73951   0.10192   0.88692   0.00000  Uiso   1.00
N137   N     0.75668   0.12951   0.24606   0.00000  Uiso   1.00
N138   N     0.49196   0.80163   0.05927   0.00000  Uiso   1.00
C139   C     0.55101   0.73526   0.56700   0.00000  Uiso   1.00
C140   C     0.47708   0.78240   0.51745   0.00000  Uiso   1.00
C141   C     0.52434   0.86283   0.47731   0.00000  Uiso   1.00
C142   C     0.44158   0.89489   0.43531   0.00000  Uiso   1.00
C143   C     0.34586   0.97525   0.35865   0.00000  Uiso   1.00
C144   C     0.47234   0.77482   0.61643   0.00000  Uiso   1.00
C145   C     0.51562   0.84885   0.65951   0.00000  Uiso   1.00
C146   C     0.42887   0.87451   0.70084   0.00000  Uiso   1.00
C147   C     0.32581   0.94302   0.77786   0.00000  Uiso   1.00
C148   C     0.54530   0.58959   0.56494   0.00000  Uiso   1.00
C149   C     0.64992   0.50787   0.56474   0.00000  Uiso   1.00
C150   C     0.62460   0.37757   0.56274   0.00000  Uiso   1.00
C151   C     0.63482   0.15848   0.55982   0.00000  Uiso   1.00
C152   C     0.32001   0.64919   0.56382   0.00000  Uiso   1.00
C153   C     0.35161   0.73565   0.51573   0.00000  Uiso   1.00
C154   C     0.26876   0.76759   0.47378   0.00000  Uiso   1.00
C155   C     0.31589   0.84804   0.43358   0.00000  Uiso   1.00
C156   C     0.34687   0.72807   0.61470   0.00000  Uiso   1.00
C157   C     0.26004   0.75362   0.65598   0.00000  Uiso   1.00
C158   C     0.30317   0.82767   0.69911   0.00000  Uiso   1.00
C159   C     0.41983   0.54283   0.56321   0.00000  Uiso   1.00
C160   C     0.39434   0.41264   0.56121   0.00000  Uiso   1.00
C161   C     0.49890   0.33074   0.56100   0.00000  Uiso   1.00
H162   H     0.64870   0.77167   0.56836   0.00000  Uiso   1.00
H163   H     0.62144   0.89900   0.47867   0.00000  Uiso   1.00
H164   H     0.61273   0.88501   0.66084   0.00000  Uiso   1.00
H165   H     0.74700   0.54409   0.56608   0.00000  Uiso   1.00
H166   H     0.53588   0.01959   0.37847   0.00000  Uiso   1.00
H167   H     0.51752   0.99006   0.76261   0.00000  Uiso   1.00
H168   H     0.80067   0.27115   0.56280   0.00000  Uiso   1.00
H169   H     0.22232   0.61279   0.56247   0.00000  Uiso   1.00
H170   H     0.17167   0.73140   0.47245   0.00000  Uiso   1.00
H171   H     0.16295   0.71742   0.65463   0.00000  Uiso   1.00
H172   H     0.29723   0.37649   0.55987   0.00000  Uiso   1.00
H173   H     0.17082   0.88356   0.37343   0.00000  Uiso   1.00
H174   H     0.15246   0.85403   0.75757   0.00000  Uiso   1.00
H175   H     0.43561   0.13512   0.55776   0.00000  Uiso   1.00
O176   O     0.32771   0.03250   0.31685   0.00000  Uiso   1.00
O177   O     0.30363   0.99374   0.82083   0.00000  Uiso   1.00
O178   O     0.67512   0.05055   0.55868   0.00000  Uiso   1.00
N179   N     0.45692   0.97127   0.38963   0.00000  Uiso   1.00
N180   N     0.43975   0.94369   0.74877   0.00000  Uiso   1.00
N181   N     0.70447   0.27156   0.56198   0.00000  Uiso   1.00
N182   N     0.26049   0.89808   0.38692   0.00000  Uiso   1.00
N183   N     0.24332   0.87049   0.74606   0.00000  Uiso   1.00
N184   N     0.50804   0.19837   0.55927   0.00000  Uiso   1.00
