data_job_02248
_audit_creation_date              2018-12-19
_audit_creation_method            'Materials Studio'
_symmetry_space_group_name_H-M    'P1'
_symmetry_Int_Tables_number       1
_symmetry_cell_setting            triclinic
loop_
_symmetry_equiv_pos_as_xyz
  x,y,z
_cell_length_a                    18.9519
_cell_length_b                    16.3202
_cell_length_c                    22.7116
_cell_angle_alpha                 90.0000
_cell_angle_beta                  121.2539
_cell_angle_gamma                 90.0000
loop_
_atom_site_label
_atom_site_type_symbol
_atom_site_fract_x
_atom_site_fract_y
_atom_site_fract_z
_atom_site_U_iso_or_equiv
_atom_site_adp_type
_atom_site_occupancy
C1     C     0.91879   0.30269   0.39170   0.00000  Uiso   1.00
C2     C     0.97122   0.23471   0.44130   0.00000  Uiso   1.00
C3     C     0.05142   0.21504   0.45988   0.00000  Uiso   1.00
C4     C     0.08878   0.15077   0.50596   0.00000  Uiso   1.00
C5     C     0.17646   0.05173   0.57891   0.00000  Uiso   1.00
C6     C     0.84008   0.26154   0.33570   0.00000  Uiso   1.00
C7     C     0.81001   0.26444   0.26550   0.00000  Uiso   1.00
C8     C     0.73697   0.22276   0.22269   0.00000  Uiso   1.00
C9     C     0.62103   0.16542   0.13169   0.00000  Uiso   1.00
C10    C     0.89281   0.35757   0.43153   0.00000  Uiso   1.00
C11    C     0.90707   0.44122   0.44189   0.00000  Uiso   1.00
C12    C     0.87840   0.48041   0.47975   0.00000  Uiso   1.00
C13    C     0.84434   0.57218   0.53754   0.00000  Uiso   1.00
C14    C     0.84251   0.22354   0.44048   0.00000  Uiso   1.00
C15    C     0.92978   0.19172   0.46779   0.00000  Uiso   1.00
C16    C     0.96703   0.12747   0.51385   0.00000  Uiso   1.00
C17    C     0.04727   0.10771   0.53251   0.00000  Uiso   1.00
C18    C     0.79864   0.21855   0.36219   0.00000  Uiso   1.00
C19    C     0.72562   0.17687   0.31947   0.00000  Uiso   1.00
C20    C     0.69546   0.17969   0.24923   0.00000  Uiso   1.00
C21    C     0.85138   0.31459   0.45803   0.00000  Uiso   1.00
C22    C     0.82268   0.35365   0.49586   0.00000  Uiso   1.00
C23    C     0.83689   0.43734   0.50629   0.00000  Uiso   1.00
H24    H     0.95104   0.33616   0.37107   0.00000  Uiso   1.00
H25    H     0.08346   0.24832   0.43936   0.00000  Uiso   1.00
H26    H     0.84209   0.29771   0.24501   0.00000  Uiso   1.00
H27    H     0.93913   0.47447   0.42138   0.00000  Uiso   1.00
H28    H     0.21198   0.13195   0.52674   0.00000  Uiso   1.00
H29    H     0.70302   0.23613   0.11694   0.00000  Uiso   1.00
H30    H     0.90765   0.60886   0.48885   0.00000  Uiso   1.00
H31    H     0.81025   0.19007   0.46111   0.00000  Uiso   1.00
H32    H     0.93495   0.09421   0.53435   0.00000  Uiso   1.00
H33    H     0.69357   0.14361   0.33999   0.00000  Uiso   1.00
H34    H     0.79062   0.32036   0.51636   0.00000  Uiso   1.00
H35    H     0.09145   0.00687   0.60383   0.00000  Uiso   1.00
H36    H     0.58248   0.11105   0.19403   0.00000  Uiso   1.00
H37    H     0.78712   0.48378   0.56594   0.00000  Uiso   1.00
O38    O     0.23627   0.00897   0.61182   0.00000  Uiso   1.00
O39    O     0.56853   0.14566   0.07418   0.00000  Uiso   1.00
O40    O     0.83701   0.63467   0.56211   0.00000  Uiso   1.00
N41    N     0.16651   0.11568   0.53485   0.00000  Uiso   1.00
N42    N     0.69067   0.21307   0.15171   0.00000  Uiso   1.00
N43    N     0.88196   0.56154   0.49939   0.00000  Uiso   1.00
N44    N     0.10165   0.04838   0.57633   0.00000  Uiso   1.00
N45    N     0.62581   0.14577   0.19319   0.00000  Uiso   1.00
N46    N     0.81710   0.49424   0.54087   0.00000  Uiso   1.00
C47    C     0.41879   0.80269   0.39170   0.00000  Uiso   1.00
C48    C     0.47122   0.73471   0.44130   0.00000  Uiso   1.00
C49    C     0.55142   0.71504   0.45988   0.00000  Uiso   1.00
C50    C     0.58878   0.65077   0.50596   0.00000  Uiso   1.00
C51    C     0.67646   0.55173   0.57891   0.00000  Uiso   1.00
C52    C     0.34008   0.76154   0.33570   0.00000  Uiso   1.00
C53    C     0.31001   0.76444   0.26550   0.00000  Uiso   1.00
C54    C     0.23697   0.72276   0.22269   0.00000  Uiso   1.00
C55    C     0.12103   0.66542   0.13169   0.00000  Uiso   1.00
C56    C     0.39281   0.85757   0.43153   0.00000  Uiso   1.00
C57    C     0.40707   0.94122   0.44189   0.00000  Uiso   1.00
C58    C     0.37840   0.98041   0.47975   0.00000  Uiso   1.00
C59    C     0.34434   0.07218   0.53754   0.00000  Uiso   1.00
C60    C     0.34251   0.72354   0.44048   0.00000  Uiso   1.00
C61    C     0.42978   0.69172   0.46779   0.00000  Uiso   1.00
C62    C     0.46703   0.62747   0.51385   0.00000  Uiso   1.00
C63    C     0.54727   0.60771   0.53251   0.00000  Uiso   1.00
C64    C     0.29864   0.71855   0.36219   0.00000  Uiso   1.00
C65    C     0.22562   0.67687   0.31947   0.00000  Uiso   1.00
C66    C     0.19546   0.67969   0.24923   0.00000  Uiso   1.00
C67    C     0.35138   0.81459   0.45803   0.00000  Uiso   1.00
C68    C     0.32268   0.85365   0.49586   0.00000  Uiso   1.00
C69    C     0.33689   0.93734   0.50629   0.00000  Uiso   1.00
H70    H     0.45104   0.83616   0.37107   0.00000  Uiso   1.00
H71    H     0.58346   0.74832   0.43936   0.00000  Uiso   1.00
H72    H     0.34209   0.79771   0.24501   0.00000  Uiso   1.00
H73    H     0.43913   0.97447   0.42138   0.00000  Uiso   1.00
H74    H     0.71198   0.63195   0.52674   0.00000  Uiso   1.00
H75    H     0.20302   0.73613   0.11694   0.00000  Uiso   1.00
H76    H     0.40765   0.10886   0.48885   0.00000  Uiso   1.00
H77    H     0.31025   0.69007   0.46111   0.00000  Uiso   1.00
H78    H     0.43495   0.59421   0.53435   0.00000  Uiso   1.00
H79    H     0.19357   0.64361   0.33999   0.00000  Uiso   1.00
H80    H     0.29062   0.82036   0.51636   0.00000  Uiso   1.00
H81    H     0.59145   0.50687   0.60383   0.00000  Uiso   1.00
H82    H     0.08248   0.61105   0.19403   0.00000  Uiso   1.00
H83    H     0.28712   0.98378   0.56594   0.00000  Uiso   1.00
O84    O     0.73627   0.50897   0.61182   0.00000  Uiso   1.00
O85    O     0.06853   0.64566   0.07418   0.00000  Uiso   1.00
O86    O     0.33701   0.13467   0.56211   0.00000  Uiso   1.00
N87    N     0.66651   0.61568   0.53485   0.00000  Uiso   1.00
N88    N     0.19067   0.71307   0.15171   0.00000  Uiso   1.00
N89    N     0.38196   0.06154   0.49939   0.00000  Uiso   1.00
N90    N     0.60165   0.54838   0.57633   0.00000  Uiso   1.00
N91    N     0.12581   0.64577   0.19319   0.00000  Uiso   1.00
N92    N     0.31710   0.99424   0.54087   0.00000  Uiso   1.00
C93    C     0.08121   0.30269   0.10830   0.00000  Uiso   1.00
C94    C     0.02878   0.23471   0.05870   0.00000  Uiso   1.00
C95    C     0.94858   0.21504   0.04012   0.00000  Uiso   1.00
C96    C     0.91122   0.15077   0.99404   0.00000  Uiso   1.00
C97    C     0.82354   0.05173   0.92109   0.00000  Uiso   1.00
C98    C     0.15992   0.26154   0.16430   0.00000  Uiso   1.00
C99    C     0.18999   0.26444   0.23450   0.00000  Uiso   1.00
C100   C     0.26303   0.22276   0.27731   0.00000  Uiso   1.00
C101   C     0.37897   0.16542   0.36831   0.00000  Uiso   1.00
C102   C     0.10719   0.35757   0.06847   0.00000  Uiso   1.00
C103   C     0.09293   0.44122   0.05811   0.00000  Uiso   1.00
C104   C     0.12160   0.48041   0.02025   0.00000  Uiso   1.00
C105   C     0.15566   0.57218   0.96246   0.00000  Uiso   1.00
C106   C     0.15749   0.22354   0.05952   0.00000  Uiso   1.00
C107   C     0.07022   0.19172   0.03221   0.00000  Uiso   1.00
C108   C     0.03297   0.12747   0.98615   0.00000  Uiso   1.00
C109   C     0.95273   0.10771   0.96749   0.00000  Uiso   1.00
C110   C     0.20136   0.21855   0.13781   0.00000  Uiso   1.00
C111   C     0.27438   0.17687   0.18053   0.00000  Uiso   1.00
C112   C     0.30454   0.17969   0.25077   0.00000  Uiso   1.00
C113   C     0.14862   0.31459   0.04197   0.00000  Uiso   1.00
C114   C     0.17732   0.35365   0.00414   0.00000  Uiso   1.00
C115   C     0.16311   0.43734   0.99371   0.00000  Uiso   1.00
H116   H     0.04896   0.33616   0.12893   0.00000  Uiso   1.00
H117   H     0.91654   0.24832   0.06064   0.00000  Uiso   1.00
H118   H     0.15791   0.29771   0.25499   0.00000  Uiso   1.00
H119   H     0.06087   0.47447   0.07862   0.00000  Uiso   1.00
H120   H     0.78802   0.13195   0.97326   0.00000  Uiso   1.00
H121   H     0.29698   0.23613   0.38306   0.00000  Uiso   1.00
H122   H     0.09235   0.60886   0.01115   0.00000  Uiso   1.00
H123   H     0.18975   0.19007   0.03889   0.00000  Uiso   1.00
H124   H     0.06505   0.09421   0.96565   0.00000  Uiso   1.00
H125   H     0.30643   0.14361   0.16001   0.00000  Uiso   1.00
H126   H     0.20938   0.32036   0.98364   0.00000  Uiso   1.00
H127   H     0.90855   0.00687   0.89617   0.00000  Uiso   1.00
H128   H     0.41752   0.11105   0.30597   0.00000  Uiso   1.00
H129   H     0.21288   0.48378   0.93406   0.00000  Uiso   1.00
O130   O     0.76373   0.00897   0.88818   0.00000  Uiso   1.00
O131   O     0.43147   0.14566   0.42582   0.00000  Uiso   1.00
O132   O     0.16299   0.63467   0.93789   0.00000  Uiso   1.00
N133   N     0.83349   0.11568   0.96515   0.00000  Uiso   1.00
N134   N     0.30933   0.21307   0.34829   0.00000  Uiso   1.00
N135   N     0.11804   0.56154   0.00061   0.00000  Uiso   1.00
N136   N     0.89835   0.04838   0.92367   0.00000  Uiso   1.00
N137   N     0.37419   0.14577   0.30681   0.00000  Uiso   1.00
N138   N     0.18290   0.49424   0.95913   0.00000  Uiso   1.00
C139   C     0.58121   0.80269   0.10830   0.00000  Uiso   1.00
C140   C     0.52878   0.73471   0.05870   0.00000  Uiso   1.00
C141   C     0.44858   0.71504   0.04012   0.00000  Uiso   1.00
C142   C     0.41122   0.65077   0.99404   0.00000  Uiso   1.00
C143   C     0.32354   0.55173   0.92109   0.00000  Uiso   1.00
C144   C     0.65992   0.76154   0.16430   0.00000  Uiso   1.00
C145   C     0.68999   0.76444   0.23450   0.00000  Uiso   1.00
C146   C     0.76303   0.72276   0.27731   0.00000  Uiso   1.00
C147   C     0.87897   0.66542   0.36831   0.00000  Uiso   1.00
C148   C     0.60719   0.85757   0.06847   0.00000  Uiso   1.00
C149   C     0.59293   0.94122   0.05811   0.00000  Uiso   1.00
C150   C     0.62160   0.98041   0.02025   0.00000  Uiso   1.00
C151   C     0.65566   0.07218   0.96246   0.00000  Uiso   1.00
C152   C     0.65749   0.72354   0.05952   0.00000  Uiso   1.00
C153   C     0.57022   0.69172   0.03221   0.00000  Uiso   1.00
C154   C     0.53297   0.62747   0.98615   0.00000  Uiso   1.00
C155   C     0.45273   0.60771   0.96749   0.00000  Uiso   1.00
C156   C     0.70136   0.71855   0.13781   0.00000  Uiso   1.00
C157   C     0.77438   0.67687   0.18053   0.00000  Uiso   1.00
C158   C     0.80454   0.67969   0.25077   0.00000  Uiso   1.00
C159   C     0.64862   0.81459   0.04197   0.00000  Uiso   1.00
C160   C     0.67732   0.85365   0.00414   0.00000  Uiso   1.00
C161   C     0.66311   0.93734   0.99371   0.00000  Uiso   1.00
H162   H     0.54896   0.83616   0.12893   0.00000  Uiso   1.00
H163   H     0.41654   0.74832   0.06064   0.00000  Uiso   1.00
H164   H     0.65791   0.79771   0.25499   0.00000  Uiso   1.00
H165   H     0.56087   0.97447   0.07862   0.00000  Uiso   1.00
H166   H     0.28802   0.63195   0.97326   0.00000  Uiso   1.00
H167   H     0.79698   0.73613   0.38306   0.00000  Uiso   1.00
H168   H     0.59235   0.10886   0.01115   0.00000  Uiso   1.00
H169   H     0.68975   0.69007   0.03889   0.00000  Uiso   1.00
H170   H     0.56505   0.59421   0.96565   0.00000  Uiso   1.00
H171   H     0.80643   0.64361   0.16001   0.00000  Uiso   1.00
H172   H     0.70938   0.82036   0.98364   0.00000  Uiso   1.00
H173   H     0.40855   0.50687   0.89617   0.00000  Uiso   1.00
H174   H     0.91752   0.61105   0.30597   0.00000  Uiso   1.00
H175   H     0.71288   0.98378   0.93406   0.00000  Uiso   1.00
O176   O     0.26373   0.50897   0.88818   0.00000  Uiso   1.00
O177   O     0.93147   0.64566   0.42582   0.00000  Uiso   1.00
O178   O     0.66299   0.13467   0.93789   0.00000  Uiso   1.00
N179   N     0.33349   0.61568   0.96515   0.00000  Uiso   1.00
N180   N     0.80933   0.71307   0.34829   0.00000  Uiso   1.00
N181   N     0.61804   0.06154   0.00061   0.00000  Uiso   1.00
N182   N     0.39835   0.54838   0.92367   0.00000  Uiso   1.00
N183   N     0.87419   0.64577   0.30681   0.00000  Uiso   1.00
N184   N     0.68290   0.99424   0.95913   0.00000  Uiso   1.00
C185   C     0.08121   0.69731   0.60830   0.00000  Uiso   1.00
C186   C     0.02878   0.76529   0.55870   0.00000  Uiso   1.00
C187   C     0.94858   0.78496   0.54012   0.00000  Uiso   1.00
C188   C     0.91122   0.84923   0.49404   0.00000  Uiso   1.00
C189   C     0.82354   0.94827   0.42109   0.00000  Uiso   1.00
C190   C     0.15992   0.73846   0.66430   0.00000  Uiso   1.00
C191   C     0.18999   0.73556   0.73450   0.00000  Uiso   1.00
C192   C     0.26303   0.77724   0.77731   0.00000  Uiso   1.00
C193   C     0.37897   0.83458   0.86831   0.00000  Uiso   1.00
C194   C     0.10719   0.64243   0.56847   0.00000  Uiso   1.00
C195   C     0.09293   0.55878   0.55811   0.00000  Uiso   1.00
C196   C     0.12160   0.51959   0.52025   0.00000  Uiso   1.00
C197   C     0.15566   0.42782   0.46246   0.00000  Uiso   1.00
C198   C     0.15749   0.77646   0.55952   0.00000  Uiso   1.00
C199   C     0.07022   0.80828   0.53221   0.00000  Uiso   1.00
C200   C     0.03297   0.87253   0.48615   0.00000  Uiso   1.00
C201   C     0.95273   0.89229   0.46749   0.00000  Uiso   1.00
C202   C     0.20136   0.78145   0.63781   0.00000  Uiso   1.00
C203   C     0.27438   0.82313   0.68053   0.00000  Uiso   1.00
C204   C     0.30454   0.82031   0.75077   0.00000  Uiso   1.00
C205   C     0.14862   0.68541   0.54197   0.00000  Uiso   1.00
C206   C     0.17732   0.64635   0.50414   0.00000  Uiso   1.00
C207   C     0.16311   0.56266   0.49371   0.00000  Uiso   1.00
H208   H     0.04896   0.66384   0.62893   0.00000  Uiso   1.00
H209   H     0.91654   0.75168   0.56064   0.00000  Uiso   1.00
H210   H     0.15791   0.70229   0.75499   0.00000  Uiso   1.00
H211   H     0.06087   0.52553   0.57862   0.00000  Uiso   1.00
H212   H     0.78802   0.86805   0.47326   0.00000  Uiso   1.00
H213   H     0.29698   0.76387   0.88306   0.00000  Uiso   1.00
H214   H     0.09235   0.39114   0.51115   0.00000  Uiso   1.00
H215   H     0.18975   0.80993   0.53889   0.00000  Uiso   1.00
H216   H     0.06505   0.90579   0.46565   0.00000  Uiso   1.00
H217   H     0.30643   0.85639   0.66001   0.00000  Uiso   1.00
H218   H     0.20938   0.67964   0.48364   0.00000  Uiso   1.00
H219   H     0.90855   0.99313   0.39617   0.00000  Uiso   1.00
H220   H     0.41752   0.88895   0.80597   0.00000  Uiso   1.00
H221   H     0.21288   0.51622   0.43406   0.00000  Uiso   1.00
O222   O     0.76373   0.99103   0.38818   0.00000  Uiso   1.00
O223   O     0.43147   0.85434   0.92582   0.00000  Uiso   1.00
O224   O     0.16299   0.36533   0.43789   0.00000  Uiso   1.00
N225   N     0.83349   0.88432   0.46515   0.00000  Uiso   1.00
N226   N     0.30933   0.78693   0.84829   0.00000  Uiso   1.00
N227   N     0.11804   0.43846   0.50061   0.00000  Uiso   1.00
N228   N     0.89835   0.95162   0.42367   0.00000  Uiso   1.00
N229   N     0.37419   0.85423   0.80681   0.00000  Uiso   1.00
N230   N     0.18290   0.50576   0.45913   0.00000  Uiso   1.00
C231   C     0.58121   0.19731   0.60830   0.00000  Uiso   1.00
C232   C     0.52878   0.26529   0.55870   0.00000  Uiso   1.00
C233   C     0.44858   0.28496   0.54012   0.00000  Uiso   1.00
C234   C     0.41122   0.34923   0.49404   0.00000  Uiso   1.00
C235   C     0.32354   0.44827   0.42109   0.00000  Uiso   1.00
C236   C     0.65992   0.23846   0.66430   0.00000  Uiso   1.00
C237   C     0.68999   0.23556   0.73450   0.00000  Uiso   1.00
C238   C     0.76303   0.27724   0.77731   0.00000  Uiso   1.00
C239   C     0.87897   0.33458   0.86831   0.00000  Uiso   1.00
C240   C     0.60719   0.14243   0.56847   0.00000  Uiso   1.00
C241   C     0.59293   0.05878   0.55811   0.00000  Uiso   1.00
C242   C     0.62160   0.01959   0.52025   0.00000  Uiso   1.00
C243   C     0.65566   0.92782   0.46246   0.00000  Uiso   1.00
C244   C     0.65749   0.27646   0.55952   0.00000  Uiso   1.00
C245   C     0.57022   0.30828   0.53221   0.00000  Uiso   1.00
C246   C     0.53297   0.37253   0.48615   0.00000  Uiso   1.00
C247   C     0.45273   0.39229   0.46749   0.00000  Uiso   1.00
C248   C     0.70136   0.28145   0.63781   0.00000  Uiso   1.00
C249   C     0.77438   0.32313   0.68053   0.00000  Uiso   1.00
C250   C     0.80454   0.32031   0.75077   0.00000  Uiso   1.00
C251   C     0.64862   0.18541   0.54197   0.00000  Uiso   1.00
C252   C     0.67732   0.14635   0.50414   0.00000  Uiso   1.00
C253   C     0.66311   0.06266   0.49371   0.00000  Uiso   1.00
H254   H     0.54896   0.16384   0.62893   0.00000  Uiso   1.00
H255   H     0.41654   0.25168   0.56064   0.00000  Uiso   1.00
H256   H     0.65791   0.20229   0.75499   0.00000  Uiso   1.00
H257   H     0.56087   0.02553   0.57862   0.00000  Uiso   1.00
H258   H     0.28802   0.36805   0.47326   0.00000  Uiso   1.00
H259   H     0.79698   0.26387   0.88306   0.00000  Uiso   1.00
H260   H     0.59235   0.89114   0.51115   0.00000  Uiso   1.00
H261   H     0.68975   0.30993   0.53889   0.00000  Uiso   1.00
H262   H     0.56505   0.40579   0.46565   0.00000  Uiso   1.00
H263   H     0.80643   0.35639   0.66001   0.00000  Uiso   1.00
H264   H     0.70938   0.17964   0.48364   0.00000  Uiso   1.00
H265   H     0.40855   0.49313   0.39617   0.00000  Uiso   1.00
H266   H     0.91752   0.38895   0.80597   0.00000  Uiso   1.00
H267   H     0.71288   0.01622   0.43406   0.00000  Uiso   1.00
O268   O     0.26373   0.49103   0.38818   0.00000  Uiso   1.00
O269   O     0.93147   0.35434   0.92582   0.00000  Uiso   1.00
O270   O     0.66299   0.86533   0.43789   0.00000  Uiso   1.00
N271   N     0.33349   0.38432   0.46515   0.00000  Uiso   1.00
N272   N     0.80933   0.28693   0.84829   0.00000  Uiso   1.00
N273   N     0.61804   0.93846   0.50061   0.00000  Uiso   1.00
N274   N     0.39835   0.45162   0.42367   0.00000  Uiso   1.00
N275   N     0.87419   0.35423   0.80681   0.00000  Uiso   1.00
N276   N     0.68290   0.00576   0.45913   0.00000  Uiso   1.00
C277   C     0.91879   0.69731   0.89170   0.00000  Uiso   1.00
C278   C     0.97122   0.76529   0.94130   0.00000  Uiso   1.00
C279   C     0.05142   0.78496   0.95988   0.00000  Uiso   1.00
C280   C     0.08878   0.84923   0.00596   0.00000  Uiso   1.00
C281   C     0.17646   0.94827   0.07891   0.00000  Uiso   1.00
C282   C     0.84008   0.73846   0.83570   0.00000  Uiso   1.00
C283   C     0.81001   0.73556   0.76550   0.00000  Uiso   1.00
C284   C     0.73697   0.77724   0.72269   0.00000  Uiso   1.00
C285   C     0.62103   0.83458   0.63169   0.00000  Uiso   1.00
C286   C     0.89281   0.64243   0.93153   0.00000  Uiso   1.00
C287   C     0.90707   0.55878   0.94189   0.00000  Uiso   1.00
C288   C     0.87840   0.51959   0.97975   0.00000  Uiso   1.00
C289   C     0.84434   0.42782   0.03754   0.00000  Uiso   1.00
C290   C     0.84251   0.77646   0.94048   0.00000  Uiso   1.00
C291   C     0.92978   0.80828   0.96779   0.00000  Uiso   1.00
C292   C     0.96703   0.87253   0.01385   0.00000  Uiso   1.00
C293   C     0.04727   0.89229   0.03251   0.00000  Uiso   1.00
C294   C     0.79864   0.78145   0.86219   0.00000  Uiso   1.00
C295   C     0.72562   0.82313   0.81947   0.00000  Uiso   1.00
C296   C     0.69546   0.82031   0.74923   0.00000  Uiso   1.00
C297   C     0.85138   0.68541   0.95803   0.00000  Uiso   1.00
C298   C     0.82268   0.64635   0.99586   0.00000  Uiso   1.00
C299   C     0.83689   0.56266   0.00629   0.00000  Uiso   1.00
H300   H     0.95104   0.66384   0.87107   0.00000  Uiso   1.00
H301   H     0.08346   0.75168   0.93936   0.00000  Uiso   1.00
H302   H     0.84209   0.70229   0.74501   0.00000  Uiso   1.00
H303   H     0.93913   0.52553   0.92138   0.00000  Uiso   1.00
H304   H     0.21198   0.86805   0.02674   0.00000  Uiso   1.00
H305   H     0.70302   0.76387   0.61694   0.00000  Uiso   1.00
H306   H     0.90765   0.39114   0.98885   0.00000  Uiso   1.00
H307   H     0.81025   0.80993   0.96111   0.00000  Uiso   1.00
H308   H     0.93495   0.90579   0.03435   0.00000  Uiso   1.00
H309   H     0.69357   0.85639   0.83999   0.00000  Uiso   1.00
H310   H     0.79062   0.67964   0.01636   0.00000  Uiso   1.00
H311   H     0.09145   0.99313   0.10383   0.00000  Uiso   1.00
H312   H     0.58248   0.88895   0.69403   0.00000  Uiso   1.00
H313   H     0.78712   0.51622   0.06594   0.00000  Uiso   1.00
O314   O     0.23627   0.99103   0.11182   0.00000  Uiso   1.00
O315   O     0.56853   0.85434   0.57418   0.00000  Uiso   1.00
O316   O     0.83701   0.36533   0.06211   0.00000  Uiso   1.00
N317   N     0.16651   0.88432   0.03485   0.00000  Uiso   1.00
N318   N     0.69067   0.78693   0.65171   0.00000  Uiso   1.00
N319   N     0.88196   0.43846   0.99939   0.00000  Uiso   1.00
N320   N     0.10165   0.95162   0.07633   0.00000  Uiso   1.00
N321   N     0.62581   0.85423   0.69319   0.00000  Uiso   1.00
N322   N     0.81710   0.50576   0.04087   0.00000  Uiso   1.00
C323   C     0.41879   0.19731   0.89170   0.00000  Uiso   1.00
C324   C     0.47122   0.26529   0.94130   0.00000  Uiso   1.00
C325   C     0.55142   0.28496   0.95988   0.00000  Uiso   1.00
C326   C     0.58878   0.34923   0.00596   0.00000  Uiso   1.00
C327   C     0.67646   0.44827   0.07891   0.00000  Uiso   1.00
C328   C     0.34008   0.23846   0.83570   0.00000  Uiso   1.00
C329   C     0.31001   0.23556   0.76550   0.00000  Uiso   1.00
C330   C     0.23697   0.27724   0.72269   0.00000  Uiso   1.00
C331   C     0.12103   0.33458   0.63169   0.00000  Uiso   1.00
C332   C     0.39281   0.14243   0.93153   0.00000  Uiso   1.00
C333   C     0.40707   0.05878   0.94189   0.00000  Uiso   1.00
C334   C     0.37840   0.01959   0.97975   0.00000  Uiso   1.00
C335   C     0.34434   0.92782   0.03754   0.00000  Uiso   1.00
C336   C     0.34251   0.27646   0.94048   0.00000  Uiso   1.00
C337   C     0.42978   0.30828   0.96779   0.00000  Uiso   1.00
C338   C     0.46703   0.37253   0.01385   0.00000  Uiso   1.00
C339   C     0.54727   0.39229   0.03251   0.00000  Uiso   1.00
C340   C     0.29864   0.28145   0.86219   0.00000  Uiso   1.00
C341   C     0.22562   0.32313   0.81947   0.00000  Uiso   1.00
C342   C     0.19546   0.32031   0.74923   0.00000  Uiso   1.00
C343   C     0.35138   0.18541   0.95803   0.00000  Uiso   1.00
C344   C     0.32268   0.14635   0.99586   0.00000  Uiso   1.00
C345   C     0.33689   0.06266   0.00629   0.00000  Uiso   1.00
H346   H     0.45104   0.16384   0.87107   0.00000  Uiso   1.00
H347   H     0.58346   0.25168   0.93936   0.00000  Uiso   1.00
H348   H     0.34209   0.20229   0.74501   0.00000  Uiso   1.00
H349   H     0.43913   0.02553   0.92138   0.00000  Uiso   1.00
H350   H     0.71198   0.36805   0.02674   0.00000  Uiso   1.00
H351   H     0.20302   0.26387   0.61694   0.00000  Uiso   1.00
H352   H     0.40765   0.89114   0.98885   0.00000  Uiso   1.00
H353   H     0.31025   0.30993   0.96111   0.00000  Uiso   1.00
H354   H     0.43495   0.40579   0.03435   0.00000  Uiso   1.00
H355   H     0.19357   0.35639   0.83999   0.00000  Uiso   1.00
H356   H     0.29062   0.17964   0.01636   0.00000  Uiso   1.00
H357   H     0.59145   0.49313   0.10383   0.00000  Uiso   1.00
H358   H     0.08248   0.38895   0.69403   0.00000  Uiso   1.00
H359   H     0.28712   0.01622   0.06594   0.00000  Uiso   1.00
O360   O     0.73627   0.49103   0.11182   0.00000  Uiso   1.00
O361   O     0.06853   0.35434   0.57418   0.00000  Uiso   1.00
O362   O     0.33701   0.86533   0.06211   0.00000  Uiso   1.00
N363   N     0.66651   0.38432   0.03485   0.00000  Uiso   1.00
N364   N     0.19067   0.28693   0.65171   0.00000  Uiso   1.00
N365   N     0.38196   0.93846   0.99939   0.00000  Uiso   1.00
N366   N     0.60165   0.45162   0.07633   0.00000  Uiso   1.00
N367   N     0.12581   0.35423   0.69319   0.00000  Uiso   1.00
N368   N     0.31710   0.00576   0.04087   0.00000  Uiso   1.00
