data_job_04490
_audit_creation_date              2018-12-19
_audit_creation_method            'Materials Studio'
_symmetry_space_group_name_H-M    'P1'
_symmetry_Int_Tables_number       1
_symmetry_cell_setting            triclinic
loop_
_symmetry_equiv_pos_as_xyz
  x,y,z
_cell_length_a                    10.1194
_cell_length_b                    15.2068
_cell_length_c                    7.4650
_cell_angle_alpha                 90.0000
_cell_angle_beta                  68.3703
_cell_angle_gamma                 90.0000
loop_
_atom_site_label
_atom_site_type_symbol
_atom_site_fract_x
_atom_site_fract_y
_atom_site_fract_z
_atom_site_U_iso_or_equiv
_atom_site_adp_type
_atom_site_occupancy
C1     C     0.05785   0.79835   0.39385   0.00000  Uiso   1.00
C2     C     0.13260   0.87845   0.27758   0.00000  Uiso   1.00
C3     C     0.19547   0.94581   0.34340   0.00000  Uiso   1.00
C4     C     0.25838   0.01326   0.21486   0.00000  Uiso   1.00
C5     C     0.37439   0.13766   0.06288   0.00000  Uiso   1.00
C6     C     0.90830   0.79836   0.38971   0.00000  Uiso   1.00
C7     C     0.78259   0.79836   0.54983   0.00000  Uiso   1.00
C8     C     0.65668   0.79836   0.51568   0.00000  Uiso   1.00
C9     C     0.42448   0.79835   0.53780   0.00000  Uiso   1.00
C10    C     0.13257   0.71824   0.27760   0.00000  Uiso   1.00
C11    C     0.19540   0.65086   0.34346   0.00000  Uiso   1.00
C12    C     0.25828   0.58340   0.21492   0.00000  Uiso   1.00
C13    C     0.37429   0.45899   0.06297   0.00000  Uiso   1.00
C14    C     0.05778   0.79834   0.04850   0.00000  Uiso   1.00
C15    C     0.13256   0.87845   0.09000   0.00000  Uiso   1.00
C16    C     0.19540   0.94581   0.96131   0.00000  Uiso   1.00
C17    C     0.25835   0.01325   0.02694   0.00000  Uiso   1.00
C18    C     0.90827   0.79835   0.20214   0.00000  Uiso   1.00
C19    C     0.78252   0.79835   0.16774   0.00000  Uiso   1.00
C20    C     0.65665   0.79836   0.32776   0.00000  Uiso   1.00
C21    C     0.13255   0.71823   0.09001   0.00000  Uiso   1.00
C22    C     0.19533   0.65086   0.96136   0.00000  Uiso   1.00
C23    C     0.25825   0.58340   0.02701   0.00000  Uiso   1.00
H24    H     0.05786   0.79835   0.53989   0.00000  Uiso   1.00
H25    H     0.19546   0.94579   0.48859   0.00000  Uiso   1.00
H26    H     0.78265   0.79835   0.69497   0.00000  Uiso   1.00
H27    H     0.19540   0.65089   0.48863   0.00000  Uiso   1.00
H28    H     0.34795   0.10928   0.34901   0.00000  Uiso   1.00
H29    H     0.47751   0.79836   0.78419   0.00000  Uiso   1.00
H30    H     0.34788   0.48739   0.34907   0.00000  Uiso   1.00
H31    H     0.05775   0.79834   0.90246   0.00000  Uiso   1.00
H32    H     0.19536   0.94579   0.81616   0.00000  Uiso   1.00
H33    H     0.78254   0.79834   0.02256   0.00000  Uiso   1.00
H34    H     0.19529   0.65088   0.81621   0.00000  Uiso   1.00
H35    H     0.34786   0.10927   0.80325   0.00000  Uiso   1.00
H36    H     0.47742   0.79835   0.23843   0.00000  Uiso   1.00
H37    H     0.34779   0.48739   0.80331   0.00000  Uiso   1.00
O38    O     0.43838   0.20629   0.03089   0.00000  Uiso   1.00
O39    O     0.29640   0.79835   0.60183   0.00000  Uiso   1.00
O40    O     0.43831   0.39038   0.03096   0.00000  Uiso   1.00
N41    N     0.32907   0.08903   0.23239   0.00000  Uiso   1.00
N42    N     0.51526   0.79836   0.63926   0.00000  Uiso   1.00
N43    N     0.32895   0.50762   0.23248   0.00000  Uiso   1.00
N44    N     0.32902   0.08903   0.93872   0.00000  Uiso   1.00
N45    N     0.51521   0.79835   0.34559   0.00000  Uiso   1.00
N46    N     0.32890   0.50761   0.93881   0.00000  Uiso   1.00
C47    C     0.94215   0.29835   0.60615   0.00000  Uiso   1.00
C48    C     0.86740   0.37845   0.72242   0.00000  Uiso   1.00
C49    C     0.80453   0.44581   0.65660   0.00000  Uiso   1.00
C50    C     0.74162   0.51326   0.78514   0.00000  Uiso   1.00
C51    C     0.62561   0.63766   0.93712   0.00000  Uiso   1.00
C52    C     0.09170   0.29836   0.61029   0.00000  Uiso   1.00
C53    C     0.21741   0.29836   0.45017   0.00000  Uiso   1.00
C54    C     0.34332   0.29836   0.48432   0.00000  Uiso   1.00
C55    C     0.57552   0.29835   0.46220   0.00000  Uiso   1.00
C56    C     0.86743   0.21824   0.72240   0.00000  Uiso   1.00
C57    C     0.80460   0.15086   0.65654   0.00000  Uiso   1.00
C58    C     0.74172   0.08340   0.78508   0.00000  Uiso   1.00
C59    C     0.62571   0.95899   0.93703   0.00000  Uiso   1.00
C60    C     0.94222   0.29834   0.95150   0.00000  Uiso   1.00
C61    C     0.86744   0.37845   0.91000   0.00000  Uiso   1.00
C62    C     0.80460   0.44581   0.03869   0.00000  Uiso   1.00
C63    C     0.74165   0.51325   0.97306   0.00000  Uiso   1.00
C64    C     0.09173   0.29835   0.79786   0.00000  Uiso   1.00
C65    C     0.21748   0.29835   0.83226   0.00000  Uiso   1.00
C66    C     0.34335   0.29836   0.67224   0.00000  Uiso   1.00
C67    C     0.86745   0.21823   0.90999   0.00000  Uiso   1.00
C68    C     0.80467   0.15086   0.03864   0.00000  Uiso   1.00
C69    C     0.74175   0.08340   0.97299   0.00000  Uiso   1.00
H70    H     0.94214   0.29835   0.46011   0.00000  Uiso   1.00
H71    H     0.80454   0.44579   0.51141   0.00000  Uiso   1.00
H72    H     0.21735   0.29835   0.30503   0.00000  Uiso   1.00
H73    H     0.80460   0.15089   0.51137   0.00000  Uiso   1.00
H74    H     0.65205   0.60928   0.65099   0.00000  Uiso   1.00
H75    H     0.52249   0.29836   0.21581   0.00000  Uiso   1.00
H76    H     0.65212   0.98739   0.65093   0.00000  Uiso   1.00
H77    H     0.94225   0.29834   0.09754   0.00000  Uiso   1.00
H78    H     0.80464   0.44579   0.18384   0.00000  Uiso   1.00
H79    H     0.21746   0.29834   0.97744   0.00000  Uiso   1.00
H80    H     0.80471   0.15088   0.18379   0.00000  Uiso   1.00
H81    H     0.65214   0.60927   0.19675   0.00000  Uiso   1.00
H82    H     0.52258   0.29835   0.76157   0.00000  Uiso   1.00
H83    H     0.65221   0.98739   0.19669   0.00000  Uiso   1.00
O84    O     0.56162   0.70629   0.96911   0.00000  Uiso   1.00
O85    O     0.70360   0.29835   0.39817   0.00000  Uiso   1.00
O86    O     0.56169   0.89038   0.96904   0.00000  Uiso   1.00
N87    N     0.67093   0.58903   0.76761   0.00000  Uiso   1.00
N88    N     0.48474   0.29836   0.36074   0.00000  Uiso   1.00
N89    N     0.67105   0.00762   0.76752   0.00000  Uiso   1.00
N90    N     0.67098   0.58903   0.06128   0.00000  Uiso   1.00
N91    N     0.48479   0.29835   0.65441   0.00000  Uiso   1.00
N92    N     0.67110   0.00761   0.06119   0.00000  Uiso   1.00
