data_job_03321
_audit_creation_date              2018-12-19
_audit_creation_method            'Materials Studio'
_symmetry_space_group_name_H-M    'P1'
_symmetry_Int_Tables_number       1
_symmetry_cell_setting            triclinic
loop_
_symmetry_equiv_pos_as_xyz
  x,y,z
_cell_length_a                    16.6076
_cell_length_b                    14.2384
_cell_length_c                    22.2148
_cell_angle_alpha                 90.0000
_cell_angle_beta                  90.0000
_cell_angle_gamma                 90.0000
loop_
_atom_site_label
_atom_site_type_symbol
_atom_site_fract_x
_atom_site_fract_y
_atom_site_fract_z
_atom_site_U_iso_or_equiv
_atom_site_adp_type
_atom_site_occupancy
C1     C     0.75638   0.69877   0.27340   0.00000  Uiso   1.00
C2     C     0.69756   0.74682   0.23063   0.00000  Uiso   1.00
C3     C     0.61911   0.71836   0.21924   0.00000  Uiso   1.00
C4     C     0.57503   0.77172   0.17861   0.00000  Uiso   1.00
C5     C     0.47865   0.83430   0.11646   0.00000  Uiso   1.00
C6     C     0.83060   0.67519   0.23591   0.00000  Uiso   1.00
C7     C     0.86400   0.58649   0.22897   0.00000  Uiso   1.00
C8     C     0.93191   0.57955   0.19280   0.00000  Uiso   1.00
C9     C     0.04210   0.53093   0.13888   0.00000  Uiso   1.00
C10    C     0.78296   0.77390   0.31810   0.00000  Uiso   1.00
C11    C     0.77633   0.76821   0.38027   0.00000  Uiso   1.00
C12    C     0.80416   0.84438   0.41329   0.00000  Uiso   1.00
C13    C     0.84038   0.94903   0.48698   0.00000  Uiso   1.00
C14    C     0.81762   0.84414   0.22150   0.00000  Uiso   1.00
C15    C     0.73083   0.82578   0.20244   0.00000  Uiso   1.00
C16    C     0.68685   0.87920   0.16182   0.00000  Uiso   1.00
C17    C     0.60834   0.85083   0.15037   0.00000  Uiso   1.00
C18    C     0.86385   0.75414   0.20772   0.00000  Uiso   1.00
C19    C     0.93174   0.74733   0.17155   0.00000  Uiso   1.00
C20    C     0.96523   0.65865   0.16456   0.00000  Uiso   1.00
C21    C     0.81622   0.85287   0.28991   0.00000  Uiso   1.00
C22    C     0.84407   0.92905   0.32284   0.00000  Uiso   1.00
C23    C     0.83748   0.92348   0.38505   0.00000  Uiso   1.00
H24    H     0.73050   0.63729   0.29535   0.00000  Uiso   1.00
H25    H     0.59339   0.65725   0.24106   0.00000  Uiso   1.00
H26    H     0.83825   0.52541   0.25080   0.00000  Uiso   1.00
H27    H     0.75059   0.70710   0.40207   0.00000  Uiso   1.00
H28    H     0.45607   0.71418   0.16843   0.00000  Uiso   1.00
H29    H     0.97237   0.43618   0.18897   0.00000  Uiso   1.00
H30    H     0.78753   0.81931   0.50795   0.00000  Uiso   1.00
H31    H     0.84351   0.90561   0.19956   0.00000  Uiso   1.00
H32    H     0.71261   0.94030   0.14001   0.00000  Uiso   1.00
H33    H     0.95746   0.80845   0.14975   0.00000  Uiso   1.00
H34    H     0.86980   0.99014   0.30102   0.00000  Uiso   1.00
H35    H     0.55283   0.94391   0.08641   0.00000  Uiso   1.00
H36    H     0.06914   0.66591   0.10695   0.00000  Uiso   1.00
H37    H     0.88429   0.04904   0.42593   0.00000  Uiso   1.00
O38    O     0.41630   0.84700   0.08996   0.00000  Uiso   1.00
O39    O     0.09368   0.48228   0.11693   0.00000  Uiso   1.00
O40    O     0.85117   0.98494   0.53542   0.00000  Uiso   1.00
N41    N     0.49680   0.76350   0.15730   0.00000  Uiso   1.00
N42    N     0.97951   0.50358   0.17650   0.00000  Uiso   1.00
N43    N     0.80671   0.86177   0.47473   0.00000  Uiso   1.00
N44    N     0.54886   0.88711   0.11317   0.00000  Uiso   1.00
N45    N     0.03157   0.62720   0.13237   0.00000  Uiso   1.00
N46    N     0.85878   0.98539   0.43059   0.00000  Uiso   1.00
C47    C     0.74362   0.30123   0.27340   0.00000  Uiso   1.00
C48    C     0.80244   0.25318   0.23063   0.00000  Uiso   1.00
C49    C     0.88089   0.28164   0.21924   0.00000  Uiso   1.00
C50    C     0.92497   0.22828   0.17861   0.00000  Uiso   1.00
C51    C     0.02135   0.16570   0.11646   0.00000  Uiso   1.00
C52    C     0.66940   0.32481   0.23591   0.00000  Uiso   1.00
C53    C     0.63600   0.41351   0.22897   0.00000  Uiso   1.00
C54    C     0.56809   0.42045   0.19280   0.00000  Uiso   1.00
C55    C     0.45790   0.46907   0.13888   0.00000  Uiso   1.00
C56    C     0.71704   0.22610   0.31810   0.00000  Uiso   1.00
C57    C     0.72367   0.23179   0.38027   0.00000  Uiso   1.00
C58    C     0.69584   0.15562   0.41329   0.00000  Uiso   1.00
C59    C     0.65962   0.05097   0.48698   0.00000  Uiso   1.00
C60    C     0.68238   0.15586   0.22150   0.00000  Uiso   1.00
C61    C     0.76917   0.17422   0.20244   0.00000  Uiso   1.00
C62    C     0.81315   0.12080   0.16182   0.00000  Uiso   1.00
C63    C     0.89166   0.14917   0.15037   0.00000  Uiso   1.00
C64    C     0.63615   0.24586   0.20772   0.00000  Uiso   1.00
C65    C     0.56826   0.25267   0.17155   0.00000  Uiso   1.00
C66    C     0.53477   0.34135   0.16456   0.00000  Uiso   1.00
C67    C     0.68378   0.14713   0.28991   0.00000  Uiso   1.00
C68    C     0.65593   0.07095   0.32284   0.00000  Uiso   1.00
C69    C     0.66252   0.07652   0.38505   0.00000  Uiso   1.00
H70    H     0.76950   0.36271   0.29535   0.00000  Uiso   1.00
H71    H     0.90661   0.34275   0.24106   0.00000  Uiso   1.00
H72    H     0.66175   0.47459   0.25080   0.00000  Uiso   1.00
H73    H     0.74941   0.29290   0.40207   0.00000  Uiso   1.00
H74    H     0.04393   0.28582   0.16843   0.00000  Uiso   1.00
H75    H     0.52763   0.56382   0.18897   0.00000  Uiso   1.00
H76    H     0.71247   0.18069   0.50795   0.00000  Uiso   1.00
H77    H     0.65649   0.09439   0.19956   0.00000  Uiso   1.00
H78    H     0.78739   0.05970   0.14001   0.00000  Uiso   1.00
H79    H     0.54254   0.19155   0.14975   0.00000  Uiso   1.00
H80    H     0.63020   0.00986   0.30102   0.00000  Uiso   1.00
H81    H     0.94717   0.05609   0.08641   0.00000  Uiso   1.00
H82    H     0.43086   0.33409   0.10695   0.00000  Uiso   1.00
H83    H     0.61571   0.95096   0.42593   0.00000  Uiso   1.00
O84    O     0.08370   0.15300   0.08996   0.00000  Uiso   1.00
O85    O     0.40632   0.51772   0.11693   0.00000  Uiso   1.00
O86    O     0.64883   0.01506   0.53542   0.00000  Uiso   1.00
N87    N     0.00320   0.23650   0.15730   0.00000  Uiso   1.00
N88    N     0.52049   0.49642   0.17650   0.00000  Uiso   1.00
N89    N     0.69329   0.13823   0.47473   0.00000  Uiso   1.00
N90    N     0.95114   0.11289   0.11317   0.00000  Uiso   1.00
N91    N     0.46843   0.37280   0.13237   0.00000  Uiso   1.00
N92    N     0.64122   0.01461   0.43059   0.00000  Uiso   1.00
C93    C     0.24362   0.69877   0.22660   0.00000  Uiso   1.00
C94    C     0.30244   0.74682   0.26937   0.00000  Uiso   1.00
C95    C     0.38089   0.71836   0.28076   0.00000  Uiso   1.00
C96    C     0.42497   0.77172   0.32139   0.00000  Uiso   1.00
C97    C     0.52135   0.83430   0.38354   0.00000  Uiso   1.00
C98    C     0.16940   0.67519   0.26409   0.00000  Uiso   1.00
C99    C     0.13600   0.58649   0.27103   0.00000  Uiso   1.00
C100   C     0.06809   0.57955   0.30720   0.00000  Uiso   1.00
C101   C     0.95790   0.53093   0.36112   0.00000  Uiso   1.00
C102   C     0.21704   0.77390   0.18190   0.00000  Uiso   1.00
C103   C     0.22367   0.76821   0.11973   0.00000  Uiso   1.00
C104   C     0.19584   0.84438   0.08671   0.00000  Uiso   1.00
C105   C     0.15962   0.94903   0.01302   0.00000  Uiso   1.00
C106   C     0.18238   0.84414   0.27850   0.00000  Uiso   1.00
C107   C     0.26917   0.82578   0.29756   0.00000  Uiso   1.00
C108   C     0.31315   0.87920   0.33818   0.00000  Uiso   1.00
C109   C     0.39166   0.85083   0.34963   0.00000  Uiso   1.00
C110   C     0.13615   0.75414   0.29228   0.00000  Uiso   1.00
C111   C     0.06826   0.74733   0.32845   0.00000  Uiso   1.00
C112   C     0.03477   0.65865   0.33544   0.00000  Uiso   1.00
C113   C     0.18378   0.85287   0.21009   0.00000  Uiso   1.00
C114   C     0.15593   0.92905   0.17716   0.00000  Uiso   1.00
C115   C     0.16252   0.92348   0.11495   0.00000  Uiso   1.00
H116   H     0.26950   0.63729   0.20465   0.00000  Uiso   1.00
H117   H     0.40661   0.65725   0.25894   0.00000  Uiso   1.00
H118   H     0.16175   0.52541   0.24920   0.00000  Uiso   1.00
H119   H     0.24941   0.70710   0.09793   0.00000  Uiso   1.00
H120   H     0.54393   0.71418   0.33157   0.00000  Uiso   1.00
H121   H     0.02763   0.43618   0.31103   0.00000  Uiso   1.00
H122   H     0.21247   0.81931   0.99205   0.00000  Uiso   1.00
H123   H     0.15649   0.90561   0.30044   0.00000  Uiso   1.00
H124   H     0.28739   0.94030   0.35999   0.00000  Uiso   1.00
H125   H     0.04254   0.80845   0.35025   0.00000  Uiso   1.00
H126   H     0.13020   0.99014   0.19899   0.00000  Uiso   1.00
H127   H     0.44717   0.94391   0.41359   0.00000  Uiso   1.00
H128   H     0.93086   0.66591   0.39305   0.00000  Uiso   1.00
H129   H     0.11571   0.04904   0.07407   0.00000  Uiso   1.00
O130   O     0.58370   0.84700   0.41004   0.00000  Uiso   1.00
O131   O     0.90632   0.48228   0.38307   0.00000  Uiso   1.00
O132   O     0.14883   0.98494   0.96458   0.00000  Uiso   1.00
N133   N     0.50320   0.76350   0.34270   0.00000  Uiso   1.00
N134   N     0.02049   0.50358   0.32350   0.00000  Uiso   1.00
N135   N     0.19329   0.86177   0.02527   0.00000  Uiso   1.00
N136   N     0.45114   0.88711   0.38683   0.00000  Uiso   1.00
N137   N     0.96843   0.62720   0.36763   0.00000  Uiso   1.00
N138   N     0.14122   0.98539   0.06941   0.00000  Uiso   1.00
C139   C     0.25638   0.30123   0.22660   0.00000  Uiso   1.00
C140   C     0.19756   0.25318   0.26937   0.00000  Uiso   1.00
C141   C     0.11911   0.28164   0.28076   0.00000  Uiso   1.00
C142   C     0.07503   0.22828   0.32139   0.00000  Uiso   1.00
C143   C     0.97865   0.16570   0.38354   0.00000  Uiso   1.00
C144   C     0.33060   0.32481   0.26409   0.00000  Uiso   1.00
C145   C     0.36400   0.41351   0.27103   0.00000  Uiso   1.00
C146   C     0.43191   0.42045   0.30720   0.00000  Uiso   1.00
C147   C     0.54210   0.46907   0.36112   0.00000  Uiso   1.00
C148   C     0.28296   0.22610   0.18190   0.00000  Uiso   1.00
C149   C     0.27633   0.23179   0.11973   0.00000  Uiso   1.00
C150   C     0.30416   0.15562   0.08671   0.00000  Uiso   1.00
C151   C     0.34038   0.05097   0.01302   0.00000  Uiso   1.00
C152   C     0.31762   0.15586   0.27850   0.00000  Uiso   1.00
C153   C     0.23083   0.17422   0.29756   0.00000  Uiso   1.00
C154   C     0.18685   0.12080   0.33818   0.00000  Uiso   1.00
C155   C     0.10834   0.14917   0.34963   0.00000  Uiso   1.00
C156   C     0.36385   0.24586   0.29228   0.00000  Uiso   1.00
C157   C     0.43174   0.25267   0.32845   0.00000  Uiso   1.00
C158   C     0.46523   0.34135   0.33544   0.00000  Uiso   1.00
C159   C     0.31622   0.14713   0.21009   0.00000  Uiso   1.00
C160   C     0.34407   0.07095   0.17716   0.00000  Uiso   1.00
C161   C     0.33748   0.07652   0.11495   0.00000  Uiso   1.00
H162   H     0.23050   0.36271   0.20465   0.00000  Uiso   1.00
H163   H     0.09339   0.34275   0.25894   0.00000  Uiso   1.00
H164   H     0.33825   0.47459   0.24920   0.00000  Uiso   1.00
H165   H     0.25059   0.29290   0.09793   0.00000  Uiso   1.00
H166   H     0.95607   0.28582   0.33157   0.00000  Uiso   1.00
H167   H     0.47237   0.56382   0.31103   0.00000  Uiso   1.00
H168   H     0.28753   0.18069   0.99205   0.00000  Uiso   1.00
H169   H     0.34351   0.09439   0.30044   0.00000  Uiso   1.00
H170   H     0.21261   0.05970   0.35999   0.00000  Uiso   1.00
H171   H     0.45746   0.19155   0.35025   0.00000  Uiso   1.00
H172   H     0.36980   0.00986   0.19899   0.00000  Uiso   1.00
H173   H     0.05283   0.05609   0.41359   0.00000  Uiso   1.00
H174   H     0.56914   0.33409   0.39305   0.00000  Uiso   1.00
H175   H     0.38429   0.95096   0.07407   0.00000  Uiso   1.00
O176   O     0.91630   0.15300   0.41004   0.00000  Uiso   1.00
O177   O     0.59368   0.51772   0.38307   0.00000  Uiso   1.00
O178   O     0.35117   0.01506   0.96458   0.00000  Uiso   1.00
N179   N     0.99680   0.23650   0.34270   0.00000  Uiso   1.00
N180   N     0.47951   0.49642   0.32350   0.00000  Uiso   1.00
N181   N     0.30671   0.13823   0.02527   0.00000  Uiso   1.00
N182   N     0.04886   0.11289   0.38683   0.00000  Uiso   1.00
N183   N     0.53157   0.37280   0.36763   0.00000  Uiso   1.00
N184   N     0.35878   0.01461   0.06941   0.00000  Uiso   1.00
C185   C     0.24362   0.30123   0.72660   0.00000  Uiso   1.00
C186   C     0.30244   0.25318   0.76937   0.00000  Uiso   1.00
C187   C     0.38089   0.28164   0.78076   0.00000  Uiso   1.00
C188   C     0.42497   0.22828   0.82139   0.00000  Uiso   1.00
C189   C     0.52135   0.16570   0.88354   0.00000  Uiso   1.00
C190   C     0.16940   0.32481   0.76409   0.00000  Uiso   1.00
C191   C     0.13600   0.41351   0.77103   0.00000  Uiso   1.00
C192   C     0.06809   0.42045   0.80720   0.00000  Uiso   1.00
C193   C     0.95790   0.46907   0.86112   0.00000  Uiso   1.00
C194   C     0.21704   0.22610   0.68190   0.00000  Uiso   1.00
C195   C     0.22367   0.23179   0.61973   0.00000  Uiso   1.00
C196   C     0.19584   0.15562   0.58671   0.00000  Uiso   1.00
C197   C     0.15962   0.05097   0.51302   0.00000  Uiso   1.00
C198   C     0.18238   0.15586   0.77850   0.00000  Uiso   1.00
C199   C     0.26917   0.17422   0.79756   0.00000  Uiso   1.00
C200   C     0.31315   0.12080   0.83818   0.00000  Uiso   1.00
C201   C     0.39166   0.14917   0.84963   0.00000  Uiso   1.00
C202   C     0.13615   0.24586   0.79228   0.00000  Uiso   1.00
C203   C     0.06826   0.25267   0.82845   0.00000  Uiso   1.00
C204   C     0.03477   0.34135   0.83544   0.00000  Uiso   1.00
C205   C     0.18378   0.14713   0.71009   0.00000  Uiso   1.00
C206   C     0.15593   0.07095   0.67716   0.00000  Uiso   1.00
C207   C     0.16252   0.07652   0.61495   0.00000  Uiso   1.00
H208   H     0.26950   0.36271   0.70465   0.00000  Uiso   1.00
H209   H     0.40661   0.34275   0.75894   0.00000  Uiso   1.00
H210   H     0.16175   0.47459   0.74920   0.00000  Uiso   1.00
H211   H     0.24941   0.29290   0.59793   0.00000  Uiso   1.00
H212   H     0.54393   0.28582   0.83157   0.00000  Uiso   1.00
H213   H     0.02763   0.56382   0.81103   0.00000  Uiso   1.00
H214   H     0.21247   0.18069   0.49205   0.00000  Uiso   1.00
H215   H     0.15649   0.09439   0.80044   0.00000  Uiso   1.00
H216   H     0.28739   0.05970   0.85999   0.00000  Uiso   1.00
H217   H     0.04254   0.19155   0.85025   0.00000  Uiso   1.00
H218   H     0.13020   0.00986   0.69899   0.00000  Uiso   1.00
H219   H     0.44717   0.05609   0.91359   0.00000  Uiso   1.00
H220   H     0.93086   0.33409   0.89305   0.00000  Uiso   1.00
H221   H     0.11571   0.95096   0.57407   0.00000  Uiso   1.00
O222   O     0.58370   0.15300   0.91004   0.00000  Uiso   1.00
O223   O     0.90632   0.51772   0.88307   0.00000  Uiso   1.00
O224   O     0.14883   0.01506   0.46458   0.00000  Uiso   1.00
N225   N     0.50320   0.23650   0.84270   0.00000  Uiso   1.00
N226   N     0.02049   0.49642   0.82350   0.00000  Uiso   1.00
N227   N     0.19329   0.13823   0.52527   0.00000  Uiso   1.00
N228   N     0.45114   0.11289   0.88683   0.00000  Uiso   1.00
N229   N     0.96843   0.37280   0.86763   0.00000  Uiso   1.00
N230   N     0.14122   0.01461   0.56941   0.00000  Uiso   1.00
C231   C     0.25638   0.69877   0.72660   0.00000  Uiso   1.00
C232   C     0.19756   0.74682   0.76937   0.00000  Uiso   1.00
C233   C     0.11911   0.71836   0.78076   0.00000  Uiso   1.00
C234   C     0.07503   0.77172   0.82139   0.00000  Uiso   1.00
C235   C     0.97865   0.83430   0.88354   0.00000  Uiso   1.00
C236   C     0.33060   0.67519   0.76409   0.00000  Uiso   1.00
C237   C     0.36400   0.58649   0.77103   0.00000  Uiso   1.00
C238   C     0.43191   0.57955   0.80720   0.00000  Uiso   1.00
C239   C     0.54210   0.53093   0.86112   0.00000  Uiso   1.00
C240   C     0.28296   0.77390   0.68190   0.00000  Uiso   1.00
C241   C     0.27633   0.76821   0.61973   0.00000  Uiso   1.00
C242   C     0.30416   0.84438   0.58671   0.00000  Uiso   1.00
C243   C     0.34038   0.94903   0.51302   0.00000  Uiso   1.00
C244   C     0.31762   0.84414   0.77850   0.00000  Uiso   1.00
C245   C     0.23083   0.82578   0.79756   0.00000  Uiso   1.00
C246   C     0.18685   0.87920   0.83818   0.00000  Uiso   1.00
C247   C     0.10834   0.85083   0.84963   0.00000  Uiso   1.00
C248   C     0.36385   0.75414   0.79228   0.00000  Uiso   1.00
C249   C     0.43174   0.74733   0.82845   0.00000  Uiso   1.00
C250   C     0.46523   0.65865   0.83544   0.00000  Uiso   1.00
C251   C     0.31622   0.85287   0.71009   0.00000  Uiso   1.00
C252   C     0.34407   0.92905   0.67716   0.00000  Uiso   1.00
C253   C     0.33748   0.92348   0.61495   0.00000  Uiso   1.00
H254   H     0.23050   0.63729   0.70465   0.00000  Uiso   1.00
H255   H     0.09339   0.65725   0.75894   0.00000  Uiso   1.00
H256   H     0.33825   0.52541   0.74920   0.00000  Uiso   1.00
H257   H     0.25059   0.70710   0.59793   0.00000  Uiso   1.00
H258   H     0.95607   0.71418   0.83157   0.00000  Uiso   1.00
H259   H     0.47237   0.43618   0.81103   0.00000  Uiso   1.00
H260   H     0.28753   0.81931   0.49205   0.00000  Uiso   1.00
H261   H     0.34351   0.90561   0.80044   0.00000  Uiso   1.00
H262   H     0.21261   0.94030   0.85999   0.00000  Uiso   1.00
H263   H     0.45746   0.80845   0.85025   0.00000  Uiso   1.00
H264   H     0.36980   0.99014   0.69899   0.00000  Uiso   1.00
H265   H     0.05283   0.94391   0.91359   0.00000  Uiso   1.00
H266   H     0.56914   0.66591   0.89305   0.00000  Uiso   1.00
H267   H     0.38429   0.04904   0.57407   0.00000  Uiso   1.00
O268   O     0.91630   0.84700   0.91004   0.00000  Uiso   1.00
O269   O     0.59368   0.48228   0.88307   0.00000  Uiso   1.00
O270   O     0.35117   0.98494   0.46458   0.00000  Uiso   1.00
N271   N     0.99680   0.76350   0.84270   0.00000  Uiso   1.00
N272   N     0.47951   0.50358   0.82350   0.00000  Uiso   1.00
N273   N     0.30671   0.86177   0.52527   0.00000  Uiso   1.00
N274   N     0.04886   0.88711   0.88683   0.00000  Uiso   1.00
N275   N     0.53157   0.62720   0.86763   0.00000  Uiso   1.00
N276   N     0.35878   0.98539   0.56941   0.00000  Uiso   1.00
C277   C     0.75638   0.30123   0.77340   0.00000  Uiso   1.00
C278   C     0.69756   0.25318   0.73063   0.00000  Uiso   1.00
C279   C     0.61911   0.28164   0.71924   0.00000  Uiso   1.00
C280   C     0.57503   0.22828   0.67861   0.00000  Uiso   1.00
C281   C     0.47865   0.16570   0.61646   0.00000  Uiso   1.00
C282   C     0.83060   0.32481   0.73591   0.00000  Uiso   1.00
C283   C     0.86400   0.41351   0.72897   0.00000  Uiso   1.00
C284   C     0.93191   0.42045   0.69280   0.00000  Uiso   1.00
C285   C     0.04210   0.46907   0.63888   0.00000  Uiso   1.00
C286   C     0.78296   0.22610   0.81810   0.00000  Uiso   1.00
C287   C     0.77633   0.23179   0.88027   0.00000  Uiso   1.00
C288   C     0.80416   0.15562   0.91329   0.00000  Uiso   1.00
C289   C     0.84038   0.05097   0.98698   0.00000  Uiso   1.00
C290   C     0.81762   0.15586   0.72150   0.00000  Uiso   1.00
C291   C     0.73083   0.17422   0.70244   0.00000  Uiso   1.00
C292   C     0.68685   0.12080   0.66182   0.00000  Uiso   1.00
C293   C     0.60834   0.14917   0.65037   0.00000  Uiso   1.00
C294   C     0.86385   0.24586   0.70772   0.00000  Uiso   1.00
C295   C     0.93174   0.25267   0.67155   0.00000  Uiso   1.00
C296   C     0.96523   0.34135   0.66456   0.00000  Uiso   1.00
C297   C     0.81622   0.14713   0.78991   0.00000  Uiso   1.00
C298   C     0.84407   0.07095   0.82284   0.00000  Uiso   1.00
C299   C     0.83748   0.07652   0.88505   0.00000  Uiso   1.00
H300   H     0.73050   0.36271   0.79535   0.00000  Uiso   1.00
H301   H     0.59339   0.34275   0.74106   0.00000  Uiso   1.00
H302   H     0.83825   0.47459   0.75080   0.00000  Uiso   1.00
H303   H     0.75059   0.29290   0.90207   0.00000  Uiso   1.00
H304   H     0.45607   0.28582   0.66843   0.00000  Uiso   1.00
H305   H     0.97237   0.56382   0.68897   0.00000  Uiso   1.00
H306   H     0.78753   0.18069   0.00795   0.00000  Uiso   1.00
H307   H     0.84351   0.09439   0.69956   0.00000  Uiso   1.00
H308   H     0.71261   0.05970   0.64001   0.00000  Uiso   1.00
H309   H     0.95746   0.19155   0.64975   0.00000  Uiso   1.00
H310   H     0.86980   0.00986   0.80102   0.00000  Uiso   1.00
H311   H     0.55283   0.05609   0.58641   0.00000  Uiso   1.00
H312   H     0.06914   0.33409   0.60695   0.00000  Uiso   1.00
H313   H     0.88429   0.95096   0.92593   0.00000  Uiso   1.00
O314   O     0.41630   0.15300   0.58996   0.00000  Uiso   1.00
O315   O     0.09368   0.51772   0.61693   0.00000  Uiso   1.00
O316   O     0.85117   0.01506   0.03542   0.00000  Uiso   1.00
N317   N     0.49680   0.23650   0.65730   0.00000  Uiso   1.00
N318   N     0.97951   0.49642   0.67650   0.00000  Uiso   1.00
N319   N     0.80671   0.13823   0.97473   0.00000  Uiso   1.00
N320   N     0.54886   0.11289   0.61317   0.00000  Uiso   1.00
N321   N     0.03157   0.37280   0.63237   0.00000  Uiso   1.00
N322   N     0.85878   0.01461   0.93059   0.00000  Uiso   1.00
C323   C     0.74362   0.69877   0.77340   0.00000  Uiso   1.00
C324   C     0.80244   0.74682   0.73063   0.00000  Uiso   1.00
C325   C     0.88089   0.71836   0.71924   0.00000  Uiso   1.00
C326   C     0.92497   0.77172   0.67861   0.00000  Uiso   1.00
C327   C     0.02135   0.83430   0.61646   0.00000  Uiso   1.00
C328   C     0.66940   0.67519   0.73591   0.00000  Uiso   1.00
C329   C     0.63600   0.58649   0.72897   0.00000  Uiso   1.00
C330   C     0.56809   0.57955   0.69280   0.00000  Uiso   1.00
C331   C     0.45790   0.53093   0.63888   0.00000  Uiso   1.00
C332   C     0.71704   0.77390   0.81810   0.00000  Uiso   1.00
C333   C     0.72367   0.76821   0.88027   0.00000  Uiso   1.00
C334   C     0.69584   0.84438   0.91329   0.00000  Uiso   1.00
C335   C     0.65962   0.94903   0.98698   0.00000  Uiso   1.00
C336   C     0.68238   0.84414   0.72150   0.00000  Uiso   1.00
C337   C     0.76917   0.82578   0.70244   0.00000  Uiso   1.00
C338   C     0.81315   0.87920   0.66182   0.00000  Uiso   1.00
C339   C     0.89166   0.85083   0.65037   0.00000  Uiso   1.00
C340   C     0.63615   0.75414   0.70772   0.00000  Uiso   1.00
C341   C     0.56826   0.74733   0.67155   0.00000  Uiso   1.00
C342   C     0.53477   0.65865   0.66456   0.00000  Uiso   1.00
C343   C     0.68378   0.85287   0.78991   0.00000  Uiso   1.00
C344   C     0.65593   0.92905   0.82284   0.00000  Uiso   1.00
C345   C     0.66252   0.92348   0.88505   0.00000  Uiso   1.00
H346   H     0.76950   0.63729   0.79535   0.00000  Uiso   1.00
H347   H     0.90661   0.65725   0.74106   0.00000  Uiso   1.00
H348   H     0.66175   0.52541   0.75080   0.00000  Uiso   1.00
H349   H     0.74941   0.70710   0.90207   0.00000  Uiso   1.00
H350   H     0.04393   0.71418   0.66843   0.00000  Uiso   1.00
H351   H     0.52763   0.43618   0.68897   0.00000  Uiso   1.00
H352   H     0.71247   0.81931   0.00795   0.00000  Uiso   1.00
H353   H     0.65649   0.90561   0.69956   0.00000  Uiso   1.00
H354   H     0.78739   0.94030   0.64001   0.00000  Uiso   1.00
H355   H     0.54254   0.80845   0.64975   0.00000  Uiso   1.00
H356   H     0.63020   0.99014   0.80102   0.00000  Uiso   1.00
H357   H     0.94717   0.94391   0.58641   0.00000  Uiso   1.00
H358   H     0.43086   0.66591   0.60695   0.00000  Uiso   1.00
H359   H     0.61571   0.04904   0.92593   0.00000  Uiso   1.00
O360   O     0.08370   0.84700   0.58996   0.00000  Uiso   1.00
O361   O     0.40632   0.48228   0.61693   0.00000  Uiso   1.00
O362   O     0.64883   0.98494   0.03542   0.00000  Uiso   1.00
N363   N     0.00320   0.76350   0.65730   0.00000  Uiso   1.00
N364   N     0.52049   0.50358   0.67650   0.00000  Uiso   1.00
N365   N     0.69329   0.86177   0.97473   0.00000  Uiso   1.00
N366   N     0.95114   0.88711   0.61317   0.00000  Uiso   1.00
N367   N     0.46843   0.62720   0.63237   0.00000  Uiso   1.00
N368   N     0.64122   0.98539   0.93059   0.00000  Uiso   1.00
