data_job_06321
_audit_creation_date              2018-12-19
_audit_creation_method            'Materials Studio'
_symmetry_space_group_name_H-M    'P1'
_symmetry_Int_Tables_number       1
_symmetry_cell_setting            triclinic
loop_
_symmetry_equiv_pos_as_xyz
  x,y,z
_cell_length_a                    16.0079
_cell_length_b                    20.6171
_cell_length_c                    20.7586
_cell_angle_alpha                 113.7050
_cell_angle_beta                  74.7285
_cell_angle_gamma                 75.8674
loop_
_atom_site_label
_atom_site_type_symbol
_atom_site_fract_x
_atom_site_fract_y
_atom_site_fract_z
_atom_site_U_iso_or_equiv
_atom_site_adp_type
_atom_site_occupancy
C1     C     0.51850   0.32157   0.60154   0.00000  Uiso   1.00
C2     C     0.44736   0.38529   0.60057   0.00000  Uiso   1.00
C3     C     0.37276   0.37992   0.57965   0.00000  Uiso   1.00
C4     C     0.31566   0.44460   0.58259   0.00000  Uiso   1.00
C5     C     0.20265   0.53324   0.57755   0.00000  Uiso   1.00
C6     C     0.61546   0.30890   0.54995   0.00000  Uiso   1.00
C7     C     0.68219   0.23930   0.48647   0.00000  Uiso   1.00
C8     C     0.76659   0.23968   0.44681   0.00000  Uiso   1.00
C9     C     0.91458   0.20971   0.36320   0.00000  Uiso   1.00
C10    C     0.51409   0.35580   0.68316   0.00000  Uiso   1.00
C11    C     0.49562   0.32562   0.73169   0.00000  Uiso   1.00
C12    C     0.49470   0.36547   0.80418   0.00000  Uiso   1.00
C13    C     0.48530   0.40832   0.92741   0.00000  Uiso   1.00
C14    C     0.54973   0.44599   0.64397   0.00000  Uiso   1.00
C15    C     0.46433   0.45287   0.62362   0.00000  Uiso   1.00
C16    C     0.40732   0.51758   0.62659   0.00000  Uiso   1.00
C17    C     0.33265   0.51231   0.60568   0.00000  Uiso   1.00
C18    C     0.63242   0.37647   0.57299   0.00000  Uiso   1.00
C19    C     0.71675   0.37696   0.53341   0.00000  Uiso   1.00
C20    C     0.78359   0.30738   0.46989   0.00000  Uiso   1.00
C21    C     0.53105   0.42338   0.70621   0.00000  Uiso   1.00
C22    C     0.53017   0.46328   0.77863   0.00000  Uiso   1.00
C23    C     0.51170   0.43317   0.82726   0.00000  Uiso   1.00
H24    H     0.50530   0.26896   0.58359   0.00000  Uiso   1.00
H25    H     0.35966   0.32760   0.56181   0.00000  Uiso   1.00
H26    H     0.66905   0.18701   0.46865   0.00000  Uiso   1.00
H27    H     0.48250   0.27332   0.71383   0.00000  Uiso   1.00
H28    H     0.20570   0.42242   0.54780   0.00000  Uiso   1.00
H29    H     0.85806   0.12596   0.35139   0.00000  Uiso   1.00
H30    H     0.46470   0.30796   0.86840   0.00000  Uiso   1.00
H31    H     0.56294   0.49861   0.66191   0.00000  Uiso   1.00
H32    H     0.42047   0.56986   0.64443   0.00000  Uiso   1.00
H33    H     0.72985   0.42926   0.55127   0.00000  Uiso   1.00
H34    H     0.54330   0.51558   0.79645   0.00000  Uiso   1.00
H35    H     0.25506   0.61905   0.61485   0.00000  Uiso   1.00
H36    H     0.90742   0.32258   0.41844   0.00000  Uiso   1.00
H37    H     0.51405   0.50459   0.93545   0.00000  Uiso   1.00
O38    O     0.13563   0.56346   0.56839   0.00000  Uiso   1.00
O39    O     0.99151   0.17451   0.31071   0.00000  Uiso   1.00
O40    O     0.47542   0.41329   0.98902   0.00000  Uiso   1.00
N41    N     0.23686   0.45893   0.56600   0.00000  Uiso   1.00
N42    N     0.84677   0.18175   0.38235   0.00000  Uiso   1.00
N43    N     0.47903   0.35190   0.86571   0.00000  Uiso   1.00
N44    N     0.26342   0.56473   0.60208   0.00000  Uiso   1.00
N45    N     0.87333   0.28756   0.41843   0.00000  Uiso   1.00
N46    N     0.50559   0.45770   0.90179   0.00000  Uiso   1.00
C47    C     0.11979   0.39319   0.72425   0.00000  Uiso   1.00
C48    C     0.04698   0.39367   0.78904   0.00000  Uiso   1.00
C49    C     0.95159   0.41403   0.80502   0.00000  Uiso   1.00
C50    C     0.89670   0.41071   0.86679   0.00000  Uiso   1.00
C51    C     0.77767   0.41496   0.96071   0.00000  Uiso   1.00
C52    C     0.16535   0.44537   0.76268   0.00000  Uiso   1.00
C53    C     0.16950   0.50919   0.75649   0.00000  Uiso   1.00
C54    C     0.21427   0.54938   0.79607   0.00000  Uiso   1.00
C55    C     0.27908   0.63388   0.84901   0.00000  Uiso   1.00
C56    C     0.19646   0.31169   0.67674   0.00000  Uiso   1.00
C57    C     0.22680   0.26311   0.59827   0.00000  Uiso   1.00
C58    C     0.29777   0.19076   0.56548   0.00000  Uiso   1.00
C59    C     0.41089   0.06770   0.48498   0.00000  Uiso   1.00
C60    C     0.19191   0.35110   0.80553   0.00000  Uiso   1.00
C61    C     0.08615   0.37081   0.83319   0.00000  Uiso   1.00
C62    C     0.03139   0.36745   0.89495   0.00000  Uiso   1.00
C63    C     0.93594   0.38780   0.91102   0.00000  Uiso   1.00
C64    C     0.20453   0.42251   0.80683   0.00000  Uiso   1.00
C65    C     0.24930   0.46262   0.84642   0.00000  Uiso   1.00
C66    C     0.25351   0.52648   0.84030   0.00000  Uiso   1.00
C67    C     0.23564   0.28883   0.72089   0.00000  Uiso   1.00
C68    C     0.30659   0.21654   0.68821   0.00000  Uiso   1.00
C69    C     0.33702   0.16786   0.60971   0.00000  Uiso   1.00
H70    H     0.08929   0.41100   0.68988   0.00000  Uiso   1.00
H71    H     0.92130   0.43172   0.77085   0.00000  Uiso   1.00
H72    H     0.13919   0.52686   0.72231   0.00000  Uiso   1.00
H73    H     0.19646   0.28083   0.56413   0.00000  Uiso   1.00
H74    H     0.75232   0.44465   0.88010   0.00000  Uiso   1.00
H75    H     0.21178   0.64524   0.77775   0.00000  Uiso   1.00
H76    H     0.33256   0.12643   0.44417   0.00000  Uiso   1.00
H77    H     0.22242   0.33330   0.83991   0.00000  Uiso   1.00
H78    H     0.06173   0.34976   0.92911   0.00000  Uiso   1.00
H79    H     0.27961   0.44490   0.88058   0.00000  Uiso   1.00
H80    H     0.33689   0.19887   0.72239   0.00000  Uiso   1.00
H81    H     0.86629   0.37813   0.00856   0.00000  Uiso   1.00
H82    H     0.32575   0.57872   0.90620   0.00000  Uiso   1.00
H83    H     0.44653   0.05990   0.57263   0.00000  Uiso   1.00
O84    O     0.70119   0.42364   0.00032   0.00000  Uiso   1.00
O85    O     0.30400   0.68680   0.86602   0.00000  Uiso   1.00
O86    O     0.46245   0.00613   0.42838   0.00000  Uiso   1.00
N87    N     0.80120   0.42672   0.89808   0.00000  Uiso   1.00
N88    N     0.23075   0.61427   0.80240   0.00000  Uiso   1.00
N89    N     0.34369   0.12923   0.49053   0.00000  Uiso   1.00
N90    N     0.86253   0.39092   0.96720   0.00000  Uiso   1.00
N91    N     0.29208   0.57847   0.87152   0.00000  Uiso   1.00
N92    N     0.40501   0.09343   0.55965   0.00000  Uiso   1.00
C93    C     0.84677   0.27165   0.67304   0.00000  Uiso   1.00
C94    C     0.83866   0.20646   0.60914   0.00000  Uiso   1.00
C95    C     0.75903   0.18984   0.61394   0.00000  Uiso   1.00
C96    C     0.76586   0.12779   0.54918   0.00000  Uiso   1.00
C97    C     0.74059   0.03320   0.46017   0.00000  Uiso   1.00
C98    C     0.93007   0.23363   0.68632   0.00000  Uiso   1.00
C99    C     0.92729   0.23986   0.75603   0.00000  Uiso   1.00
C100   C     0.01107   0.20069   0.75623   0.00000  Uiso   1.00
C101   C     0.12772   0.14832   0.78706   0.00000  Uiso   1.00
C102   C     0.87693   0.31960   0.63899   0.00000  Uiso   1.00
C103   C     0.82949   0.39813   0.66891   0.00000  Uiso   1.00
C104   C     0.86854   0.43134   0.62927   0.00000  Uiso   1.00
C105   C     0.90268   0.51246   0.58661   0.00000  Uiso   1.00
C106   C     0.00049   0.19101   0.54947   0.00000  Uiso   1.00
C107   C     0.92216   0.16266   0.54202   0.00000  Uiso   1.00
C108   C     0.92911   0.10062   0.47722   0.00000  Uiso   1.00
C109   C     0.84951   0.08391   0.48193   0.00000  Uiso   1.00
C110   C     0.01356   0.18983   0.61920   0.00000  Uiso   1.00
C111   C     0.09736   0.15064   0.61930   0.00000  Uiso   1.00
C112   C     0.09472   0.15681   0.68899   0.00000  Uiso   1.00
C113   C     0.96042   0.27580   0.57186   0.00000  Uiso   1.00
C114   C     0.99956   0.30890   0.53218   0.00000  Uiso   1.00
C115   C     0.95219   0.38746   0.56202   0.00000  Uiso   1.00
H116   H     0.78177   0.30575   0.72530   0.00000  Uiso   1.00
H117   H     0.69443   0.22375   0.66590   0.00000  Uiso   1.00
H118   H     0.86267   0.27377   0.80796   0.00000  Uiso   1.00
H119   H     0.76488   0.43200   0.72085   0.00000  Uiso   1.00
H120   H     0.63444   0.11349   0.57045   0.00000  Uiso   1.00
H121   H     0.98918   0.21898   0.87000   0.00000  Uiso   1.00
H122   H     0.78297   0.55266   0.68631   0.00000  Uiso   1.00
H123   H     0.06550   0.15691   0.49721   0.00000  Uiso   1.00
H124   H     0.99373   0.06674   0.42528   0.00000  Uiso   1.00
H125   H     0.16197   0.11675   0.56735   0.00000  Uiso   1.00
H126   H     0.06417   0.27499   0.48024   0.00000  Uiso   1.00
H127   H     0.87736   0.98606   0.37516   0.00000  Uiso   1.00
H128   H     0.23210   0.09155   0.67471   0.00000  Uiso   1.00
H129   H     0.02589   0.42522   0.49102   0.00000  Uiso   1.00
O130   O     0.70358   0.99312   0.42962   0.00000  Uiso   1.00
O131   O     0.16899   0.13153   0.82262   0.00000  Uiso   1.00
O132   O     0.89844   0.56931   0.58162   0.00000  Uiso   1.00
N133   N     0.70146   0.09589   0.53436   0.00000  Uiso   1.00
N134   N     0.03311   0.19450   0.81441   0.00000  Uiso   1.00
N135   N     0.84033   0.50646   0.64269   0.00000  Uiso   1.00
N136   N     0.83217   0.02731   0.42927   0.00000  Uiso   1.00
N137   N     0.16383   0.12593   0.70933   0.00000  Uiso   1.00
N138   N     0.97105   0.43789   0.53760   0.00000  Uiso   1.00
C139   C     0.48150   0.67843   0.39846   0.00000  Uiso   1.00
C140   C     0.55264   0.61471   0.39943   0.00000  Uiso   1.00
C141   C     0.62724   0.62008   0.42035   0.00000  Uiso   1.00
C142   C     0.68434   0.55540   0.41741   0.00000  Uiso   1.00
C143   C     0.79735   0.46676   0.42245   0.00000  Uiso   1.00
C144   C     0.38454   0.69110   0.45005   0.00000  Uiso   1.00
C145   C     0.31781   0.76070   0.51353   0.00000  Uiso   1.00
C146   C     0.23341   0.76032   0.55319   0.00000  Uiso   1.00
C147   C     0.08542   0.79029   0.63680   0.00000  Uiso   1.00
C148   C     0.48591   0.64421   0.31684   0.00000  Uiso   1.00
C149   C     0.50438   0.67438   0.26831   0.00000  Uiso   1.00
C150   C     0.50530   0.63453   0.19583   0.00000  Uiso   1.00
C151   C     0.51470   0.59168   0.07259   0.00000  Uiso   1.00
C152   C     0.45027   0.55401   0.35603   0.00000  Uiso   1.00
C153   C     0.53567   0.54713   0.37638   0.00000  Uiso   1.00
C154   C     0.59268   0.48242   0.37341   0.00000  Uiso   1.00
C155   C     0.66735   0.48770   0.39432   0.00000  Uiso   1.00
C156   C     0.36758   0.62353   0.42701   0.00000  Uiso   1.00
C157   C     0.28325   0.62304   0.46659   0.00000  Uiso   1.00
C158   C     0.21641   0.69262   0.53011   0.00000  Uiso   1.00
C159   C     0.46895   0.57662   0.29379   0.00000  Uiso   1.00
C160   C     0.46983   0.53672   0.22137   0.00000  Uiso   1.00
C161   C     0.48830   0.56683   0.17274   0.00000  Uiso   1.00
H162   H     0.49470   0.73104   0.41641   0.00000  Uiso   1.00
H163   H     0.64034   0.67240   0.43819   0.00000  Uiso   1.00
H164   H     0.33095   0.81299   0.53135   0.00000  Uiso   1.00
H165   H     0.51750   0.72668   0.28617   0.00000  Uiso   1.00
H166   H     0.79430   0.57758   0.45220   0.00000  Uiso   1.00
H167   H     0.14194   0.87404   0.64861   0.00000  Uiso   1.00
H168   H     0.53530   0.69204   0.13160   0.00000  Uiso   1.00
H169   H     0.43706   0.50139   0.33809   0.00000  Uiso   1.00
H170   H     0.57953   0.43014   0.35557   0.00000  Uiso   1.00
H171   H     0.27015   0.57074   0.44873   0.00000  Uiso   1.00
H172   H     0.45670   0.48442   0.20355   0.00000  Uiso   1.00
H173   H     0.74494   0.38095   0.38515   0.00000  Uiso   1.00
H174   H     0.09258   0.67742   0.58156   0.00000  Uiso   1.00
H175   H     0.48595   0.49541   0.06455   0.00000  Uiso   1.00
O176   O     0.86437   0.43654   0.43161   0.00000  Uiso   1.00
O177   O     0.00849   0.82549   0.68929   0.00000  Uiso   1.00
O178   O     0.52458   0.58671   0.01098   0.00000  Uiso   1.00
N179   N     0.76314   0.54107   0.43400   0.00000  Uiso   1.00
N180   N     0.15323   0.81825   0.61765   0.00000  Uiso   1.00
N181   N     0.52097   0.64810   0.13429   0.00000  Uiso   1.00
N182   N     0.73658   0.43527   0.39792   0.00000  Uiso   1.00
N183   N     0.12667   0.71244   0.58157   0.00000  Uiso   1.00
N184   N     0.49441   0.54230   0.09821   0.00000  Uiso   1.00
C185   C     0.88021   0.60681   0.27575   0.00000  Uiso   1.00
C186   C     0.95302   0.60633   0.21096   0.00000  Uiso   1.00
C187   C     0.04841   0.58597   0.19498   0.00000  Uiso   1.00
C188   C     0.10330   0.58930   0.13321   0.00000  Uiso   1.00
C189   C     0.22233   0.58504   0.03929   0.00000  Uiso   1.00
C190   C     0.83465   0.55463   0.23732   0.00000  Uiso   1.00
C191   C     0.83050   0.49081   0.24351   0.00000  Uiso   1.00
C192   C     0.78573   0.45062   0.20393   0.00000  Uiso   1.00
C193   C     0.72092   0.36613   0.15099   0.00000  Uiso   1.00
C194   C     0.80354   0.68831   0.32326   0.00000  Uiso   1.00
C195   C     0.77320   0.73689   0.40173   0.00000  Uiso   1.00
C196   C     0.70223   0.80924   0.43452   0.00000  Uiso   1.00
C197   C     0.58911   0.93230   0.51502   0.00000  Uiso   1.00
C198   C     0.80809   0.64890   0.19447   0.00000  Uiso   1.00
C199   C     0.91385   0.62919   0.16681   0.00000  Uiso   1.00
C200   C     0.96861   0.63255   0.10505   0.00000  Uiso   1.00
C201   C     0.06406   0.61220   0.08898   0.00000  Uiso   1.00
C202   C     0.79547   0.57749   0.19317   0.00000  Uiso   1.00
C203   C     0.75070   0.53738   0.15358   0.00000  Uiso   1.00
C204   C     0.74649   0.47352   0.15970   0.00000  Uiso   1.00
C205   C     0.76436   0.71117   0.27911   0.00000  Uiso   1.00
C206   C     0.69341   0.78346   0.31179   0.00000  Uiso   1.00
C207   C     0.66298   0.83214   0.39029   0.00000  Uiso   1.00
H208   H     0.91071   0.58900   0.31012   0.00000  Uiso   1.00
H209   H     0.07870   0.56828   0.22915   0.00000  Uiso   1.00
H210   H     0.86081   0.47314   0.27769   0.00000  Uiso   1.00
H211   H     0.80354   0.71917   0.43587   0.00000  Uiso   1.00
H212   H     0.24768   0.55535   0.11990   0.00000  Uiso   1.00
H213   H     0.78822   0.35476   0.22225   0.00000  Uiso   1.00
H214   H     0.66744   0.87358   0.55583   0.00000  Uiso   1.00
H215   H     0.77758   0.66670   0.16009   0.00000  Uiso   1.00
H216   H     0.93827   0.65024   0.07089   0.00000  Uiso   1.00
H217   H     0.72039   0.55510   0.11942   0.00000  Uiso   1.00
H218   H     0.66311   0.80113   0.27761   0.00000  Uiso   1.00
H219   H     0.13371   0.62187   0.99144   0.00000  Uiso   1.00
H220   H     0.67425   0.42128   0.09380   0.00000  Uiso   1.00
H221   H     0.55347   0.94010   0.42737   0.00000  Uiso   1.00
O222   O     0.29881   0.57636   0.99968   0.00000  Uiso   1.00
O223   O     0.69600   0.31320   0.13398   0.00000  Uiso   1.00
O224   O     0.53755   0.99387   0.57162   0.00000  Uiso   1.00
N225   N     0.19880   0.57328   0.10192   0.00000  Uiso   1.00
N226   N     0.76925   0.38573   0.19760   0.00000  Uiso   1.00
N227   N     0.65631   0.87077   0.50947   0.00000  Uiso   1.00
N228   N     0.13747   0.60908   0.03280   0.00000  Uiso   1.00
N229   N     0.70792   0.42153   0.12848   0.00000  Uiso   1.00
N230   N     0.59499   0.90657   0.44035   0.00000  Uiso   1.00
C231   C     0.15323   0.72835   0.32696   0.00000  Uiso   1.00
C232   C     0.16134   0.79354   0.39086   0.00000  Uiso   1.00
C233   C     0.24097   0.81016   0.38606   0.00000  Uiso   1.00
C234   C     0.23414   0.87221   0.45083   0.00000  Uiso   1.00
C235   C     0.25941   0.96680   0.53983   0.00000  Uiso   1.00
C236   C     0.06993   0.76637   0.31368   0.00000  Uiso   1.00
C237   C     0.07271   0.76014   0.24397   0.00000  Uiso   1.00
C238   C     0.98893   0.79931   0.24377   0.00000  Uiso   1.00
C239   C     0.87228   0.85168   0.21294   0.00000  Uiso   1.00
C240   C     0.12307   0.68040   0.36101   0.00000  Uiso   1.00
C241   C     0.17051   0.60187   0.33110   0.00000  Uiso   1.00
C242   C     0.13146   0.56866   0.37073   0.00000  Uiso   1.00
C243   C     0.09732   0.48754   0.41339   0.00000  Uiso   1.00
C244   C     0.99951   0.80899   0.45053   0.00000  Uiso   1.00
C245   C     0.07784   0.83734   0.45798   0.00000  Uiso   1.00
C246   C     0.07089   0.89938   0.52278   0.00000  Uiso   1.00
C247   C     0.15049   0.91609   0.51807   0.00000  Uiso   1.00
C248   C     0.98644   0.81017   0.38080   0.00000  Uiso   1.00
C249   C     0.90264   0.84936   0.38070   0.00000  Uiso   1.00
C250   C     0.90528   0.84319   0.31101   0.00000  Uiso   1.00
C251   C     0.03958   0.72420   0.42814   0.00000  Uiso   1.00
C252   C     0.00044   0.69110   0.46782   0.00000  Uiso   1.00
C253   C     0.04781   0.61254   0.43798   0.00000  Uiso   1.00
H254   H     0.21823   0.69425   0.27470   0.00000  Uiso   1.00
H255   H     0.30557   0.77625   0.33410   0.00000  Uiso   1.00
H256   H     0.13733   0.72623   0.19204   0.00000  Uiso   1.00
H257   H     0.23512   0.56800   0.27915   0.00000  Uiso   1.00
H258   H     0.36556   0.88651   0.42955   0.00000  Uiso   1.00
H259   H     0.01082   0.78102   0.13000   0.00000  Uiso   1.00
H260   H     0.21703   0.44734   0.31369   0.00000  Uiso   1.00
H261   H     0.93450   0.84309   0.50279   0.00000  Uiso   1.00
H262   H     0.00627   0.93326   0.57472   0.00000  Uiso   1.00
H263   H     0.83803   0.88325   0.43265   0.00000  Uiso   1.00
H264   H     0.93583   0.72501   0.51976   0.00000  Uiso   1.00
H265   H     0.12264   0.01394   0.62484   0.00000  Uiso   1.00
H266   H     0.76790   0.90845   0.32529   0.00000  Uiso   1.00
H267   H     0.97411   0.57478   0.50898   0.00000  Uiso   1.00
O268   O     0.29642   0.00688   0.57038   0.00000  Uiso   1.00
O269   O     0.83101   0.86847   0.17738   0.00000  Uiso   1.00
O270   O     0.10156   0.43070   0.41838   0.00000  Uiso   1.00
N271   N     0.29854   0.90411   0.46564   0.00000  Uiso   1.00
N272   N     0.96689   0.80550   0.18559   0.00000  Uiso   1.00
N273   N     0.15967   0.49354   0.35731   0.00000  Uiso   1.00
N274   N     0.16783   0.97269   0.57073   0.00000  Uiso   1.00
N275   N     0.83617   0.87407   0.29067   0.00000  Uiso   1.00
N276   N     0.02895   0.56211   0.46240   0.00000  Uiso   1.00
