data_job_03855
_audit_creation_date              2018-12-19
_audit_creation_method            'Materials Studio'
_symmetry_space_group_name_H-M    'P1'
_symmetry_Int_Tables_number       1
_symmetry_cell_setting            triclinic
loop_
_symmetry_equiv_pos_as_xyz
  x,y,z
_cell_length_a                    17.9820
_cell_length_b                    31.3102
_cell_length_c                    13.1232
_cell_angle_alpha                 90.0000
_cell_angle_beta                  149.5430
_cell_angle_gamma                 90.0000
loop_
_atom_site_label
_atom_site_type_symbol
_atom_site_fract_x
_atom_site_fract_y
_atom_site_fract_z
_atom_site_U_iso_or_equiv
_atom_site_adp_type
_atom_site_occupancy
C1     C     0.07329   0.16158   0.33101   0.00000  Uiso   1.00
C2     C     0.90811   0.15965   0.15376   0.00000  Uiso   1.00
C3     C     0.80393   0.14692   0.95982   0.00000  Uiso   1.00
C4     C     0.65836   0.14738   0.81901   0.00000  Uiso   1.00
C5     C     0.40793   0.14247   0.53592   0.00000  Uiso   1.00
C6     C     0.11913   0.20734   0.40900   0.00000  Uiso   1.00
C7     C     0.19238   0.23471   0.42970   0.00000  Uiso   1.00
C8     C     0.22446   0.27532   0.50378   0.00000  Uiso   1.00
C9     C     0.30172   0.34443   0.61711   0.00000  Uiso   1.00
C10    C     0.14244   0.13384   0.49522   0.00000  Uiso   1.00
C11    C     0.23532   0.09940   0.58846   0.00000  Uiso   1.00
C12    C     0.28706   0.07813   0.73516   0.00000  Uiso   1.00
C13    C     0.40051   0.03312   0.98236   0.00000  Uiso   1.00
C14    C     0.00004   0.18505   0.42580   0.00000  Uiso   1.00
C15    C     0.86833   0.17240   0.20525   0.00000  Uiso   1.00
C16    C     0.72288   0.17288   0.06470   0.00000  Uiso   1.00
C17    C     0.61850   0.16015   0.87058   0.00000  Uiso   1.00
C18    C     0.07934   0.22009   0.46049   0.00000  Uiso   1.00
C19    C     0.11133   0.26067   0.53457   0.00000  Uiso   1.00
C20    C     0.18460   0.28809   0.55536   0.00000  Uiso   1.00
C21    C     0.10265   0.14658   0.54671   0.00000  Uiso   1.00
C22    C     0.15426   0.12536   0.69332   0.00000  Uiso   1.00
C23    C     0.24720   0.09090   0.78675   0.00000  Uiso   1.00
H24    H     0.10428   0.15166   0.29093   0.00000  Uiso   1.00
H25    H     0.83477   0.13706   0.92003   0.00000  Uiso   1.00
H26    H     0.22317   0.22483   0.38986   0.00000  Uiso   1.00
H27    H     0.26609   0.08955   0.54858   0.00000  Uiso   1.00
H28    H     0.51841   0.12651   0.53151   0.00000  Uiso   1.00
H29    H     0.33742   0.31158   0.52223   0.00000  Uiso   1.00
H30    H     0.42794   0.02630   0.85692   0.00000  Uiso   1.00
H31    H     0.96906   0.19497   0.46589   0.00000  Uiso   1.00
H32    H     0.69212   0.18274   0.10458   0.00000  Uiso   1.00
H33    H     0.08053   0.27052   0.57441   0.00000  Uiso   1.00
H34    H     0.12345   0.13523   0.73312   0.00000  Uiso   1.00
H35    H     0.40264   0.16359   0.68129   0.00000  Uiso   1.00
H36    H     0.22165   0.34866   0.67202   0.00000  Uiso   1.00
H37    H     0.31217   0.06338   0.00671   0.00000  Uiso   1.00
O38    O     0.28078   0.13624   0.36555   0.00000  Uiso   1.00
O39    O     0.35531   0.37904   0.66537   0.00000  Uiso   1.00
O40    O     0.47407   0.00476   0.10446   0.00000  Uiso   1.00
N41    N     0.52917   0.13691   0.61636   0.00000  Uiso   1.00
N42    N     0.29488   0.30994   0.54259   0.00000  Uiso   1.00
N43    N     0.37954   0.04324   0.85554   0.00000  Uiso   1.00
N44    N     0.46687   0.15686   0.69695   0.00000  Uiso   1.00
N45    N     0.23258   0.32989   0.62319   0.00000  Uiso   1.00
N46    N     0.31724   0.06319   0.93613   0.00000  Uiso   1.00
C47    C     0.92671   0.66158   0.16899   0.00000  Uiso   1.00
C48    C     0.09189   0.65965   0.34624   0.00000  Uiso   1.00
C49    C     0.19607   0.64692   0.54018   0.00000  Uiso   1.00
C50    C     0.34164   0.64738   0.68099   0.00000  Uiso   1.00
C51    C     0.59207   0.64247   0.96408   0.00000  Uiso   1.00
C52    C     0.88087   0.70734   0.09100   0.00000  Uiso   1.00
C53    C     0.80762   0.73471   0.07030   0.00000  Uiso   1.00
C54    C     0.77554   0.77532   0.99622   0.00000  Uiso   1.00
C55    C     0.69828   0.84443   0.88289   0.00000  Uiso   1.00
C56    C     0.85756   0.63384   0.00478   0.00000  Uiso   1.00
C57    C     0.76468   0.59940   0.91154   0.00000  Uiso   1.00
C58    C     0.71294   0.57813   0.76484   0.00000  Uiso   1.00
C59    C     0.59949   0.53312   0.51764   0.00000  Uiso   1.00
C60    C     0.99996   0.68505   0.07420   0.00000  Uiso   1.00
C61    C     0.13167   0.67240   0.29475   0.00000  Uiso   1.00
C62    C     0.27712   0.67288   0.43530   0.00000  Uiso   1.00
C63    C     0.38150   0.66015   0.62942   0.00000  Uiso   1.00
C64    C     0.92066   0.72009   0.03951   0.00000  Uiso   1.00
C65    C     0.88867   0.76067   0.96543   0.00000  Uiso   1.00
C66    C     0.81540   0.78809   0.94464   0.00000  Uiso   1.00
C67    C     0.89735   0.64658   0.95329   0.00000  Uiso   1.00
C68    C     0.84574   0.62536   0.80668   0.00000  Uiso   1.00
C69    C     0.75280   0.59090   0.71325   0.00000  Uiso   1.00
H70    H     0.89572   0.65166   0.20907   0.00000  Uiso   1.00
H71    H     0.16523   0.63706   0.57997   0.00000  Uiso   1.00
H72    H     0.77683   0.72483   0.11014   0.00000  Uiso   1.00
H73    H     0.73391   0.58955   0.95142   0.00000  Uiso   1.00
H74    H     0.48159   0.62651   0.96849   0.00000  Uiso   1.00
H75    H     0.66258   0.81158   0.97777   0.00000  Uiso   1.00
H76    H     0.57206   0.52630   0.64308   0.00000  Uiso   1.00
H77    H     0.03094   0.69497   0.03411   0.00000  Uiso   1.00
H78    H     0.30788   0.68274   0.39542   0.00000  Uiso   1.00
H79    H     0.91947   0.77052   0.92559   0.00000  Uiso   1.00
H80    H     0.87655   0.63523   0.76688   0.00000  Uiso   1.00
H81    H     0.59736   0.66359   0.81871   0.00000  Uiso   1.00
H82    H     0.77835   0.84866   0.82798   0.00000  Uiso   1.00
H83    H     0.68783   0.56338   0.49329   0.00000  Uiso   1.00
O84    O     0.71922   0.63624   0.13445   0.00000  Uiso   1.00
O85    O     0.64469   0.87904   0.83463   0.00000  Uiso   1.00
O86    O     0.52593   0.50476   0.39554   0.00000  Uiso   1.00
N87    N     0.47083   0.63691   0.88364   0.00000  Uiso   1.00
N88    N     0.70512   0.80994   0.95741   0.00000  Uiso   1.00
N89    N     0.62046   0.54324   0.64446   0.00000  Uiso   1.00
N90    N     0.53313   0.65686   0.80305   0.00000  Uiso   1.00
N91    N     0.76742   0.82989   0.87681   0.00000  Uiso   1.00
N92    N     0.68276   0.56319   0.56387   0.00000  Uiso   1.00
C93    C     0.92671   0.83842   0.66899   0.00000  Uiso   1.00
C94    C     0.09189   0.84035   0.84624   0.00000  Uiso   1.00
C95    C     0.19607   0.85308   0.04018   0.00000  Uiso   1.00
C96    C     0.34164   0.85262   0.18099   0.00000  Uiso   1.00
C97    C     0.59207   0.85753   0.46408   0.00000  Uiso   1.00
C98    C     0.88087   0.79266   0.59100   0.00000  Uiso   1.00
C99    C     0.80762   0.76529   0.57030   0.00000  Uiso   1.00
C100   C     0.77554   0.72468   0.49622   0.00000  Uiso   1.00
C101   C     0.69828   0.65557   0.38289   0.00000  Uiso   1.00
C102   C     0.85756   0.86616   0.50478   0.00000  Uiso   1.00
C103   C     0.76468   0.90060   0.41154   0.00000  Uiso   1.00
C104   C     0.71294   0.92187   0.26484   0.00000  Uiso   1.00
C105   C     0.59949   0.96688   0.01764   0.00000  Uiso   1.00
C106   C     0.99996   0.81495   0.57420   0.00000  Uiso   1.00
C107   C     0.13167   0.82760   0.79475   0.00000  Uiso   1.00
C108   C     0.27712   0.82712   0.93530   0.00000  Uiso   1.00
C109   C     0.38150   0.83985   0.12942   0.00000  Uiso   1.00
C110   C     0.92066   0.77991   0.53951   0.00000  Uiso   1.00
C111   C     0.88867   0.73933   0.46543   0.00000  Uiso   1.00
C112   C     0.81540   0.71191   0.44464   0.00000  Uiso   1.00
C113   C     0.89735   0.85342   0.45329   0.00000  Uiso   1.00
C114   C     0.84574   0.87464   0.30668   0.00000  Uiso   1.00
C115   C     0.75280   0.90910   0.21325   0.00000  Uiso   1.00
H116   H     0.89572   0.84834   0.70907   0.00000  Uiso   1.00
H117   H     0.16523   0.86294   0.07997   0.00000  Uiso   1.00
H118   H     0.77683   0.77517   0.61014   0.00000  Uiso   1.00
H119   H     0.73391   0.91045   0.45142   0.00000  Uiso   1.00
H120   H     0.48159   0.87349   0.46849   0.00000  Uiso   1.00
H121   H     0.66258   0.68842   0.47777   0.00000  Uiso   1.00
H122   H     0.57206   0.97370   0.14308   0.00000  Uiso   1.00
H123   H     0.03094   0.80503   0.53411   0.00000  Uiso   1.00
H124   H     0.30788   0.81726   0.89542   0.00000  Uiso   1.00
H125   H     0.91947   0.72948   0.42559   0.00000  Uiso   1.00
H126   H     0.87655   0.86477   0.26688   0.00000  Uiso   1.00
H127   H     0.59736   0.83641   0.31871   0.00000  Uiso   1.00
H128   H     0.77835   0.65134   0.32798   0.00000  Uiso   1.00
H129   H     0.68783   0.93662   0.99329   0.00000  Uiso   1.00
O130   O     0.71922   0.86376   0.63445   0.00000  Uiso   1.00
O131   O     0.64469   0.62096   0.33463   0.00000  Uiso   1.00
O132   O     0.52593   0.99524   0.89554   0.00000  Uiso   1.00
N133   N     0.47083   0.86309   0.38364   0.00000  Uiso   1.00
N134   N     0.70512   0.69006   0.45741   0.00000  Uiso   1.00
N135   N     0.62046   0.95676   0.14446   0.00000  Uiso   1.00
N136   N     0.53313   0.84314   0.30305   0.00000  Uiso   1.00
N137   N     0.76742   0.67011   0.37681   0.00000  Uiso   1.00
N138   N     0.68276   0.93681   0.06387   0.00000  Uiso   1.00
C139   C     0.07329   0.33842   0.83101   0.00000  Uiso   1.00
C140   C     0.90811   0.34035   0.65376   0.00000  Uiso   1.00
C141   C     0.80393   0.35308   0.45982   0.00000  Uiso   1.00
C142   C     0.65836   0.35262   0.31901   0.00000  Uiso   1.00
C143   C     0.40793   0.35753   0.03592   0.00000  Uiso   1.00
C144   C     0.11913   0.29266   0.90900   0.00000  Uiso   1.00
C145   C     0.19238   0.26529   0.92970   0.00000  Uiso   1.00
C146   C     0.22446   0.22468   0.00378   0.00000  Uiso   1.00
C147   C     0.30172   0.15557   0.11711   0.00000  Uiso   1.00
C148   C     0.14244   0.36616   0.99522   0.00000  Uiso   1.00
C149   C     0.23532   0.40060   0.08846   0.00000  Uiso   1.00
C150   C     0.28706   0.42187   0.23516   0.00000  Uiso   1.00
C151   C     0.40051   0.46688   0.48236   0.00000  Uiso   1.00
C152   C     0.00004   0.31495   0.92580   0.00000  Uiso   1.00
C153   C     0.86833   0.32760   0.70525   0.00000  Uiso   1.00
C154   C     0.72288   0.32712   0.56470   0.00000  Uiso   1.00
C155   C     0.61850   0.33985   0.37058   0.00000  Uiso   1.00
C156   C     0.07934   0.27991   0.96049   0.00000  Uiso   1.00
C157   C     0.11133   0.23933   0.03457   0.00000  Uiso   1.00
C158   C     0.18460   0.21191   0.05536   0.00000  Uiso   1.00
C159   C     0.10265   0.35342   0.04671   0.00000  Uiso   1.00
C160   C     0.15426   0.37464   0.19332   0.00000  Uiso   1.00
C161   C     0.24720   0.40910   0.28675   0.00000  Uiso   1.00
H162   H     0.10428   0.34834   0.79093   0.00000  Uiso   1.00
H163   H     0.83477   0.36294   0.42003   0.00000  Uiso   1.00
H164   H     0.22317   0.27517   0.88986   0.00000  Uiso   1.00
H165   H     0.26609   0.41045   0.04858   0.00000  Uiso   1.00
H166   H     0.51841   0.37349   0.03151   0.00000  Uiso   1.00
H167   H     0.33742   0.18842   0.02223   0.00000  Uiso   1.00
H168   H     0.42794   0.47370   0.35692   0.00000  Uiso   1.00
H169   H     0.96906   0.30503   0.96589   0.00000  Uiso   1.00
H170   H     0.69212   0.31726   0.60458   0.00000  Uiso   1.00
H171   H     0.08053   0.22948   0.07441   0.00000  Uiso   1.00
H172   H     0.12345   0.36477   0.23312   0.00000  Uiso   1.00
H173   H     0.40264   0.33641   0.18129   0.00000  Uiso   1.00
H174   H     0.22165   0.15134   0.17202   0.00000  Uiso   1.00
H175   H     0.31217   0.43662   0.50671   0.00000  Uiso   1.00
O176   O     0.28078   0.36376   0.86555   0.00000  Uiso   1.00
O177   O     0.35531   0.12096   0.16537   0.00000  Uiso   1.00
O178   O     0.47407   0.49524   0.60446   0.00000  Uiso   1.00
N179   N     0.52917   0.36309   0.11636   0.00000  Uiso   1.00
N180   N     0.29488   0.19006   0.04259   0.00000  Uiso   1.00
N181   N     0.37954   0.45676   0.35554   0.00000  Uiso   1.00
N182   N     0.46687   0.34314   0.19695   0.00000  Uiso   1.00
N183   N     0.23258   0.17011   0.12319   0.00000  Uiso   1.00
N184   N     0.31724   0.43681   0.43613   0.00000  Uiso   1.00
