data_job_06711
_audit_creation_date              2018-12-19
_audit_creation_method            'Materials Studio'
_symmetry_space_group_name_H-M    'P1'
_symmetry_Int_Tables_number       1
_symmetry_cell_setting            triclinic
loop_
_symmetry_equiv_pos_as_xyz
  x,y,z
_cell_length_a                    15.8639
_cell_length_b                    19.3314
_cell_length_c                    27.2568
_cell_angle_alpha                 97.0312
_cell_angle_beta                  92.1961
_cell_angle_gamma                 72.7146
loop_
_atom_site_label
_atom_site_type_symbol
_atom_site_fract_x
_atom_site_fract_y
_atom_site_fract_z
_atom_site_U_iso_or_equiv
_atom_site_adp_type
_atom_site_occupancy
C1     C     0.06314   0.58243   0.20662   0.00000  Uiso   1.00
C2     C     0.98898   0.56910   0.17310   0.00000  Uiso   1.00
C3     C     0.90091   0.61037   0.17620   0.00000  Uiso   1.00
C4     C     0.84328   0.58930   0.14213   0.00000  Uiso   1.00
C5     C     0.72363   0.57773   0.09556   0.00000  Uiso   1.00
C6     C     0.10506   0.51154   0.22903   0.00000  Uiso   1.00
C7     C     0.11460   0.50443   0.27915   0.00000  Uiso   1.00
C8     C     0.15471   0.43491   0.29216   0.00000  Uiso   1.00
C9     C     0.21534   0.33400   0.33242   0.00000  Uiso   1.00
C10    C     0.13259   0.59070   0.17247   0.00000  Uiso   1.00
C11    C     0.16530   0.65014   0.17505   0.00000  Uiso   1.00
C12    C     0.22861   0.64726   0.14045   0.00000  Uiso   1.00
C13    C     0.33198   0.66926   0.09289   0.00000  Uiso   1.00
C14    C     0.11743   0.47162   0.14059   0.00000  Uiso   1.00
C15    C     0.01846   0.50891   0.13724   0.00000  Uiso   1.00
C16    C     0.96096   0.48777   0.10315   0.00000  Uiso   1.00
C17    C     0.87282   0.52900   0.10620   0.00000  Uiso   1.00
C18    C     0.13455   0.45136   0.19317   0.00000  Uiso   1.00
C19    C     0.17466   0.38183   0.20610   0.00000  Uiso   1.00
C20    C     0.18425   0.37461   0.25623   0.00000  Uiso   1.00
C21    C     0.16208   0.53052   0.13661   0.00000  Uiso   1.00
C22    C     0.22535   0.52754   0.10200   0.00000  Uiso   1.00
C23    C     0.25815   0.58696   0.10452   0.00000  Uiso   1.00
H24    H     0.04019   0.62928   0.23454   0.00000  Uiso   1.00
H25    H     0.87811   0.65694   0.20397   0.00000  Uiso   1.00
H26    H     0.09178   0.55102   0.30690   0.00000  Uiso   1.00
H27    H     0.14247   0.69670   0.20281   0.00000  Uiso   1.00
H28    H     0.71141   0.66104   0.15427   0.00000  Uiso   1.00
H29    H     0.16198   0.43770   0.37130   0.00000  Uiso   1.00
H30    H     0.26887   0.74492   0.15181   0.00000  Uiso   1.00
H31    H     0.14039   0.42476   0.11267   0.00000  Uiso   1.00
H32    H     0.98380   0.44119   0.07540   0.00000  Uiso   1.00
H33    H     0.19747   0.33527   0.17834   0.00000  Uiso   1.00
H34    H     0.24816   0.48096   0.07425   0.00000  Uiso   1.00
H35    H     0.79719   0.48593   0.04992   0.00000  Uiso   1.00
H36    H     0.24776   0.26260   0.26696   0.00000  Uiso   1.00
H37    H     0.35464   0.56981   0.04747   0.00000  Uiso   1.00
O38    O     0.64948   0.58797   0.07979   0.00000  Uiso   1.00
O39    O     0.24062   0.29497   0.36453   0.00000  Uiso   1.00
O40    O     0.38085   0.69802   0.07657   0.00000  Uiso   1.00
N41    N     0.75309   0.61758   0.13481   0.00000  Uiso   1.00
N42    N     0.17433   0.40877   0.33773   0.00000  Uiso   1.00
N43    N     0.27428   0.69598   0.13254   0.00000  Uiso   1.00
N44    N     0.79925   0.52336   0.07867   0.00000  Uiso   1.00
N45    N     0.22049   0.31455   0.28159   0.00000  Uiso   1.00
N46    N     0.32044   0.60176   0.07639   0.00000  Uiso   1.00
C47    C     0.59255   0.64710   0.29053   0.00000  Uiso   1.00
C48    C     0.59705   0.69397   0.25016   0.00000  Uiso   1.00
C49    C     0.64848   0.74104   0.25145   0.00000  Uiso   1.00
C50    C     0.64332   0.77908   0.21086   0.00000  Uiso   1.00
C51    C     0.65858   0.85323   0.15434   0.00000  Uiso   1.00
C52    C     0.49548   0.66752   0.30480   0.00000  Uiso   1.00
C53    C     0.46152   0.69234   0.35203   0.00000  Uiso   1.00
C54    C     0.37086   0.70810   0.35744   0.00000  Uiso   1.00
C55    C     0.22845   0.74113   0.38575   0.00000  Uiso   1.00
C56    C     0.61617   0.56874   0.26566   0.00000  Uiso   1.00
C57    C     0.68366   0.51049   0.27999   0.00000  Uiso   1.00
C58    C     0.69460   0.44308   0.25246   0.00000  Uiso   1.00
C59    C     0.73957   0.32273   0.22000   0.00000  Uiso   1.00
C60    C     0.49194   0.63095   0.21615   0.00000  Uiso   1.00
C61    C     0.54240   0.68520   0.20976   0.00000  Uiso   1.00
C62    C     0.53717   0.72317   0.16916   0.00000  Uiso   1.00
C63    C     0.58858   0.77029   0.17039   0.00000  Uiso   1.00
C64    C     0.44084   0.65875   0.26440   0.00000  Uiso   1.00
C65    C     0.35021   0.67447   0.26974   0.00000  Uiso   1.00
C66    C     0.31612   0.69932   0.31697   0.00000  Uiso   1.00
C67    C     0.56152   0.55997   0.22526   0.00000  Uiso   1.00
C68    C     0.57235   0.49263   0.19771   0.00000  Uiso   1.00
C69    C     0.63985   0.43429   0.21199   0.00000  Uiso   1.00
H70    H     0.63509   0.65393   0.32198   0.00000  Uiso   1.00
H71    H     0.69075   0.74782   0.28272   0.00000  Uiso   1.00
H72    H     0.50383   0.69912   0.38328   0.00000  Uiso   1.00
H73    H     0.72594   0.51730   0.31126   0.00000  Uiso   1.00
H74    H     0.72834   0.84807   0.22139   0.00000  Uiso   1.00
H75    H     0.33420   0.74536   0.43343   0.00000  Uiso   1.00
H76    H     0.80256   0.36196   0.28155   0.00000  Uiso   1.00
H77    H     0.44939   0.62412   0.18470   0.00000  Uiso   1.00
H78    H     0.49487   0.71637   0.13791   0.00000  Uiso   1.00
H79    H     0.30794   0.66767   0.23847   0.00000  Uiso   1.00
H80    H     0.53005   0.48586   0.16645   0.00000  Uiso   1.00
H81    H     0.56935   0.82255   0.10385   0.00000  Uiso   1.00
H82    H     0.17521   0.71983   0.31590   0.00000  Uiso   1.00
H83    H     0.64357   0.33644   0.16402   0.00000  Uiso   1.00
O84    O     0.68209   0.89655   0.13432   0.00000  Uiso   1.00
O85    O     0.16500   0.76178   0.41252   0.00000  Uiso   1.00
O86    O     0.77948   0.25878   0.21325   0.00000  Uiso   1.00
N87    N     0.68470   0.82939   0.20014   0.00000  Uiso   1.00
N88    N     0.31620   0.73337   0.39839   0.00000  Uiso   1.00
N89    N     0.75406   0.37492   0.25641   0.00000  Uiso   1.00
N90    N     0.59915   0.81566   0.13690   0.00000  Uiso   1.00
N91    N     0.23065   0.71964   0.33515   0.00000  Uiso   1.00
N92    N     0.66851   0.36119   0.19316   0.00000  Uiso   1.00
C93    C     0.43556   0.17098   0.17676   0.00000  Uiso   1.00
C94    C     0.52543   0.15179   0.15195   0.00000  Uiso   1.00
C95    C     0.58515   0.08257   0.14411   0.00000  Uiso   1.00
C96    C     0.66379   0.07638   0.12080   0.00000  Uiso   1.00
C97    C     0.80059   0.03733   0.08458   0.00000  Uiso   1.00
C98    C     0.43596   0.22928   0.21977   0.00000  Uiso   1.00
C99    C     0.42044   0.22521   0.26895   0.00000  Uiso   1.00
C100   C     0.42375   0.28426   0.30273   0.00000  Uiso   1.00
C101   C     0.42157   0.36554   0.37180   0.00000  Uiso   1.00
C102   C     0.36823   0.20867   0.13973   0.00000  Uiso   1.00
C103   C     0.29574   0.18729   0.12162   0.00000  Uiso   1.00
C104   C     0.24201   0.22899   0.08801   0.00000  Uiso   1.00
C105   C     0.13468   0.27826   0.03280   0.00000  Uiso   1.00
C106   C     0.46903   0.28306   0.14930   0.00000  Uiso   1.00
C107   C     0.54361   0.21268   0.13705   0.00000  Uiso   1.00
C108   C     0.62217   0.20658   0.11374   0.00000  Uiso   1.00
C109   C     0.68200   0.13737   0.10586   0.00000  Uiso   1.00
C110   C     0.45414   0.29016   0.20487   0.00000  Uiso   1.00
C111   C     0.45746   0.34923   0.23858   0.00000  Uiso   1.00
C112   C     0.44195   0.34525   0.28780   0.00000  Uiso   1.00
C113   C     0.38641   0.26955   0.12482   0.00000  Uiso   1.00
C114   C     0.33277   0.31130   0.09124   0.00000  Uiso   1.00
C115   C     0.26022   0.28998   0.07308   0.00000  Uiso   1.00
H116   H     0.42141   0.12358   0.18837   0.00000  Uiso   1.00
H117   H     0.57107   0.03547   0.15566   0.00000  Uiso   1.00
H118   H     0.40637   0.17810   0.28048   0.00000  Uiso   1.00
H119   H     0.28170   0.14017   0.13316   0.00000  Uiso   1.00
H120   H     0.74501   0.96464   0.11284   0.00000  Uiso   1.00
H121   H     0.39771   0.26538   0.37602   0.00000  Uiso   1.00
H122   H     0.13482   0.18541   0.06538   0.00000  Uiso   1.00
H123   H     0.48318   0.33047   0.13770   0.00000  Uiso   1.00
H124   H     0.63622   0.25371   0.10220   0.00000  Uiso   1.00
H125   H     0.47152   0.39633   0.22703   0.00000  Uiso   1.00
H126   H     0.34686   0.35841   0.07971   0.00000  Uiso   1.00
H127   H     0.79790   0.14177   0.06945   0.00000  Uiso   1.00
H128   H     0.45059   0.44251   0.33264   0.00000  Uiso   1.00
H129   H     0.18770   0.36254   0.02200   0.00000  Uiso   1.00
O130   O     0.87103   0.99898   0.06873   0.00000  Uiso   1.00
O131   O     0.41536   0.39355   0.41402   0.00000  Uiso   1.00
O132   O     0.07046   0.28862   0.00646   0.00000  Uiso   1.00
N133   N     0.73645   0.01686   0.10749   0.00000  Uiso   1.00
N134   N     0.41175   0.29803   0.35355   0.00000  Uiso   1.00
N135   N     0.16596   0.22327   0.06314   0.00000  Uiso   1.00
N136   N     0.76490   0.11217   0.08414   0.00000  Uiso   1.00
N137   N     0.44021   0.39334   0.33021   0.00000  Uiso   1.00
N138   N     0.19441   0.31858   0.03979   0.00000  Uiso   1.00
C139   C     0.36257   0.87052   0.71667   0.00000  Uiso   1.00
C140   C     0.30428   0.83209   0.68542   0.00000  Uiso   1.00
C141   C     0.32265   0.75726   0.67333   0.00000  Uiso   1.00
C142   C     0.26093   0.73288   0.64438   0.00000  Uiso   1.00
C143   C     0.18215   0.66579   0.59835   0.00000  Uiso   1.00
C144   C     0.30488   0.91695   0.75919   0.00000  Uiso   1.00
C145   C     0.32377   0.91349   0.80913   0.00000  Uiso   1.00
C146   C     0.26256   0.96056   0.84228   0.00000  Uiso   1.00
C147   C     0.18475   0.02527   0.91079   0.00000  Uiso   1.00
C148   C     0.38106   0.92401   0.68488   0.00000  Uiso   1.00
C149   C     0.46399   0.92650   0.67234   0.00000  Uiso   1.00
C150   C     0.46692   0.97952   0.64293   0.00000  Uiso   1.00
C151   C     0.50739   0.05519   0.59606   0.00000  Uiso   1.00
C152   C     0.22031   0.96027   0.68674   0.00000  Uiso   1.00
C153   C     0.22701   0.88084   0.66917   0.00000  Uiso   1.00
C154   C     0.16525   0.85656   0.64022   0.00000  Uiso   1.00
C155   C     0.18353   0.78171   0.62809   0.00000  Uiso   1.00
C156   C     0.22761   0.96570   0.74294   0.00000  Uiso   1.00
C157   C     0.16637   0.01279   0.77602   0.00000  Uiso   1.00
C158   C     0.18515   0.00940   0.82599   0.00000  Uiso   1.00
C159   C     0.30379   0.97276   0.66862   0.00000  Uiso   1.00
C160   C     0.30659   0.02580   0.63923   0.00000  Uiso   1.00
C161   C     0.38951   0.02836   0.62665   0.00000  Uiso   1.00
H162   H     0.42273   0.83257   0.72933   0.00000  Uiso   1.00
H163   H     0.38245   0.71955   0.68592   0.00000  Uiso   1.00
H164   H     0.38357   0.87577   0.82170   0.00000  Uiso   1.00
H165   H     0.52377   0.88877   0.68493   0.00000  Uiso   1.00
H166   H     0.30370   0.61576   0.63065   0.00000  Uiso   1.00
H167   H     0.30608   0.94515   0.91695   0.00000  Uiso   1.00
H168   H     0.60173   0.97257   0.62854   0.00000  Uiso   1.00
H169   H     0.16015   0.99822   0.67408   0.00000  Uiso   1.00
H170   H     0.10546   0.89430   0.62764   0.00000  Uiso   1.00
H171   H     0.10658   0.05051   0.76342   0.00000  Uiso   1.00
H172   H     0.24678   0.06351   0.62665   0.00000  Uiso   1.00
H173   H     0.07888   0.75758   0.58335   0.00000  Uiso   1.00
H174   H     0.08127   0.08699   0.86965   0.00000  Uiso   1.00
H175   H     0.37691   0.11440   0.58124   0.00000  Uiso   1.00
O176   O     0.16004   0.61532   0.57746   0.00000  Uiso   1.00
O177   O     0.16318   0.04748   0.95307   0.00000  Uiso   1.00
O178   O     0.55105   0.08345   0.57469   0.00000  Uiso   1.00
N179   N     0.25830   0.66340   0.62588   0.00000  Uiso   1.00
N180   N     0.26053   0.97136   0.89355   0.00000  Uiso   1.00
N181   N     0.53693   0.99701   0.62393   0.00000  Uiso   1.00
N182   N     0.13733   0.73971   0.60043   0.00000  Uiso   1.00
N183   N     0.13955   0.04768   0.86810   0.00000  Uiso   1.00
N184   N     0.41595   0.07332   0.59848   0.00000  Uiso   1.00
C185   C     0.38983   0.41660   0.75846   0.00000  Uiso   1.00
C186   C     0.45492   0.39095   0.71557   0.00000  Uiso   1.00
C187   C     0.53965   0.39764   0.71582   0.00000  Uiso   1.00
C188   C     0.58882   0.37073   0.67290   0.00000  Uiso   1.00
C189   C     0.69513   0.33580   0.61264   0.00000  Uiso   1.00
C190   C     0.36432   0.34972   0.76886   0.00000  Uiso   1.00
C191   C     0.37286   0.32175   0.81393   0.00000  Uiso   1.00
C192   C     0.34575   0.26014   0.81587   0.00000  Uiso   1.00
C193   C     0.31134   0.16123   0.83835   0.00000  Uiso   1.00
C194   C     0.30686   0.46824   0.73841   0.00000  Uiso   1.00
C195   C     0.26708   0.53992   0.75789   0.00000  Uiso   1.00
C196   C     0.19158   0.57809   0.73421   0.00000  Uiso   1.00
C197   C     0.06796   0.66319   0.70942   0.00000  Uiso   1.00
C198   C     0.32649   0.35693   0.68177   0.00000  Uiso   1.00
C199   C     0.42051   0.35853   0.67391   0.00000  Uiso   1.00
C200   C     0.46957   0.33161   0.63098   0.00000  Uiso   1.00
C201   C     0.55436   0.33826   0.63117   0.00000  Uiso   1.00
C202   C     0.32991   0.31731   0.72721   0.00000  Uiso   1.00
C203   C     0.30278   0.25573   0.72908   0.00000  Uiso   1.00
C204   C     0.31128   0.22767   0.77414   0.00000  Uiso   1.00
C205   C     0.27245   0.43583   0.69676   0.00000  Uiso   1.00
C206   C     0.19700   0.47389   0.67304   0.00000  Uiso   1.00
C207   C     0.15711   0.54561   0.69248   0.00000  Uiso   1.00
H208   H     0.41662   0.44184   0.79089   0.00000  Uiso   1.00
H209   H     0.56626   0.42272   0.74807   0.00000  Uiso   1.00
H210   H     0.39948   0.34685   0.84616   0.00000  Uiso   1.00
H211   H     0.29372   0.56498   0.79013   0.00000  Uiso   1.00
H212   H     0.71699   0.38721   0.68223   0.00000  Uiso   1.00
H213   H     0.36532   0.22725   0.88906   0.00000  Uiso   1.00
H214   H     0.14229   0.68722   0.77091   0.00000  Uiso   1.00
H215   H     0.29970   0.33169   0.64934   0.00000  Uiso   1.00
H216   H     0.44292   0.30653   0.59875   0.00000  Uiso   1.00
H217   H     0.27615   0.23066   0.69684   0.00000  Uiso   1.00
H218   H     0.17039   0.44879   0.64081   0.00000  Uiso   1.00
H219   H     0.61690   0.29290   0.56103   0.00000  Uiso   1.00
H220   H     0.26521   0.13294   0.76787   0.00000  Uiso   1.00
H221   H     0.04219   0.59291   0.64971   0.00000  Uiso   1.00
O222   O     0.76328   0.32547   0.59091   0.00000  Uiso   1.00
O223   O     0.30188   0.11562   0.86226   0.00000  Uiso   1.00
O224   O     0.00928   0.71909   0.70725   0.00000  Uiso   1.00
N225   N     0.67377   0.36848   0.66064   0.00000  Uiso   1.00
N226   N     0.34499   0.21892   0.85402   0.00000  Uiso   1.00
N227   N     0.13647   0.64895   0.74356   0.00000  Uiso   1.00
N228   N     0.61991   0.31774   0.59543   0.00000  Uiso   1.00
N229   N     0.29113   0.16817   0.78880   0.00000  Uiso   1.00
N230   N     0.08261   0.59820   0.67835   0.00000  Uiso   1.00
C231   C     0.90346   0.33160   0.81984   0.00000  Uiso   1.00
C232   C     0.81925   0.39102   0.80933   0.00000  Uiso   1.00
C233   C     0.74248   0.41227   0.83719   0.00000  Uiso   1.00
C234   C     0.67271   0.46769   0.82147   0.00000  Uiso   1.00
C235   C     0.54092   0.55496   0.81157   0.00000  Uiso   1.00
C236   C     0.97715   0.36780   0.82404   0.00000  Uiso   1.00
C237   C     0.03313   0.36953   0.86427   0.00000  Uiso   1.00
C238   C     0.09629   0.40539   0.86093   0.00000  Uiso   1.00
C239   C     0.20967   0.45658   0.87385   0.00000  Uiso   1.00
C240   C     0.92264   0.27752   0.77306   0.00000  Uiso   1.00
C241   C     0.93282   0.20333   0.77043   0.00000  Uiso   1.00
C242   C     0.95011   0.16318   0.72417   0.00000  Uiso   1.00
C243   C     0.97887   0.07420   0.65794   0.00000  Uiso   1.00
C244   C     0.91607   0.39221   0.74238   0.00000  Uiso   1.00
C245   C     0.82610   0.42394   0.76726   0.00000  Uiso   1.00
C246   C     0.75643   0.47933   0.75149   0.00000  Uiso   1.00
C247   C     0.67956   0.50067   0.77932   0.00000  Uiso   1.00
C248   C     0.98400   0.40072   0.78197   0.00000  Uiso   1.00
C249   C     0.04708   0.43659   0.77857   0.00000  Uiso   1.00
C250   C     0.10315   0.43837   0.81878   0.00000  Uiso   1.00
C251   C     0.92949   0.31044   0.73099   0.00000  Uiso   1.00
C252   C     0.94677   0.27040   0.68473   0.00000  Uiso   1.00
C253   C     0.95697   0.19617   0.68202   0.00000  Uiso   1.00
H254   H     0.89814   0.30597   0.85259   0.00000  Uiso   1.00
H255   H     0.73721   0.38679   0.86975   0.00000  Uiso   1.00
H256   H     0.02782   0.34404   0.89682   0.00000  Uiso   1.00
H257   H     0.92752   0.17788   0.80299   0.00000  Uiso   1.00
H258   H     0.56182   0.49092   0.87023   0.00000  Uiso   1.00
H259   H     0.17462   0.40077   0.92729   0.00000  Uiso   1.00
H260   H     0.96311   0.05038   0.72945   0.00000  Uiso   1.00
H261   H     0.92141   0.41784   0.70962   0.00000  Uiso   1.00
H262   H     0.76175   0.50480   0.71893   0.00000  Uiso   1.00
H263   H     0.05237   0.46205   0.74600   0.00000  Uiso   1.00
H264   H     0.95206   0.29589   0.65218   0.00000  Uiso   1.00
H265   H     0.58174   0.58671   0.74782   0.00000  Uiso   1.00
H266   H     0.19454   0.49655   0.80489   0.00000  Uiso   1.00
H267   H     0.98303   0.14617   0.60704   0.00000  Uiso   1.00
O268   O     0.46634   0.59402   0.81774   0.00000  Uiso   1.00
O269   O     0.27032   0.47572   0.89260   0.00000  Uiso   1.00
O270   O     0.99283   0.01603   0.63303   0.00000  Uiso   1.00
N271   N     0.58841   0.50152   0.84014   0.00000  Uiso   1.00
N272   N     0.16133   0.41724   0.89349   0.00000  Uiso   1.00
N273   N     0.96362   0.08966   0.70852   0.00000  Uiso   1.00
N274   N     0.59913   0.55306   0.77427   0.00000  Uiso   1.00
N275   N     0.17205   0.46878   0.82763   0.00000  Uiso   1.00
N276   N     0.97434   0.14120   0.64266   0.00000  Uiso   1.00
C277   C     0.21544   0.78543   0.94001   0.00000  Uiso   1.00
C278   C     0.23579   0.83536   0.98365   0.00000  Uiso   1.00
C279   C     0.31787   0.84493   0.99516   0.00000  Uiso   1.00
C280   C     0.32282   0.89305   0.03662   0.00000  Uiso   1.00
C281   C     0.36575   0.96494   0.09998   0.00000  Uiso   1.00
C282   C     0.14204   0.83380   0.91086   0.00000  Uiso   1.00
C283   C     0.14529   0.84205   0.86116   0.00000  Uiso   1.00
C284   C     0.07131   0.88885   0.84135   0.00000  Uiso   1.00
C285   C     0.96865   0.95828   0.79168   0.00000  Uiso   1.00
C286   C     0.17449   0.73405   0.96195   0.00000  Uiso   1.00
C287   C     0.20501   0.65842   0.95519   0.00000  Uiso   1.00
C288   C     0.15833   0.62123   0.97838   0.00000  Uiso   1.00
C289   C     0.10606   0.53578   0.00804   0.00000  Uiso   1.00
C290   C     0.07826   0.85387   0.99318   0.00000  Uiso   1.00
C291   C     0.16128   0.87253   0.01253   0.00000  Uiso   1.00
C292   C     0.16610   0.92065   0.05398   0.00000  Uiso   1.00
C293   C     0.24818   0.93028   0.06555   0.00000  Uiso   1.00
C294   C     0.06753   0.87097   0.93974   0.00000  Uiso   1.00
C295   C     0.99352   0.91776   0.91999   0.00000  Uiso   1.00
C296   C     0.99666   0.92609   0.87027   0.00000  Uiso   1.00
C297   C     0.09998   0.77122   0.99083   0.00000  Uiso   1.00
C298   C     0.05324   0.73414   0.01402   0.00000  Uiso   1.00
C299   C     0.08369   0.65847   0.00731   0.00000  Uiso   1.00
H300   H     0.27345   0.75650   0.91752   0.00000  Uiso   1.00
H301   H     0.37552   0.81616   0.97280   0.00000  Uiso   1.00
H302   H     0.20296   0.81327   0.83882   0.00000  Uiso   1.00
H303   H     0.26267   0.62967   0.93284   0.00000  Uiso   1.00
H304   H     0.45582   0.89872   0.04680   0.00000  Uiso   1.00
H305   H     0.09195   0.89261   0.76431   0.00000  Uiso   1.00
H306   H     0.21787   0.50545   0.96256   0.00000  Uiso   1.00
H307   H     0.02025   0.88281   0.01566   0.00000  Uiso   1.00
H308   H     0.10843   0.94940   0.07632   0.00000  Uiso   1.00
H309   H     0.93587   0.94652   0.94235   0.00000  Uiso   1.00
H310   H     0.99558   0.76292   0.03637   0.00000  Uiso   1.00
H311   H     0.23904   0.00687   0.13083   0.00000  Uiso   1.00
H312   H     0.87517   0.00076   0.84833   0.00000  Uiso   1.00
H313   H     0.00109   0.61360   0.04659   0.00000  Uiso   1.00
O314   O     0.41000   0.99434   0.12694   0.00000  Uiso   1.00
O315   O     0.93262   0.98631   0.75632   0.00000  Uiso   1.00
O316   O     0.09782   0.47838   0.01643   0.00000  Uiso   1.00
N317   N     0.39270   0.91502   0.05826   0.00000  Uiso   1.00
N318   N     0.05252   0.90932   0.79414   0.00000  Uiso   1.00
N319   N     0.17022   0.54736   0.97949   0.00000  Uiso   1.00
N320   N     0.27606   0.97321   0.10347   0.00000  Uiso   1.00
N321   N     0.93587   0.96751   0.83936   0.00000  Uiso   1.00
N322   N     0.05358   0.60555   0.02470   0.00000  Uiso   1.00
C323   C     0.58004   0.81066   0.89082   0.00000  Uiso   1.00
C324   C     0.56279   0.75266   0.91888   0.00000  Uiso   1.00
C325   C     0.51577   0.70464   0.90113   0.00000  Uiso   1.00
C326   C     0.50736   0.65567   0.93251   0.00000  Uiso   1.00
C327   C     0.47495   0.56571   0.96886   0.00000  Uiso   1.00
C328   C     0.68002   0.79525   0.89004   0.00000  Uiso   1.00
C329   C     0.73156   0.78306   0.84803   0.00000  Uiso   1.00
C330   C     0.82184   0.76994   0.85512   0.00000  Uiso   1.00
C331   C     0.97142   0.74617   0.84670   0.00000  Uiso   1.00
C332   C     0.54437   0.88297   0.92335   0.00000  Uiso   1.00
C333   C     0.48187   0.94453   0.90935   0.00000  Uiso   1.00
C334   C     0.45795   0.00528   0.94449   0.00000  Uiso   1.00
C335   C     0.39691   0.11769   0.98779   0.00000  Uiso   1.00
C336   C     0.64872   0.80906   0.97811   0.00000  Uiso   1.00
C337   C     0.60010   0.75179   0.96629   0.00000  Uiso   1.00
C338   C     0.59176   0.70288   0.99771   0.00000  Uiso   1.00
C339   C     0.54473   0.65480   0.98001   0.00000  Uiso   1.00
C340   C     0.71733   0.79438   0.93745   0.00000  Uiso   1.00
C341   C     0.80755   0.78129   0.94460   0.00000  Uiso   1.00
C342   C     0.85922   0.76908   0.90262   0.00000  Uiso   1.00
C343   C     0.58167   0.88210   0.97076   0.00000  Uiso   1.00
C344   C     0.55785   0.94276   0.00593   0.00000  Uiso   1.00
C345   C     0.49533   0.00441   0.99199   0.00000  Uiso   1.00
H346   H     0.55100   0.81134   0.85391   0.00000  Uiso   1.00
H347   H     0.48692   0.70533   0.86444   0.00000  Uiso   1.00
H348   H     0.70268   0.78374   0.81135   0.00000  Uiso   1.00
H349   H     0.45302   0.94519   0.87266   0.00000  Uiso   1.00
H350   H     0.43235   0.58740   0.89702   0.00000  Uiso   1.00
H351   H     0.88728   0.75276   0.78507   0.00000  Uiso   1.00
H352   H     0.36083   0.09320   0.91436   0.00000  Uiso   1.00
H353   H     0.67776   0.80839   0.01502   0.00000  Uiso   1.00
H354   H     0.62063   0.70222   0.03439   0.00000  Uiso   1.00
H355   H     0.83639   0.78063   0.98130   0.00000  Uiso   1.00
H356   H     0.58673   0.94207   0.04261   0.00000  Uiso   1.00
H357   H     0.54088   0.58487   0.03496   0.00000  Uiso   1.00
H358   H     0.99582   0.75023   0.92301   0.00000  Uiso   1.00
H359   H     0.46936   0.09067   0.05230   0.00000  Uiso   1.00
O360   O     0.44678   0.51633   0.97582   0.00000  Uiso   1.00
O361   O     0.04362   0.73329   0.82895   0.00000  Uiso   1.00
O362   O     0.35293   0.17994   0.99858   0.00000  Uiso   1.00
N363   N     0.46572   0.60139   0.92683   0.00000  Uiso   1.00
N364   N     0.89106   0.75598   0.82216   0.00000  Uiso   1.00
N365   N     0.39888   0.07426   0.94304   0.00000  Uiso   1.00
N366   N     0.52412   0.60003   0.00105   0.00000  Uiso   1.00
N367   N     0.94946   0.75461   0.89638   0.00000  Uiso   1.00
N368   N     0.45728   0.07290   0.01726   0.00000  Uiso   1.00
C369   C     0.72420   0.22856   0.88125   0.00000  Uiso   1.00
C370   C     0.63361   0.24834   0.90530   0.00000  Uiso   1.00
C371   C     0.57345   0.31749   0.91171   0.00000  Uiso   1.00
C372   C     0.49418   0.32429   0.93453   0.00000  Uiso   1.00
C373   C     0.35629   0.36415   0.96944   0.00000  Uiso   1.00
C374   C     0.72531   0.16868   0.83907   0.00000  Uiso   1.00
C375   C     0.74227   0.17086   0.78980   0.00000  Uiso   1.00
C376   C     0.74021   0.11060   0.75688   0.00000  Uiso   1.00
C377   C     0.74476   0.02677   0.68898   0.00000  Uiso   1.00
C378   C     0.79050   0.19266   0.91935   0.00000  Uiso   1.00
C379   C     0.86229   0.21500   0.93756   0.00000  Uiso   1.00
C380   C     0.91512   0.17492   0.97222   0.00000  Uiso   1.00
C381   C     0.02089   0.12833   0.02896   0.00000  Uiso   1.00
C382   C     0.69040   0.11766   0.91040   0.00000  Uiso   1.00
C383   C     0.61525   0.18810   0.92113   0.00000  Uiso   1.00
C384   C     0.53605   0.19479   0.94396   0.00000  Uiso   1.00
C385   C     0.47579   0.26395   0.95040   0.00000  Uiso   1.00
C386   C     0.70696   0.10844   0.85491   0.00000  Uiso   1.00
C387   C     0.70487   0.04816   0.82205   0.00000  Uiso   1.00
C388   C     0.72181   0.05025   0.77274   0.00000  Uiso   1.00
C389   C     0.77214   0.13243   0.93518   0.00000  Uiso   1.00
C390   C     0.82488   0.09230   0.96982   0.00000  Uiso   1.00
C391   C     0.89673   0.11457   0.98808   0.00000  Uiso   1.00
H392   H     0.73850   0.27545   0.86892   0.00000  Uiso   1.00
H393   H     0.58768   0.36409   0.89944   0.00000  Uiso   1.00
H394   H     0.75649   0.21748   0.77756   0.00000  Uiso   1.00
H395   H     0.87648   0.26161   0.92530   0.00000  Uiso   1.00
H396   H     0.41237   0.43579   0.94025   0.00000  Uiso   1.00
H397   H     0.76833   0.12664   0.68325   0.00000  Uiso   1.00
H398   H     0.02136   0.21971   0.99479   0.00000  Uiso   1.00
H399   H     0.67610   0.07076   0.92273   0.00000  Uiso   1.00
H400   H     0.52186   0.14817   0.95621   0.00000  Uiso   1.00
H401   H     0.69067   0.00156   0.83432   0.00000  Uiso   1.00
H402   H     0.81066   0.04569   0.98206   0.00000  Uiso   1.00
H403   H     0.35894   0.26055   0.98632   0.00000  Uiso   1.00
H404   H     0.71491   0.95139   0.72932   0.00000  Uiso   1.00
H405   H     0.96794   0.04446   0.04086   0.00000  Uiso   1.00
O406   O     0.28530   0.40278   0.98432   0.00000  Uiso   1.00
O407   O     0.75233   0.99718   0.64716   0.00000  Uiso   1.00
O408   O     0.08429   0.11928   0.05589   0.00000  Uiso   1.00
N409   N     0.42097   0.38393   0.94651   0.00000  Uiso   1.00
N410   N     0.75376   0.09489   0.70623   0.00000  Uiso   1.00
N411   N     0.99033   0.18189   0.99748   0.00000  Uiso   1.00
N412   N     0.39222   0.28963   0.97130   0.00000  Uiso   1.00
N413   N     0.72501   0.00059   0.73102   0.00000  Uiso   1.00
N414   N     0.96159   0.08759   0.02227   0.00000  Uiso   1.00
C415   C     0.91940   0.55566   0.40458   0.00000  Uiso   1.00
C416   C     0.01205   0.54947   0.42472   0.00000  Uiso   1.00
C417   C     0.05010   0.60591   0.43270   0.00000  Uiso   1.00
C418   C     0.13557   0.58914   0.45133   0.00000  Uiso   1.00
C419   C     0.27248   0.59028   0.48102   0.00000  Uiso   1.00
C420   C     0.93097   0.49941   0.35904   0.00000  Uiso   1.00
C421   C     0.90084   0.51377   0.31178   0.00000  Uiso   1.00
C422   C     0.91805   0.45486   0.27512   0.00000  Uiso   1.00
C423   C     0.92903   0.37828   0.20283   0.00000  Uiso   1.00
C424   C     0.87284   0.52889   0.44294   0.00000  Uiso   1.00
C425   C     0.79383   0.56803   0.46622   0.00000  Uiso   1.00
C426   C     0.76209   0.53392   0.50018   0.00000  Uiso   1.00
C427   C     0.68282   0.50310   0.55817   0.00000  Uiso   1.00
C428   C     0.00351   0.42549   0.42349   0.00000  Uiso   1.00
C429   C     0.05773   0.47876   0.43500   0.00000  Uiso   1.00
C430   C     0.14316   0.46190   0.45362   0.00000  Uiso   1.00
C431   C     0.18134   0.51832   0.46162   0.00000  Uiso   1.00
C432   C     0.97665   0.42871   0.36931   0.00000  Uiso   1.00
C433   C     0.99390   0.36976   0.33271   0.00000  Uiso   1.00
C434   C     0.96382   0.38403   0.28541   0.00000  Uiso   1.00
C435   C     0.91853   0.45818   0.45321   0.00000  Uiso   1.00
C436   C     0.88689   0.42401   0.48715   0.00000  Uiso   1.00
C437   C     0.80785   0.46309   0.51048   0.00000  Uiso   1.00
H438   H     0.88384   0.61070   0.39658   0.00000  Uiso   1.00
H439   H     0.01473   0.66062   0.42474   0.00000  Uiso   1.00
H440   H     0.86548   0.56849   0.30384   0.00000  Uiso   1.00
H441   H     0.75850   0.62274   0.45826   0.00000  Uiso   1.00
H442   H     0.18001   0.68479   0.46047   0.00000  Uiso   1.00
H443   H     0.86529   0.49052   0.20556   0.00000  Uiso   1.00
H444   H     0.63968   0.60491   0.53117   0.00000  Uiso   1.00
H445   H     0.03908   0.37044   0.43149   0.00000  Uiso   1.00
H446   H     0.17850   0.40718   0.46157   0.00000  Uiso   1.00
H447   H     0.02925   0.31505   0.34067   0.00000  Uiso   1.00
H448   H     0.92226   0.36930   0.49509   0.00000  Uiso   1.00
H449   H     0.31293   0.47908   0.49036   0.00000  Uiso   1.00
H450   H     0.99821   0.28482   0.23545   0.00000  Uiso   1.00
H451   H     0.77260   0.39921   0.56106   0.00000  Uiso   1.00
O452   O     0.33539   0.61043   0.49455   0.00000  Uiso   1.00
O453   O     0.92248   0.35557   0.16012   0.00000  Uiso   1.00
O454   O     0.62649   0.50564   0.58732   0.00000  Uiso   1.00
N455   N     0.19215   0.63133   0.46338   0.00000  Uiso   1.00
N456   N     0.89792   0.44971   0.22506   0.00000  Uiso   1.00
N457   N     0.68698   0.55665   0.52947   0.00000  Uiso   1.00
N458   N     0.26367   0.52065   0.47947   0.00000  Uiso   1.00
N459   N     0.96945   0.33903   0.24114   0.00000  Uiso   1.00
N460   N     0.75851   0.44596   0.54556   0.00000  Uiso   1.00
C461   C     0.02509   0.12200   0.42348   0.00000  Uiso   1.00
C462   C     0.01027   0.06553   0.45394   0.00000  Uiso   1.00
C463   C     0.04368   0.99041   0.44321   0.00000  Uiso   1.00
C464   C     0.02259   0.94806   0.47566   0.00000  Uiso   1.00
C465   C     0.00753   0.85557   0.51660   0.00000  Uiso   1.00
C466   C     0.93349   0.16918   0.41030   0.00000  Uiso   1.00
C467   C     0.90236   0.18120   0.36286   0.00000  Uiso   1.00
C468   C     0.81663   0.22611   0.35858   0.00000  Uiso   1.00
C469   C     0.68240   0.29456   0.33176   0.00000  Uiso   1.00
C470   C     0.06512   0.17128   0.45879   0.00000  Uiso   1.00
C471   C     0.14466   0.18509   0.45212   0.00000  Uiso   1.00
C472   C     0.16975   0.23178   0.48866   0.00000  Uiso   1.00
C473   C     0.23990   0.30350   0.53713   0.00000  Uiso   1.00
C474   C     0.92821   0.18037   0.50022   0.00000  Uiso   1.00
C475   C     0.95764   0.09724   0.49562   0.00000  Uiso   1.00
C476   C     0.93650   0.05499   0.52810   0.00000  Uiso   1.00
C477   C     0.96987   0.97982   0.51741   0.00000  Uiso   1.00
C478   C     0.88087   0.20088   0.45197   0.00000  Uiso   1.00
C479   C     0.79517   0.24578   0.44776   0.00000  Uiso   1.00
C480   C     0.76391   0.25787   0.40033   0.00000  Uiso   1.00
C481   C     0.01250   0.20298   0.50047   0.00000  Uiso   1.00
C482   C     0.03747   0.24967   0.53702   0.00000  Uiso   1.00
C483   C     0.11703   0.26355   0.53041   0.00000  Uiso   1.00
H484   H     0.06606   0.09732   0.39103   0.00000  Uiso   1.00
H485   H     0.08440   0.96590   0.41095   0.00000  Uiso   1.00
H486   H     0.94310   0.15667   0.33062   0.00000  Uiso   1.00
H487   H     0.18536   0.16055   0.41986   0.00000  Uiso   1.00
H488   H     0.08150   0.83418   0.45139   0.00000  Uiso   1.00
H489   H     0.78357   0.23644   0.28201   0.00000  Uiso   1.00
H490   H     0.29443   0.24464   0.47021   0.00000  Uiso   1.00
H491   H     0.88724   0.20505   0.53267   0.00000  Uiso   1.00
H492   H     0.89577   0.07954   0.56035   0.00000  Uiso   1.00
H493   H     0.75447   0.27031   0.48002   0.00000  Uiso   1.00
H494   H     0.99673   0.27419   0.56927   0.00000  Uiso   1.00
H495   H     0.92840   0.92641   0.57265   0.00000  Uiso   1.00
H496   H     0.63047   0.32868   0.40327   0.00000  Uiso   1.00
H497   H     0.14133   0.33687   0.59147   0.00000  Uiso   1.00
O498   O     0.01376   0.79579   0.52767   0.00000  Uiso   1.00
O499   O     0.62290   0.32355   0.30545   0.00000  Uiso   1.00
O500   O     0.29314   0.33430   0.55236   0.00000  Uiso   1.00
N501   N     0.04431   0.87311   0.47614   0.00000  Uiso   1.00
N502   N     0.76576   0.24920   0.31778   0.00000  Uiso   1.00
N503   N     0.24336   0.25687   0.49371   0.00000  Uiso   1.00
N504   N     0.96193   0.92274   0.54139   0.00000  Uiso   1.00
N505   N     0.68338   0.29883   0.38303   0.00000  Uiso   1.00
N506   N     0.16098   0.30650   0.55896   0.00000  Uiso   1.00
C507   C     0.63522   0.99179   0.29975   0.00000  Uiso   1.00
C508   C     0.72180   0.93216   0.30541   0.00000  Uiso   1.00
C509   C     0.79769   0.91966   0.27781   0.00000  Uiso   1.00
C510   C     0.86999   0.86239   0.28863   0.00000  Uiso   1.00
C511   C     0.00495   0.77634   0.29175   0.00000  Uiso   1.00
C512   C     0.56439   0.95296   0.29013   0.00000  Uiso   1.00
C513   C     0.50793   0.95796   0.24968   0.00000  Uiso   1.00
C514   C     0.44771   0.91821   0.24764   0.00000  Uiso   1.00
C515   C     0.33825   0.86450   0.22705   0.00000  Uiso   1.00
C516   C     0.61499   0.03578   0.35052   0.00000  Uiso   1.00
C517   C     0.60104   0.11043   0.36086   0.00000  Uiso   1.00
C518   C     0.58340   0.14041   0.40967   0.00000  Uiso   1.00
C519   C     0.55249   0.21530   0.48287   0.00000  Uiso   1.00
C520   C     0.62867   0.91231   0.36806   0.00000  Uiso   1.00
C521   C     0.71823   0.88899   0.34251   0.00000  Uiso   1.00
C522   C     0.79044   0.83173   0.35338   0.00000  Uiso   1.00
C523   C     0.86643   0.81914   0.32580   0.00000  Uiso   1.00
C524   C     0.56083   0.90979   0.32722   0.00000  Uiso   1.00
C525   C     0.50068   0.87003   0.32525   0.00000  Uiso   1.00
C526   C     0.44414   0.87497   0.28481   0.00000  Uiso   1.00
C527   C     0.61143   0.99262   0.38763   0.00000  Uiso   1.00
C528   C     0.59380   0.02249   0.43643   0.00000  Uiso   1.00
C529   C     0.57983   0.09717   0.44684   0.00000  Uiso   1.00
H530   H     0.63799   0.02540   0.27087   0.00000  Uiso   1.00
H531   H     0.80042   0.95307   0.24909   0.00000  Uiso   1.00
H532   H     0.51069   0.99138   0.22097   0.00000  Uiso   1.00
H533   H     0.60380   0.14382   0.33214   0.00000  Uiso   1.00
H534   H     0.97892   0.85383   0.24131   0.00000  Uiso   1.00
H535   H     0.36800   0.93462   0.18202   0.00000  Uiso   1.00
H536   H     0.56433   0.25607   0.41644   0.00000  Uiso   1.00
H537   H     0.62589   0.87870   0.39694   0.00000  Uiso   1.00
H538   H     0.78767   0.79833   0.38209   0.00000  Uiso   1.00
H539   H     0.49794   0.83663   0.35397   0.00000  Uiso   1.00
H540   H     0.59105   0.98907   0.46513   0.00000  Uiso   1.00
H541   H     0.96857   0.72823   0.34925   0.00000  Uiso   1.00
H542   H     0.35764   0.80903   0.28996   0.00000  Uiso   1.00
H543   H     0.55398   0.13047   0.52438   0.00000  Uiso   1.00
O544   O     0.08037   0.74079   0.28322   0.00000  Uiso   1.00
O545   O     0.27886   0.84680   0.20544   0.00000  Uiso   1.00
O546   O     0.53644   0.26852   0.51299   0.00000  Uiso   1.00
N547   N     0.95429   0.83531   0.26876   0.00000  Uiso   1.00
N548   N     0.38312   0.91084   0.21332   0.00000  Uiso   1.00
N549   N     0.56665   0.21137   0.43248   0.00000  Uiso   1.00
N550   N     0.94872   0.76773   0.32684   0.00000  Uiso   1.00
N551   N     0.37755   0.84325   0.27140   0.00000  Uiso   1.00
N552   N     0.56108   0.14378   0.49056   0.00000  Uiso   1.00
