data_job_06047
_audit_creation_date              2018-12-19
_audit_creation_method            'Materials Studio'
_symmetry_space_group_name_H-M    'P1'
_symmetry_Int_Tables_number       1
_symmetry_cell_setting            triclinic
loop_
_symmetry_equiv_pos_as_xyz
  x,y,z
_cell_length_a                    12.4999
_cell_length_b                    18.9191
_cell_length_c                    19.0463
_cell_angle_alpha                 115.4380
_cell_angle_beta                  76.9150
_cell_angle_gamma                 78.2640
loop_
_atom_site_label
_atom_site_type_symbol
_atom_site_fract_x
_atom_site_fract_y
_atom_site_fract_z
_atom_site_U_iso_or_equiv
_atom_site_adp_type
_atom_site_occupancy
C1     C     0.39172   0.39754   0.24658   0.00000  Uiso   1.00
C2     C     0.33269   0.49075   0.30749   0.00000  Uiso   1.00
C3     C     0.33796   0.55365   0.28900   0.00000  Uiso   1.00
C4     C     0.27798   0.63501   0.35335   0.00000  Uiso   1.00
C5     C     0.19594   0.77704   0.43578   0.00000  Uiso   1.00
C6     C     0.46836   0.36419   0.28513   0.00000  Uiso   1.00
C7     C     0.58770   0.32066   0.24781   0.00000  Uiso   1.00
C8     C     0.64193   0.29549   0.29333   0.00000  Uiso   1.00
C9     C     0.77051   0.24097   0.34101   0.00000  Uiso   1.00
C10    C     0.29471   0.36008   0.24799   0.00000  Uiso   1.00
C11    C     0.26805   0.31307   0.17945   0.00000  Uiso   1.00
C12    C     0.17610   0.28441   0.19371   0.00000  Uiso   1.00
C13    C     0.03505   0.22351   0.18373   0.00000  Uiso   1.00
C14    C     0.27583   0.43020   0.39376   0.00000  Uiso   1.00
C15    C     0.26974   0.50848   0.38744   0.00000  Uiso   1.00
C16    C     0.20973   0.58978   0.45184   0.00000  Uiso   1.00
C17    C     0.21492   0.65278   0.43344   0.00000  Uiso   1.00
C18    C     0.40542   0.38193   0.36506   0.00000  Uiso   1.00
C19    C     0.45948   0.35680   0.41065   0.00000  Uiso   1.00
C20    C     0.57887   0.31325   0.37342   0.00000  Uiso   1.00
C21    C     0.23175   0.37782   0.32793   0.00000  Uiso   1.00
C22    C     0.13983   0.34921   0.34229   0.00000  Uiso   1.00
C23    C     0.11304   0.30218   0.27379   0.00000  Uiso   1.00
H24    H     0.44073   0.38373   0.18435   0.00000  Uiso   1.00
H25    H     0.38669   0.53989   0.22713   0.00000  Uiso   1.00
H26    H     0.63639   0.30694   0.18595   0.00000  Uiso   1.00
H27    H     0.31679   0.29936   0.11760   0.00000  Uiso   1.00
H28    H     0.29905   0.72085   0.30982   0.00000  Uiso   1.00
H29    H     0.82555   0.22964   0.22297   0.00000  Uiso   1.00
H30    H     0.15161   0.21364   0.07885   0.00000  Uiso   1.00
H31    H     0.22682   0.44401   0.45600   0.00000  Uiso   1.00
H32    H     0.16103   0.60349   0.51369   0.00000  Uiso   1.00
H33    H     0.41074   0.37053   0.47251   0.00000  Uiso   1.00
H34    H     0.09114   0.36295   0.40417   0.00000  Uiso   1.00
H35    H     0.11590   0.77246   0.54241   0.00000  Uiso   1.00
H36    H     0.64240   0.28124   0.45556   0.00000  Uiso   1.00
H37    H     0.96846   0.26526   0.31144   0.00000  Uiso   1.00
O38    O     0.16809   0.85047   0.45917   0.00000  Uiso   1.00
O39    O     0.85883   0.20601   0.34522   0.00000  Uiso   1.00
O40    O     0.97463   0.18503   0.15614   0.00000  Uiso   1.00
N41    N     0.26495   0.71111   0.35664   0.00000  Uiso   1.00
N42    N     0.75720   0.25187   0.27545   0.00000  Uiso   1.00
N43    N     0.12714   0.23690   0.14070   0.00000  Uiso   1.00
N44    N     0.16640   0.73888   0.48179   0.00000  Uiso   1.00
N45    N     0.65865   0.27964   0.40060   0.00000  Uiso   1.00
N46    N     0.02859   0.26467   0.26586   0.00000  Uiso   1.00
C47    C     0.63920   0.75295   0.15195   0.00000  Uiso   1.00
C48    C     0.63946   0.69178   0.18417   0.00000  Uiso   1.00
C49    C     0.62523   0.71030   0.26528   0.00000  Uiso   1.00
C50    C     0.62819   0.64569   0.28228   0.00000  Uiso   1.00
C51    C     0.62613   0.56291   0.34173   0.00000  Uiso   1.00
C52    C     0.75485   0.71496   0.07976   0.00000  Uiso   1.00
C53    C     0.83763   0.75298   0.07307   0.00000  Uiso   1.00
C54    C     0.93771   0.70788   0.00217   0.00000  Uiso   1.00
C55    C     0.11476   0.66111   0.89949   0.00000  Uiso   1.00
C56    C     0.54423   0.75089   0.11376   0.00000  Uiso   1.00
C57    C     0.44993   0.81912   0.13565   0.00000  Uiso   1.00
C58    C     0.37269   0.80427   0.09336   0.00000  Uiso   1.00
C59    C     0.22272   0.81328   0.04347   0.00000  Uiso   1.00
C60    C     0.66975   0.60525   0.03791   0.00000  Uiso   1.00
C61    C     0.65606   0.61156   0.12223   0.00000  Uiso   1.00
C62    C     0.65904   0.54690   0.13911   0.00000  Uiso   1.00
C63    C     0.64481   0.56533   0.22023   0.00000  Uiso   1.00
C64    C     0.77145   0.63474   0.01782   0.00000  Uiso   1.00
C65    C     0.87143   0.58957   0.94691   0.00000  Uiso   1.00
C66    C     0.95434   0.62751   0.94012   0.00000  Uiso   1.00
C67    C     0.56083   0.67066   0.05182   0.00000  Uiso   1.00
C68    C     0.48373   0.65571   0.00948   0.00000  Uiso   1.00
C69    C     0.38932   0.72391   0.03130   0.00000  Uiso   1.00
H70    H     0.62629   0.81540   0.20016   0.00000  Uiso   1.00
H71    H     0.61240   0.77239   0.31319   0.00000  Uiso   1.00
H72    H     0.82476   0.81506   0.12101   0.00000  Uiso   1.00
H73    H     0.43711   0.88119   0.18358   0.00000  Uiso   1.00
H74    H     0.60437   0.68933   0.41118   0.00000  Uiso   1.00
H75    H     0.05211   0.77931   0.00595   0.00000  Uiso   1.00
H76    H     0.23470   0.91875   0.13788   0.00000  Uiso   1.00
H77    H     0.68268   0.54279   0.98968   0.00000  Uiso   1.00
H78    H     0.67188   0.48483   0.09117   0.00000  Uiso   1.00
H79    H     0.88424   0.52750   0.89899   0.00000  Uiso   1.00
H80    H     0.49660   0.59362   0.96155   0.00000  Uiso   1.00
H81    H     0.65265   0.45592   0.23098   0.00000  Uiso   1.00
H82    H     0.10039   0.54591   0.82574   0.00000  Uiso   1.00
H83    H     0.28298   0.68535   0.95768   0.00000  Uiso   1.00
O84    O     0.62043   0.53940   0.39163   0.00000  Uiso   1.00
O85    O     0.20784   0.65747   0.85997   0.00000  Uiso   1.00
O86    O     0.13541   0.84041   0.03307   0.00000  Uiso   1.00
N87    N     0.61719   0.64235   0.35485   0.00000  Uiso   1.00
N88    N     0.03581   0.72648   0.97598   0.00000  Uiso   1.00
N89    N     0.27161   0.85685   0.09932   0.00000  Uiso   1.00
N90    N     0.64317   0.51676   0.25788   0.00000  Uiso   1.00
N91    N     0.06179   0.60089   0.87902   0.00000  Uiso   1.00
N92    N     0.29759   0.73126   0.00235   0.00000  Uiso   1.00
C93    C     0.79039   0.84752   0.60134   0.00000  Uiso   1.00
C94    C     0.82384   0.81532   0.50820   0.00000  Uiso   1.00
C95    C     0.89029   0.73426   0.44561   0.00000  Uiso   1.00
C96    C     0.91128   0.71728   0.36424   0.00000  Uiso   1.00
C97    C     0.96995   0.65788   0.22235   0.00000  Uiso   1.00
C98    C     0.83456   0.92034   0.63507   0.00000  Uiso   1.00
C99    C     0.91002   0.92757   0.67917   0.00000  Uiso   1.00
C100   C     0.94002   0.99900   0.70461   0.00000  Uiso   1.00
C101   C     0.01527   0.10267   0.75975   0.00000  Uiso   1.00
C102   C     0.65735   0.88501   0.63801   0.00000  Uiso   1.00
C103   C     0.58380   0.86257   0.68459   0.00000  Uiso   1.00
C104   C     0.46461   0.90428   0.71253   0.00000  Uiso   1.00
C105   C     0.26471   0.95310   0.77223   0.00000  Uiso   1.00
C106   C     0.70950   0.96151   0.56814   0.00000  Uiso   1.00
C107   C     0.77991   0.87724   0.49017   0.00000  Uiso   1.00
C108   C     0.80080   0.86038   0.40887   0.00000  Uiso   1.00
C109   C     0.86726   0.77931   0.34617   0.00000  Uiso   1.00
C110   C     0.79063   0.98225   0.61704   0.00000  Uiso   1.00
C111   C     0.82052   0.05369   0.64243   0.00000  Uiso   1.00
C112   C     0.89601   0.06103   0.68655   0.00000  Uiso   1.00
C113   C     0.61342   0.94693   0.61997   0.00000  Uiso   1.00
C114   C     0.49431   0.98869   0.64785   0.00000  Uiso   1.00
C115   C     0.42059   0.96631   0.69446   0.00000  Uiso   1.00
H116   H     0.82460   0.79931   0.61539   0.00000  Uiso   1.00
H117   H     0.92428   0.68636   0.45959   0.00000  Uiso   1.00
H118   H     0.94399   0.87965   0.69312   0.00000  Uiso   1.00
H119   H     0.61783   0.81465   0.69854   0.00000  Uiso   1.00
H120   H     0.01546   0.58844   0.27891   0.00000  Uiso   1.00
H121   H     0.05699   0.99601   0.77134   0.00000  Uiso   1.00
H122   H     0.36921   0.85896   0.78277   0.00000  Uiso   1.00
H123   H     0.67530   0.00972   0.55410   0.00000  Uiso   1.00
H124   H     0.76679   0.90831   0.39494   0.00000  Uiso   1.00
H125   H     0.78650   0.10160   0.62847   0.00000  Uiso   1.00
H126   H     0.46034   0.03660   0.63389   0.00000  Uiso   1.00
H127   H     0.88764   0.76859   0.22643   0.00000  Uiso   1.00
H128   H     0.92917   0.17616   0.71887   0.00000  Uiso   1.00
H129   H     0.24139   0.03910   0.73029   0.00000  Uiso   1.00
O130   O     0.01446   0.60802   0.14907   0.00000  Uiso   1.00
O131   O     0.06893   0.14273   0.79514   0.00000  Uiso   1.00
O132   O     0.16659   0.96292   0.81013   0.00000  Uiso   1.00
N133   N     0.97280   0.64475   0.28840   0.00000  Uiso   1.00
N134   N     0.01165   0.02580   0.74879   0.00000  Uiso   1.00
N135   N     0.36863   0.89768   0.75949   0.00000  Uiso   1.00
N136   N     0.90402   0.74169   0.26016   0.00000  Uiso   1.00
N137   N     0.94287   0.12273   0.72055   0.00000  Uiso   1.00
N138   N     0.29985   0.99461   0.73125   0.00000  Uiso   1.00
C139   C     0.60828   0.60245   0.75342   0.00000  Uiso   1.00
C140   C     0.66731   0.50925   0.69251   0.00000  Uiso   1.00
C141   C     0.66204   0.44635   0.71100   0.00000  Uiso   1.00
C142   C     0.72202   0.36499   0.64665   0.00000  Uiso   1.00
C143   C     0.80406   0.22296   0.56422   0.00000  Uiso   1.00
C144   C     0.53164   0.63581   0.71488   0.00000  Uiso   1.00
C145   C     0.41230   0.67934   0.75219   0.00000  Uiso   1.00
C146   C     0.35807   0.70451   0.70667   0.00000  Uiso   1.00
C147   C     0.22949   0.75903   0.65899   0.00000  Uiso   1.00
C148   C     0.70529   0.63992   0.75201   0.00000  Uiso   1.00
C149   C     0.73194   0.68693   0.82055   0.00000  Uiso   1.00
C150   C     0.82390   0.71559   0.80629   0.00000  Uiso   1.00
C151   C     0.96495   0.77649   0.81627   0.00000  Uiso   1.00
C152   C     0.72417   0.56980   0.60624   0.00000  Uiso   1.00
C153   C     0.73026   0.49152   0.61256   0.00000  Uiso   1.00
C154   C     0.79027   0.41022   0.54816   0.00000  Uiso   1.00
C155   C     0.78508   0.34722   0.56656   0.00000  Uiso   1.00
C156   C     0.59458   0.61807   0.63494   0.00000  Uiso   1.00
C157   C     0.54052   0.64320   0.58935   0.00000  Uiso   1.00
C158   C     0.42113   0.68675   0.62658   0.00000  Uiso   1.00
C159   C     0.76825   0.62218   0.67207   0.00000  Uiso   1.00
C160   C     0.86017   0.65079   0.65771   0.00000  Uiso   1.00
C161   C     0.88696   0.69782   0.72621   0.00000  Uiso   1.00
H162   H     0.55927   0.61627   0.81565   0.00000  Uiso   1.00
H163   H     0.61331   0.46011   0.77287   0.00000  Uiso   1.00
H164   H     0.36361   0.69306   0.81406   0.00000  Uiso   1.00
H165   H     0.68321   0.70064   0.88240   0.00000  Uiso   1.00
H166   H     0.70095   0.27915   0.69018   0.00000  Uiso   1.00
H167   H     0.17445   0.77036   0.77703   0.00000  Uiso   1.00
H168   H     0.84839   0.78636   0.92115   0.00000  Uiso   1.00
H169   H     0.77318   0.55599   0.54400   0.00000  Uiso   1.00
H170   H     0.83897   0.39651   0.48631   0.00000  Uiso   1.00
H171   H     0.58926   0.62947   0.52749   0.00000  Uiso   1.00
H172   H     0.90886   0.63705   0.59584   0.00000  Uiso   1.00
H173   H     0.88410   0.22754   0.45759   0.00000  Uiso   1.00
H174   H     0.35760   0.71875   0.54444   0.00000  Uiso   1.00
H175   H     0.03154   0.73474   0.68856   0.00000  Uiso   1.00
O176   O     0.83191   0.14953   0.54083   0.00000  Uiso   1.00
O177   O     0.14117   0.79399   0.65478   0.00000  Uiso   1.00
O178   O     0.02537   0.81497   0.84386   0.00000  Uiso   1.00
N179   N     0.73505   0.28889   0.64336   0.00000  Uiso   1.00
N180   N     0.24280   0.74813   0.72455   0.00000  Uiso   1.00
N181   N     0.87286   0.76310   0.85930   0.00000  Uiso   1.00
N182   N     0.83360   0.26112   0.51821   0.00000  Uiso   1.00
N183   N     0.34135   0.72036   0.59940   0.00000  Uiso   1.00
N184   N     0.97141   0.73533   0.73414   0.00000  Uiso   1.00
C185   C     0.36080   0.24705   0.84805   0.00000  Uiso   1.00
C186   C     0.36054   0.30822   0.81583   0.00000  Uiso   1.00
C187   C     0.37477   0.28970   0.73472   0.00000  Uiso   1.00
C188   C     0.37181   0.35431   0.71772   0.00000  Uiso   1.00
C189   C     0.37387   0.43709   0.65827   0.00000  Uiso   1.00
C190   C     0.24515   0.28504   0.92024   0.00000  Uiso   1.00
C191   C     0.16237   0.24702   0.92693   0.00000  Uiso   1.00
C192   C     0.06229   0.29212   0.99783   0.00000  Uiso   1.00
C193   C     0.88524   0.33889   0.10051   0.00000  Uiso   1.00
C194   C     0.45577   0.24911   0.88624   0.00000  Uiso   1.00
C195   C     0.55007   0.18088   0.86435   0.00000  Uiso   1.00
C196   C     0.62731   0.19573   0.90664   0.00000  Uiso   1.00
C197   C     0.77728   0.18671   0.95653   0.00000  Uiso   1.00
C198   C     0.33025   0.39475   0.96209   0.00000  Uiso   1.00
C199   C     0.34394   0.38844   0.87777   0.00000  Uiso   1.00
C200   C     0.34096   0.45310   0.86089   0.00000  Uiso   1.00
C201   C     0.35519   0.43467   0.77977   0.00000  Uiso   1.00
C202   C     0.22855   0.36526   0.98218   0.00000  Uiso   1.00
C203   C     0.12857   0.41042   0.05309   0.00000  Uiso   1.00
C204   C     0.04566   0.37249   0.05988   0.00000  Uiso   1.00
C205   C     0.43917   0.32934   0.94818   0.00000  Uiso   1.00
C206   C     0.51627   0.34429   0.99052   0.00000  Uiso   1.00
C207   C     0.61068   0.27609   0.96870   0.00000  Uiso   1.00
H208   H     0.37371   0.18460   0.79984   0.00000  Uiso   1.00
H209   H     0.38760   0.22761   0.68681   0.00000  Uiso   1.00
H210   H     0.17524   0.18494   0.87899   0.00000  Uiso   1.00
H211   H     0.56289   0.11881   0.81642   0.00000  Uiso   1.00
H212   H     0.39563   0.31067   0.58882   0.00000  Uiso   1.00
H213   H     0.94789   0.22069   0.99405   0.00000  Uiso   1.00
H214   H     0.76530   0.08125   0.86212   0.00000  Uiso   1.00
H215   H     0.31732   0.45721   0.01032   0.00000  Uiso   1.00
H216   H     0.32812   0.51517   0.90883   0.00000  Uiso   1.00
H217   H     0.11576   0.47250   0.10102   0.00000  Uiso   1.00
H218   H     0.50340   0.40637   0.03845   0.00000  Uiso   1.00
H219   H     0.34735   0.54408   0.76902   0.00000  Uiso   1.00
H220   H     0.89961   0.45409   0.17426   0.00000  Uiso   1.00
H221   H     0.71702   0.31465   0.04232   0.00000  Uiso   1.00
O222   O     0.37957   0.46060   0.60837   0.00000  Uiso   1.00
O223   O     0.79216   0.34253   0.14003   0.00000  Uiso   1.00
O224   O     0.86459   0.15959   0.96693   0.00000  Uiso   1.00
N225   N     0.38281   0.35765   0.64515   0.00000  Uiso   1.00
N226   N     0.96419   0.27352   0.02402   0.00000  Uiso   1.00
N227   N     0.72839   0.14315   0.90068   0.00000  Uiso   1.00
N228   N     0.35683   0.48324   0.74212   0.00000  Uiso   1.00
N229   N     0.93821   0.39911   0.12098   0.00000  Uiso   1.00
N230   N     0.70241   0.26874   0.99765   0.00000  Uiso   1.00
C231   C     0.20961   0.15249   0.39866   0.00000  Uiso   1.00
C232   C     0.17616   0.18468   0.49180   0.00000  Uiso   1.00
C233   C     0.10971   0.26574   0.55439   0.00000  Uiso   1.00
C234   C     0.08872   0.28272   0.63576   0.00000  Uiso   1.00
C235   C     0.03005   0.34212   0.77765   0.00000  Uiso   1.00
C236   C     0.16544   0.07966   0.36493   0.00000  Uiso   1.00
C237   C     0.08998   0.07243   0.32083   0.00000  Uiso   1.00
C238   C     0.05998   0.00100   0.29539   0.00000  Uiso   1.00
C239   C     0.98473   0.89733   0.24025   0.00000  Uiso   1.00
C240   C     0.34265   0.11499   0.36199   0.00000  Uiso   1.00
C241   C     0.41620   0.13743   0.31541   0.00000  Uiso   1.00
C242   C     0.53539   0.09572   0.28747   0.00000  Uiso   1.00
C243   C     0.73529   0.04690   0.22777   0.00000  Uiso   1.00
C244   C     0.29050   0.03849   0.43186   0.00000  Uiso   1.00
C245   C     0.22009   0.12276   0.50983   0.00000  Uiso   1.00
C246   C     0.19920   0.13962   0.59113   0.00000  Uiso   1.00
C247   C     0.13274   0.22069   0.65383   0.00000  Uiso   1.00
C248   C     0.20937   0.01775   0.38296   0.00000  Uiso   1.00
C249   C     0.17948   0.94631   0.35757   0.00000  Uiso   1.00
C250   C     0.10399   0.93897   0.31345   0.00000  Uiso   1.00
C251   C     0.38658   0.05307   0.38003   0.00000  Uiso   1.00
C252   C     0.50569   0.01131   0.35215   0.00000  Uiso   1.00
C253   C     0.57941   0.03369   0.30554   0.00000  Uiso   1.00
H254   H     0.17540   0.20069   0.38461   0.00000  Uiso   1.00
H255   H     0.07572   0.31364   0.54041   0.00000  Uiso   1.00
H256   H     0.05601   0.12035   0.30688   0.00000  Uiso   1.00
H257   H     0.38217   0.18535   0.30146   0.00000  Uiso   1.00
H258   H     0.98454   0.41156   0.72109   0.00000  Uiso   1.00
H259   H     0.94301   0.00399   0.22866   0.00000  Uiso   1.00
H260   H     0.63079   0.14104   0.21723   0.00000  Uiso   1.00
H261   H     0.32470   0.99028   0.44590   0.00000  Uiso   1.00
H262   H     0.23321   0.09169   0.60506   0.00000  Uiso   1.00
H263   H     0.21350   0.89840   0.37153   0.00000  Uiso   1.00
H264   H     0.53966   0.96340   0.36611   0.00000  Uiso   1.00
H265   H     0.11236   0.23141   0.77357   0.00000  Uiso   1.00
H266   H     0.07083   0.82384   0.28113   0.00000  Uiso   1.00
H267   H     0.75861   0.96090   0.26971   0.00000  Uiso   1.00
O268   O     0.98554   0.39198   0.85093   0.00000  Uiso   1.00
O269   O     0.93107   0.85727   0.20486   0.00000  Uiso   1.00
O270   O     0.83341   0.03708   0.18987   0.00000  Uiso   1.00
N271   N     0.02720   0.35525   0.71160   0.00000  Uiso   1.00
N272   N     0.98835   0.97420   0.25121   0.00000  Uiso   1.00
N273   N     0.63137   0.10232   0.24051   0.00000  Uiso   1.00
N274   N     0.09598   0.25831   0.73984   0.00000  Uiso   1.00
N275   N     0.05713   0.87727   0.27945   0.00000  Uiso   1.00
N276   N     0.70015   0.00539   0.26875   0.00000  Uiso   1.00
