data_job_03573
_audit_creation_date              2018-12-19
_audit_creation_method            'Materials Studio'
_symmetry_space_group_name_H-M    'P1'
_symmetry_Int_Tables_number       1
_symmetry_cell_setting            triclinic
loop_
_symmetry_equiv_pos_as_xyz
  x,y,z
_cell_length_a                    12.6135
_cell_length_b                    26.0972
_cell_length_c                    23.2962
_cell_angle_alpha                 90.0000
_cell_angle_beta                  90.0000
_cell_angle_gamma                 90.0000
loop_
_atom_site_label
_atom_site_type_symbol
_atom_site_fract_x
_atom_site_fract_y
_atom_site_fract_z
_atom_site_U_iso_or_equiv
_atom_site_adp_type
_atom_site_occupancy
C1     C     0.87378   0.88731   0.91717   0.00000  Uiso   1.00
C2     C     0.87845   0.83587   0.88622   0.00000  Uiso   1.00
C3     C     0.85615   0.82774   0.82861   0.00000  Uiso   1.00
C4     C     0.86498   0.77785   0.80848   0.00000  Uiso   1.00
C5     C     0.86761   0.70409   0.75492   0.00000  Uiso   1.00
C6     C     0.79769   0.87996   0.96737   0.00000  Uiso   1.00
C7     C     0.70750   0.90891   0.97798   0.00000  Uiso   1.00
C8     C     0.64836   0.89614   0.02616   0.00000  Uiso   1.00
C9     C     0.52565   0.89088   0.09861   0.00000  Uiso   1.00
C10    C     0.98311   0.89528   0.94364   0.00000  Uiso   1.00
C11    C     0.04881   0.93711   0.93431   0.00000  Uiso   1.00
C12    C     0.14577   0.93724   0.96253   0.00000  Uiso   1.00
C13    C     0.31095   0.95575   0.99814   0.00000  Uiso   1.00
C14    C     0.92912   0.81316   0.98389   0.00000  Uiso   1.00
C15    C     0.90851   0.79559   0.92246   0.00000  Uiso   1.00
C16    C     0.91738   0.74570   0.90242   0.00000  Uiso   1.00
C17    C     0.89509   0.73750   0.84478   0.00000  Uiso   1.00
C18    C     0.82775   0.83969   0.00361   0.00000  Uiso   1.00
C19    C     0.76873   0.82688   0.05179   0.00000  Uiso   1.00
C20    C     0.67847   0.85580   0.06247   0.00000  Uiso   1.00
C21    C     0.01317   0.85500   0.97988   0.00000  Uiso   1.00
C22    C     0.11004   0.85507   0.00812   0.00000  Uiso   1.00
C23    C     0.17588   0.89690   0.99884   0.00000  Uiso   1.00
H24    H     0.85038   0.91866   0.88896   0.00000  Uiso   1.00
H25    H     0.83288   0.85892   0.80058   0.00000  Uiso   1.00
H26    H     0.68427   0.94008   0.94993   0.00000  Uiso   1.00
H27    H     0.02553   0.96827   0.90627   0.00000  Uiso   1.00
H28    H     0.82671   0.77491   0.71857   0.00000  Uiso   1.00
H29    H     0.51336   0.94607   0.03350   0.00000  Uiso   1.00
H30    H     0.23297   0.00551   0.94143   0.00000  Uiso   1.00
H31    H     0.95252   0.78180   0.01210   0.00000  Uiso   1.00
H32    H     0.94064   0.71454   0.93047   0.00000  Uiso   1.00
H33    H     0.79201   0.79571   0.07983   0.00000  Uiso   1.00
H34    H     0.13327   0.82390   0.03616   0.00000  Uiso   1.00
H35    H     0.91416   0.65773   0.82400   0.00000  Uiso   1.00
H36    H     0.60081   0.82889   0.13893   0.00000  Uiso   1.00
H37    H     0.32042   0.88833   0.04686   0.00000  Uiso   1.00
O38    O     0.86074   0.67454   0.71537   0.00000  Uiso   1.00
O39    O     0.44965   0.89910   0.12855   0.00000  Uiso   1.00
O40    O     0.39376   0.97709   0.00776   0.00000  Uiso   1.00
N41    N     0.84894   0.75656   0.75458   0.00000  Uiso   1.00
N42    N     0.55597   0.91658   0.04902   0.00000  Uiso   1.00
N43    N     0.22873   0.97216   0.96296   0.00000  Uiso   1.00
N44    N     0.89600   0.69351   0.81131   0.00000  Uiso   1.00
N45    N     0.60303   0.85352   0.10575   0.00000  Uiso   1.00
N46    N     0.27579   0.90911   0.01969   0.00000  Uiso   1.00
C47    C     0.62622   0.61269   0.41717   0.00000  Uiso   1.00
C48    C     0.62155   0.66413   0.38622   0.00000  Uiso   1.00
C49    C     0.64385   0.67226   0.32861   0.00000  Uiso   1.00
C50    C     0.63502   0.72215   0.30848   0.00000  Uiso   1.00
C51    C     0.63239   0.79591   0.25492   0.00000  Uiso   1.00
C52    C     0.70231   0.62004   0.46737   0.00000  Uiso   1.00
C53    C     0.79250   0.59109   0.47798   0.00000  Uiso   1.00
C54    C     0.85164   0.60386   0.52616   0.00000  Uiso   1.00
C55    C     0.97435   0.60912   0.59861   0.00000  Uiso   1.00
C56    C     0.51689   0.60472   0.44364   0.00000  Uiso   1.00
C57    C     0.45119   0.56289   0.43431   0.00000  Uiso   1.00
C58    C     0.35423   0.56276   0.46253   0.00000  Uiso   1.00
C59    C     0.18905   0.54425   0.49814   0.00000  Uiso   1.00
C60    C     0.57088   0.68684   0.48389   0.00000  Uiso   1.00
C61    C     0.59149   0.70441   0.42246   0.00000  Uiso   1.00
C62    C     0.58262   0.75430   0.40242   0.00000  Uiso   1.00
C63    C     0.60491   0.76250   0.34478   0.00000  Uiso   1.00
C64    C     0.67225   0.66031   0.50361   0.00000  Uiso   1.00
C65    C     0.73127   0.67312   0.55179   0.00000  Uiso   1.00
C66    C     0.82153   0.64420   0.56247   0.00000  Uiso   1.00
C67    C     0.48683   0.64500   0.47988   0.00000  Uiso   1.00
C68    C     0.38996   0.64493   0.50812   0.00000  Uiso   1.00
C69    C     0.32412   0.60310   0.49884   0.00000  Uiso   1.00
H70    H     0.64962   0.58134   0.38896   0.00000  Uiso   1.00
H71    H     0.66712   0.64108   0.30058   0.00000  Uiso   1.00
H72    H     0.81573   0.55992   0.44993   0.00000  Uiso   1.00
H73    H     0.47447   0.53173   0.40627   0.00000  Uiso   1.00
H74    H     0.67329   0.72509   0.21857   0.00000  Uiso   1.00
H75    H     0.98664   0.55393   0.53350   0.00000  Uiso   1.00
H76    H     0.26703   0.49449   0.44143   0.00000  Uiso   1.00
H77    H     0.54748   0.71820   0.51210   0.00000  Uiso   1.00
H78    H     0.55936   0.78546   0.43047   0.00000  Uiso   1.00
H79    H     0.70799   0.70429   0.57983   0.00000  Uiso   1.00
H80    H     0.36673   0.67610   0.53616   0.00000  Uiso   1.00
H81    H     0.58584   0.84227   0.32400   0.00000  Uiso   1.00
H82    H     0.89919   0.67111   0.63893   0.00000  Uiso   1.00
H83    H     0.17958   0.61167   0.54686   0.00000  Uiso   1.00
O84    O     0.63926   0.82546   0.21537   0.00000  Uiso   1.00
O85    O     0.05035   0.60090   0.62855   0.00000  Uiso   1.00
O86    O     0.10624   0.52291   0.50776   0.00000  Uiso   1.00
N87    N     0.65106   0.74344   0.25458   0.00000  Uiso   1.00
N88    N     0.94403   0.58342   0.54902   0.00000  Uiso   1.00
N89    N     0.27127   0.52784   0.46296   0.00000  Uiso   1.00
N90    N     0.60400   0.80649   0.31131   0.00000  Uiso   1.00
N91    N     0.89697   0.64648   0.60575   0.00000  Uiso   1.00
N92    N     0.22421   0.59089   0.51969   0.00000  Uiso   1.00
C93    C     0.12622   0.88731   0.58283   0.00000  Uiso   1.00
C94    C     0.12155   0.83587   0.61378   0.00000  Uiso   1.00
C95    C     0.14385   0.82774   0.67139   0.00000  Uiso   1.00
C96    C     0.13502   0.77785   0.69152   0.00000  Uiso   1.00
C97    C     0.13239   0.70409   0.74508   0.00000  Uiso   1.00
C98    C     0.20231   0.87996   0.53263   0.00000  Uiso   1.00
C99    C     0.29250   0.90891   0.52202   0.00000  Uiso   1.00
C100   C     0.35164   0.89614   0.47384   0.00000  Uiso   1.00
C101   C     0.47435   0.89088   0.40139   0.00000  Uiso   1.00
C102   C     0.01689   0.89528   0.55636   0.00000  Uiso   1.00
C103   C     0.95119   0.93711   0.56569   0.00000  Uiso   1.00
C104   C     0.85423   0.93724   0.53747   0.00000  Uiso   1.00
C105   C     0.68905   0.95575   0.50186   0.00000  Uiso   1.00
C106   C     0.07088   0.81316   0.51611   0.00000  Uiso   1.00
C107   C     0.09149   0.79559   0.57754   0.00000  Uiso   1.00
C108   C     0.08262   0.74570   0.59758   0.00000  Uiso   1.00
C109   C     0.10491   0.73750   0.65522   0.00000  Uiso   1.00
C110   C     0.17225   0.83969   0.49639   0.00000  Uiso   1.00
C111   C     0.23127   0.82688   0.44821   0.00000  Uiso   1.00
C112   C     0.32153   0.85580   0.43753   0.00000  Uiso   1.00
C113   C     0.98683   0.85500   0.52012   0.00000  Uiso   1.00
C114   C     0.88996   0.85507   0.49188   0.00000  Uiso   1.00
C115   C     0.82412   0.89690   0.50116   0.00000  Uiso   1.00
H116   H     0.14962   0.91866   0.61104   0.00000  Uiso   1.00
H117   H     0.16712   0.85892   0.69942   0.00000  Uiso   1.00
H118   H     0.31573   0.94008   0.55007   0.00000  Uiso   1.00
H119   H     0.97447   0.96827   0.59373   0.00000  Uiso   1.00
H120   H     0.17329   0.77491   0.78143   0.00000  Uiso   1.00
H121   H     0.48664   0.94607   0.46650   0.00000  Uiso   1.00
H122   H     0.76703   0.00551   0.55857   0.00000  Uiso   1.00
H123   H     0.04748   0.78180   0.48790   0.00000  Uiso   1.00
H124   H     0.05936   0.71454   0.56953   0.00000  Uiso   1.00
H125   H     0.20799   0.79571   0.42017   0.00000  Uiso   1.00
H126   H     0.86673   0.82390   0.46384   0.00000  Uiso   1.00
H127   H     0.08584   0.65773   0.67600   0.00000  Uiso   1.00
H128   H     0.39919   0.82889   0.36107   0.00000  Uiso   1.00
H129   H     0.67958   0.88833   0.45314   0.00000  Uiso   1.00
O130   O     0.13926   0.67454   0.78463   0.00000  Uiso   1.00
O131   O     0.55035   0.89910   0.37145   0.00000  Uiso   1.00
O132   O     0.60624   0.97709   0.49224   0.00000  Uiso   1.00
N133   N     0.15106   0.75656   0.74542   0.00000  Uiso   1.00
N134   N     0.44403   0.91658   0.45098   0.00000  Uiso   1.00
N135   N     0.77127   0.97216   0.53704   0.00000  Uiso   1.00
N136   N     0.10400   0.69351   0.68869   0.00000  Uiso   1.00
N137   N     0.39697   0.85352   0.39425   0.00000  Uiso   1.00
N138   N     0.72421   0.90911   0.48031   0.00000  Uiso   1.00
C139   C     0.37378   0.61269   0.08283   0.00000  Uiso   1.00
C140   C     0.37845   0.66413   0.11378   0.00000  Uiso   1.00
C141   C     0.35615   0.67226   0.17139   0.00000  Uiso   1.00
C142   C     0.36498   0.72215   0.19152   0.00000  Uiso   1.00
C143   C     0.36761   0.79591   0.24508   0.00000  Uiso   1.00
C144   C     0.29769   0.62004   0.03263   0.00000  Uiso   1.00
C145   C     0.20750   0.59109   0.02202   0.00000  Uiso   1.00
C146   C     0.14836   0.60386   0.97384   0.00000  Uiso   1.00
C147   C     0.02565   0.60912   0.90139   0.00000  Uiso   1.00
C148   C     0.48311   0.60472   0.05636   0.00000  Uiso   1.00
C149   C     0.54881   0.56289   0.06569   0.00000  Uiso   1.00
C150   C     0.64577   0.56276   0.03747   0.00000  Uiso   1.00
C151   C     0.81095   0.54425   0.00186   0.00000  Uiso   1.00
C152   C     0.42912   0.68684   0.01611   0.00000  Uiso   1.00
C153   C     0.40851   0.70441   0.07754   0.00000  Uiso   1.00
C154   C     0.41738   0.75430   0.09758   0.00000  Uiso   1.00
C155   C     0.39509   0.76250   0.15522   0.00000  Uiso   1.00
C156   C     0.32775   0.66031   0.99639   0.00000  Uiso   1.00
C157   C     0.26873   0.67312   0.94821   0.00000  Uiso   1.00
C158   C     0.17847   0.64420   0.93753   0.00000  Uiso   1.00
C159   C     0.51317   0.64500   0.02012   0.00000  Uiso   1.00
C160   C     0.61004   0.64493   0.99188   0.00000  Uiso   1.00
C161   C     0.67588   0.60310   0.00116   0.00000  Uiso   1.00
H162   H     0.35038   0.58134   0.11104   0.00000  Uiso   1.00
H163   H     0.33288   0.64108   0.19942   0.00000  Uiso   1.00
H164   H     0.18427   0.55992   0.05007   0.00000  Uiso   1.00
H165   H     0.52553   0.53173   0.09373   0.00000  Uiso   1.00
H166   H     0.32671   0.72509   0.28143   0.00000  Uiso   1.00
H167   H     0.01336   0.55393   0.96650   0.00000  Uiso   1.00
H168   H     0.73297   0.49449   0.05857   0.00000  Uiso   1.00
H169   H     0.45252   0.71820   0.98790   0.00000  Uiso   1.00
H170   H     0.44064   0.78546   0.06953   0.00000  Uiso   1.00
H171   H     0.29201   0.70429   0.92017   0.00000  Uiso   1.00
H172   H     0.63327   0.67610   0.96384   0.00000  Uiso   1.00
H173   H     0.41416   0.84227   0.17600   0.00000  Uiso   1.00
H174   H     0.10081   0.67111   0.86107   0.00000  Uiso   1.00
H175   H     0.82042   0.61167   0.95314   0.00000  Uiso   1.00
O176   O     0.36074   0.82546   0.28463   0.00000  Uiso   1.00
O177   O     0.94965   0.60090   0.87145   0.00000  Uiso   1.00
O178   O     0.89376   0.52291   0.99224   0.00000  Uiso   1.00
N179   N     0.34894   0.74344   0.24542   0.00000  Uiso   1.00
N180   N     0.05597   0.58342   0.95098   0.00000  Uiso   1.00
N181   N     0.72873   0.52784   0.03704   0.00000  Uiso   1.00
N182   N     0.39600   0.80649   0.18869   0.00000  Uiso   1.00
N183   N     0.10303   0.64648   0.89425   0.00000  Uiso   1.00
N184   N     0.77579   0.59089   0.98031   0.00000  Uiso   1.00
C185   C     0.12622   0.11269   0.08283   0.00000  Uiso   1.00
C186   C     0.12155   0.16413   0.11378   0.00000  Uiso   1.00
C187   C     0.14385   0.17226   0.17139   0.00000  Uiso   1.00
C188   C     0.13502   0.22215   0.19152   0.00000  Uiso   1.00
C189   C     0.13239   0.29591   0.24508   0.00000  Uiso   1.00
C190   C     0.20231   0.12004   0.03263   0.00000  Uiso   1.00
C191   C     0.29250   0.09109   0.02202   0.00000  Uiso   1.00
C192   C     0.35164   0.10386   0.97384   0.00000  Uiso   1.00
C193   C     0.47435   0.10912   0.90139   0.00000  Uiso   1.00
C194   C     0.01689   0.10472   0.05636   0.00000  Uiso   1.00
C195   C     0.95119   0.06289   0.06569   0.00000  Uiso   1.00
C196   C     0.85423   0.06276   0.03747   0.00000  Uiso   1.00
C197   C     0.68905   0.04425   0.00186   0.00000  Uiso   1.00
C198   C     0.07088   0.18684   0.01611   0.00000  Uiso   1.00
C199   C     0.09149   0.20441   0.07754   0.00000  Uiso   1.00
C200   C     0.08262   0.25430   0.09758   0.00000  Uiso   1.00
C201   C     0.10491   0.26250   0.15522   0.00000  Uiso   1.00
C202   C     0.17225   0.16031   0.99639   0.00000  Uiso   1.00
C203   C     0.23127   0.17312   0.94821   0.00000  Uiso   1.00
C204   C     0.32153   0.14420   0.93753   0.00000  Uiso   1.00
C205   C     0.98683   0.14500   0.02012   0.00000  Uiso   1.00
C206   C     0.88996   0.14493   0.99188   0.00000  Uiso   1.00
C207   C     0.82412   0.10310   0.00116   0.00000  Uiso   1.00
H208   H     0.14962   0.08134   0.11104   0.00000  Uiso   1.00
H209   H     0.16712   0.14108   0.19942   0.00000  Uiso   1.00
H210   H     0.31573   0.05992   0.05007   0.00000  Uiso   1.00
H211   H     0.97447   0.03173   0.09373   0.00000  Uiso   1.00
H212   H     0.17329   0.22509   0.28143   0.00000  Uiso   1.00
H213   H     0.48664   0.05393   0.96650   0.00000  Uiso   1.00
H214   H     0.76703   0.99449   0.05857   0.00000  Uiso   1.00
H215   H     0.04748   0.21820   0.98790   0.00000  Uiso   1.00
H216   H     0.05936   0.28546   0.06953   0.00000  Uiso   1.00
H217   H     0.20799   0.20429   0.92017   0.00000  Uiso   1.00
H218   H     0.86673   0.17610   0.96384   0.00000  Uiso   1.00
H219   H     0.08584   0.34227   0.17600   0.00000  Uiso   1.00
H220   H     0.39919   0.17111   0.86107   0.00000  Uiso   1.00
H221   H     0.67958   0.11167   0.95314   0.00000  Uiso   1.00
O222   O     0.13926   0.32546   0.28463   0.00000  Uiso   1.00
O223   O     0.55035   0.10090   0.87145   0.00000  Uiso   1.00
O224   O     0.60624   0.02291   0.99224   0.00000  Uiso   1.00
N225   N     0.15106   0.24344   0.24542   0.00000  Uiso   1.00
N226   N     0.44403   0.08342   0.95098   0.00000  Uiso   1.00
N227   N     0.77127   0.02784   0.03704   0.00000  Uiso   1.00
N228   N     0.10400   0.30649   0.18869   0.00000  Uiso   1.00
N229   N     0.39697   0.14648   0.89425   0.00000  Uiso   1.00
N230   N     0.72421   0.09089   0.98031   0.00000  Uiso   1.00
C231   C     0.37378   0.38731   0.58283   0.00000  Uiso   1.00
C232   C     0.37845   0.33587   0.61378   0.00000  Uiso   1.00
C233   C     0.35615   0.32774   0.67139   0.00000  Uiso   1.00
C234   C     0.36498   0.27785   0.69152   0.00000  Uiso   1.00
C235   C     0.36761   0.20409   0.74508   0.00000  Uiso   1.00
C236   C     0.29769   0.37996   0.53263   0.00000  Uiso   1.00
C237   C     0.20750   0.40891   0.52202   0.00000  Uiso   1.00
C238   C     0.14836   0.39614   0.47384   0.00000  Uiso   1.00
C239   C     0.02565   0.39088   0.40139   0.00000  Uiso   1.00
C240   C     0.48311   0.39528   0.55636   0.00000  Uiso   1.00
C241   C     0.54881   0.43711   0.56569   0.00000  Uiso   1.00
C242   C     0.64577   0.43724   0.53747   0.00000  Uiso   1.00
C243   C     0.81095   0.45575   0.50186   0.00000  Uiso   1.00
C244   C     0.42912   0.31316   0.51611   0.00000  Uiso   1.00
C245   C     0.40851   0.29559   0.57754   0.00000  Uiso   1.00
C246   C     0.41738   0.24570   0.59758   0.00000  Uiso   1.00
C247   C     0.39509   0.23750   0.65522   0.00000  Uiso   1.00
C248   C     0.32775   0.33969   0.49639   0.00000  Uiso   1.00
C249   C     0.26873   0.32688   0.44821   0.00000  Uiso   1.00
C250   C     0.17847   0.35580   0.43753   0.00000  Uiso   1.00
C251   C     0.51317   0.35500   0.52012   0.00000  Uiso   1.00
C252   C     0.61004   0.35507   0.49188   0.00000  Uiso   1.00
C253   C     0.67588   0.39690   0.50116   0.00000  Uiso   1.00
H254   H     0.35038   0.41866   0.61104   0.00000  Uiso   1.00
H255   H     0.33288   0.35892   0.69942   0.00000  Uiso   1.00
H256   H     0.18427   0.44008   0.55007   0.00000  Uiso   1.00
H257   H     0.52553   0.46827   0.59373   0.00000  Uiso   1.00
H258   H     0.32671   0.27491   0.78143   0.00000  Uiso   1.00
H259   H     0.01336   0.44607   0.46650   0.00000  Uiso   1.00
H260   H     0.73297   0.50551   0.55857   0.00000  Uiso   1.00
H261   H     0.45252   0.28180   0.48790   0.00000  Uiso   1.00
H262   H     0.44064   0.21454   0.56953   0.00000  Uiso   1.00
H263   H     0.29201   0.29571   0.42017   0.00000  Uiso   1.00
H264   H     0.63327   0.32390   0.46384   0.00000  Uiso   1.00
H265   H     0.41416   0.15773   0.67600   0.00000  Uiso   1.00
H266   H     0.10081   0.32889   0.36107   0.00000  Uiso   1.00
H267   H     0.82042   0.38833   0.45314   0.00000  Uiso   1.00
O268   O     0.36074   0.17454   0.78463   0.00000  Uiso   1.00
O269   O     0.94965   0.39910   0.37145   0.00000  Uiso   1.00
O270   O     0.89376   0.47709   0.49224   0.00000  Uiso   1.00
N271   N     0.34894   0.25656   0.74542   0.00000  Uiso   1.00
N272   N     0.05597   0.41658   0.45098   0.00000  Uiso   1.00
N273   N     0.72873   0.47216   0.53704   0.00000  Uiso   1.00
N274   N     0.39600   0.19351   0.68869   0.00000  Uiso   1.00
N275   N     0.10303   0.35352   0.39425   0.00000  Uiso   1.00
N276   N     0.77579   0.40911   0.48031   0.00000  Uiso   1.00
C277   C     0.87378   0.11269   0.41717   0.00000  Uiso   1.00
C278   C     0.87845   0.16413   0.38622   0.00000  Uiso   1.00
C279   C     0.85615   0.17226   0.32861   0.00000  Uiso   1.00
C280   C     0.86498   0.22215   0.30848   0.00000  Uiso   1.00
C281   C     0.86761   0.29591   0.25492   0.00000  Uiso   1.00
C282   C     0.79769   0.12004   0.46737   0.00000  Uiso   1.00
C283   C     0.70750   0.09109   0.47798   0.00000  Uiso   1.00
C284   C     0.64836   0.10386   0.52616   0.00000  Uiso   1.00
C285   C     0.52565   0.10912   0.59861   0.00000  Uiso   1.00
C286   C     0.98311   0.10472   0.44364   0.00000  Uiso   1.00
C287   C     0.04881   0.06289   0.43431   0.00000  Uiso   1.00
C288   C     0.14577   0.06276   0.46253   0.00000  Uiso   1.00
C289   C     0.31095   0.04425   0.49814   0.00000  Uiso   1.00
C290   C     0.92912   0.18684   0.48389   0.00000  Uiso   1.00
C291   C     0.90851   0.20441   0.42246   0.00000  Uiso   1.00
C292   C     0.91738   0.25430   0.40242   0.00000  Uiso   1.00
C293   C     0.89509   0.26250   0.34478   0.00000  Uiso   1.00
C294   C     0.82775   0.16031   0.50361   0.00000  Uiso   1.00
C295   C     0.76873   0.17312   0.55179   0.00000  Uiso   1.00
C296   C     0.67847   0.14420   0.56247   0.00000  Uiso   1.00
C297   C     0.01317   0.14500   0.47988   0.00000  Uiso   1.00
C298   C     0.11004   0.14493   0.50812   0.00000  Uiso   1.00
C299   C     0.17588   0.10310   0.49884   0.00000  Uiso   1.00
H300   H     0.85038   0.08134   0.38896   0.00000  Uiso   1.00
H301   H     0.83288   0.14108   0.30058   0.00000  Uiso   1.00
H302   H     0.68427   0.05992   0.44993   0.00000  Uiso   1.00
H303   H     0.02553   0.03173   0.40627   0.00000  Uiso   1.00
H304   H     0.82671   0.22509   0.21857   0.00000  Uiso   1.00
H305   H     0.51336   0.05393   0.53350   0.00000  Uiso   1.00
H306   H     0.23297   0.99449   0.44143   0.00000  Uiso   1.00
H307   H     0.95252   0.21820   0.51210   0.00000  Uiso   1.00
H308   H     0.94064   0.28546   0.43047   0.00000  Uiso   1.00
H309   H     0.79201   0.20429   0.57983   0.00000  Uiso   1.00
H310   H     0.13327   0.17610   0.53616   0.00000  Uiso   1.00
H311   H     0.91416   0.34227   0.32400   0.00000  Uiso   1.00
H312   H     0.60081   0.17111   0.63893   0.00000  Uiso   1.00
H313   H     0.32042   0.11167   0.54686   0.00000  Uiso   1.00
O314   O     0.86074   0.32546   0.21537   0.00000  Uiso   1.00
O315   O     0.44965   0.10090   0.62855   0.00000  Uiso   1.00
O316   O     0.39376   0.02291   0.50776   0.00000  Uiso   1.00
N317   N     0.84894   0.24344   0.25458   0.00000  Uiso   1.00
N318   N     0.55597   0.08342   0.54902   0.00000  Uiso   1.00
N319   N     0.22873   0.02784   0.46296   0.00000  Uiso   1.00
N320   N     0.89600   0.30649   0.31131   0.00000  Uiso   1.00
N321   N     0.60303   0.14648   0.60575   0.00000  Uiso   1.00
N322   N     0.27579   0.09089   0.51969   0.00000  Uiso   1.00
C323   C     0.62622   0.38731   0.91717   0.00000  Uiso   1.00
C324   C     0.62155   0.33587   0.88622   0.00000  Uiso   1.00
C325   C     0.64385   0.32774   0.82861   0.00000  Uiso   1.00
C326   C     0.63502   0.27785   0.80848   0.00000  Uiso   1.00
C327   C     0.63239   0.20409   0.75492   0.00000  Uiso   1.00
C328   C     0.70231   0.37996   0.96737   0.00000  Uiso   1.00
C329   C     0.79250   0.40891   0.97798   0.00000  Uiso   1.00
C330   C     0.85164   0.39614   0.02616   0.00000  Uiso   1.00
C331   C     0.97435   0.39088   0.09861   0.00000  Uiso   1.00
C332   C     0.51689   0.39528   0.94364   0.00000  Uiso   1.00
C333   C     0.45119   0.43711   0.93431   0.00000  Uiso   1.00
C334   C     0.35423   0.43724   0.96253   0.00000  Uiso   1.00
C335   C     0.18905   0.45575   0.99814   0.00000  Uiso   1.00
C336   C     0.57088   0.31316   0.98389   0.00000  Uiso   1.00
C337   C     0.59149   0.29559   0.92246   0.00000  Uiso   1.00
C338   C     0.58262   0.24570   0.90242   0.00000  Uiso   1.00
C339   C     0.60491   0.23750   0.84478   0.00000  Uiso   1.00
C340   C     0.67225   0.33969   0.00361   0.00000  Uiso   1.00
C341   C     0.73127   0.32688   0.05179   0.00000  Uiso   1.00
C342   C     0.82153   0.35580   0.06247   0.00000  Uiso   1.00
C343   C     0.48683   0.35500   0.97988   0.00000  Uiso   1.00
C344   C     0.38996   0.35507   0.00812   0.00000  Uiso   1.00
C345   C     0.32412   0.39690   0.99884   0.00000  Uiso   1.00
H346   H     0.64962   0.41866   0.88896   0.00000  Uiso   1.00
H347   H     0.66712   0.35892   0.80058   0.00000  Uiso   1.00
H348   H     0.81573   0.44008   0.94993   0.00000  Uiso   1.00
H349   H     0.47447   0.46827   0.90627   0.00000  Uiso   1.00
H350   H     0.67329   0.27491   0.71857   0.00000  Uiso   1.00
H351   H     0.98664   0.44607   0.03350   0.00000  Uiso   1.00
H352   H     0.26703   0.50551   0.94143   0.00000  Uiso   1.00
H353   H     0.54748   0.28180   0.01210   0.00000  Uiso   1.00
H354   H     0.55936   0.21454   0.93047   0.00000  Uiso   1.00
H355   H     0.70799   0.29571   0.07983   0.00000  Uiso   1.00
H356   H     0.36673   0.32390   0.03616   0.00000  Uiso   1.00
H357   H     0.58584   0.15773   0.82400   0.00000  Uiso   1.00
H358   H     0.89919   0.32889   0.13893   0.00000  Uiso   1.00
H359   H     0.17958   0.38833   0.04686   0.00000  Uiso   1.00
O360   O     0.63926   0.17454   0.71537   0.00000  Uiso   1.00
O361   O     0.05035   0.39910   0.12855   0.00000  Uiso   1.00
O362   O     0.10624   0.47709   0.00776   0.00000  Uiso   1.00
N363   N     0.65106   0.25656   0.75458   0.00000  Uiso   1.00
N364   N     0.94403   0.41658   0.04902   0.00000  Uiso   1.00
N365   N     0.27127   0.47216   0.96296   0.00000  Uiso   1.00
N366   N     0.60400   0.19351   0.81131   0.00000  Uiso   1.00
N367   N     0.89697   0.35352   0.10575   0.00000  Uiso   1.00
N368   N     0.22421   0.40911   0.01969   0.00000  Uiso   1.00
