data_job_05236
_audit_creation_date              2018-12-19
_audit_creation_method            'Materials Studio'
_symmetry_space_group_name_H-M    'P1'
_symmetry_Int_Tables_number       1
_symmetry_cell_setting            triclinic
loop_
_symmetry_equiv_pos_as_xyz
  x,y,z
_cell_length_a                    14.7082
_cell_length_b                    21.3722
_cell_length_c                    19.1438
_cell_angle_alpha                 90.0000
_cell_angle_beta                  90.0000
_cell_angle_gamma                 90.0000
loop_
_atom_site_label
_atom_site_type_symbol
_atom_site_fract_x
_atom_site_fract_y
_atom_site_fract_z
_atom_site_U_iso_or_equiv
_atom_site_adp_type
_atom_site_occupancy
C1     C     0.96718   0.06534   0.82633   0.00000  Uiso   1.00
C2     C     0.91275   0.10553   0.77550   0.00000  Uiso   1.00
C3     C     0.82170   0.12142   0.78235   0.00000  Uiso   1.00
C4     C     0.78437   0.15859   0.73025   0.00000  Uiso   1.00
C5     C     0.69195   0.21784   0.65995   0.00000  Uiso   1.00
C6     C     0.00577   0.01147   0.78334   0.00000  Uiso   1.00
C7     C     0.99294   0.94827   0.79679   0.00000  Uiso   1.00
C8     C     0.03392   0.90627   0.75129   0.00000  Uiso   1.00
C9     C     0.08596   0.81949   0.69320   0.00000  Uiso   1.00
C10    C     0.04853   0.10491   0.84840   0.00000  Uiso   1.00
C11    C     0.07167   0.12027   0.91655   0.00000  Uiso   1.00
C12    C     0.14866   0.15693   0.92583   0.00000  Uiso   1.00
C13    C     0.26709   0.21524   0.96875   0.00000  Uiso   1.00
C14    C     0.06279   0.10312   0.72162   0.00000  Uiso   1.00
C15    C     0.96468   0.12604   0.71862   0.00000  Uiso   1.00
C16    C     0.92748   0.16321   0.66650   0.00000  Uiso   1.00
C17    C     0.83639   0.17915   0.67327   0.00000  Uiso   1.00
C18    C     0.05770   0.03198   0.72646   0.00000  Uiso   1.00
C19    C     0.09871   0.99006   0.68094   0.00000  Uiso   1.00
C20    C     0.08594   0.92682   0.69432   0.00000  Uiso   1.00
C21    C     0.10046   0.12543   0.79152   0.00000  Uiso   1.00
C22    C     0.17744   0.16207   0.80070   0.00000  Uiso   1.00
C23    C     0.20068   0.17749   0.86885   0.00000  Uiso   1.00
H24    H     0.92675   0.04937   0.87061   0.00000  Uiso   1.00
H25    H     0.78154   0.10552   0.82637   0.00000  Uiso   1.00
H26    H     0.95275   0.93241   0.84081   0.00000  Uiso   1.00
H27    H     0.03146   0.10439   0.96055   0.00000  Uiso   1.00
H28    H     0.64343   0.17681   0.75223   0.00000  Uiso   1.00
H29    H     0.00448   0.81179   0.78269   0.00000  Uiso   1.00
H30    H     0.17045   0.17444   0.03519   0.00000  Uiso   1.00
H31    H     0.10322   0.11909   0.67734   0.00000  Uiso   1.00
H32    H     0.96768   0.17908   0.62249   0.00000  Uiso   1.00
H33    H     0.13890   0.00596   0.63693   0.00000  Uiso   1.00
H34    H     0.21761   0.17794   0.75667   0.00000  Uiso   1.00
H35    H     0.79451   0.23651   0.58675   0.00000  Uiso   1.00
H36    H     0.15556   0.87149   0.61722   0.00000  Uiso   1.00
H37    H     0.32154   0.23413   0.86971   0.00000  Uiso   1.00
O38    O     0.62662   0.24485   0.63689   0.00000  Uiso   1.00
O39    O     0.10031   0.76596   0.67686   0.00000  Uiso   1.00
O40    O     0.31807   0.24174   0.00813   0.00000  Uiso   1.00
N41    N     0.69759   0.18264   0.72082   0.00000  Uiso   1.00
N42    N     0.03514   0.84137   0.74929   0.00000  Uiso   1.00
N43    N     0.19033   0.18040   0.98536   0.00000  Uiso   1.00
N44    N     0.77889   0.21476   0.63177   0.00000  Uiso   1.00
N45    N     0.11643   0.87349   0.66025   0.00000  Uiso   1.00
N46    N     0.27162   0.21252   0.89632   0.00000  Uiso   1.00
C47    C     0.53282   0.93466   0.82633   0.00000  Uiso   1.00
C48    C     0.58725   0.89447   0.77550   0.00000  Uiso   1.00
C49    C     0.67830   0.87858   0.78235   0.00000  Uiso   1.00
C50    C     0.71563   0.84141   0.73025   0.00000  Uiso   1.00
C51    C     0.80805   0.78216   0.65995   0.00000  Uiso   1.00
C52    C     0.49423   0.98853   0.78334   0.00000  Uiso   1.00
C53    C     0.50706   0.05173   0.79679   0.00000  Uiso   1.00
C54    C     0.46608   0.09373   0.75129   0.00000  Uiso   1.00
C55    C     0.41404   0.18051   0.69320   0.00000  Uiso   1.00
C56    C     0.45147   0.89509   0.84840   0.00000  Uiso   1.00
C57    C     0.42833   0.87973   0.91655   0.00000  Uiso   1.00
C58    C     0.35134   0.84307   0.92583   0.00000  Uiso   1.00
C59    C     0.23291   0.78476   0.96875   0.00000  Uiso   1.00
C60    C     0.43721   0.89688   0.72162   0.00000  Uiso   1.00
C61    C     0.53532   0.87396   0.71862   0.00000  Uiso   1.00
C62    C     0.57252   0.83679   0.66650   0.00000  Uiso   1.00
C63    C     0.66361   0.82085   0.67327   0.00000  Uiso   1.00
C64    C     0.44230   0.96802   0.72646   0.00000  Uiso   1.00
C65    C     0.40129   0.00994   0.68094   0.00000  Uiso   1.00
C66    C     0.41406   0.07318   0.69432   0.00000  Uiso   1.00
C67    C     0.39954   0.87457   0.79152   0.00000  Uiso   1.00
C68    C     0.32256   0.83793   0.80070   0.00000  Uiso   1.00
C69    C     0.29932   0.82251   0.86885   0.00000  Uiso   1.00
H70    H     0.57325   0.95063   0.87061   0.00000  Uiso   1.00
H71    H     0.71846   0.89448   0.82637   0.00000  Uiso   1.00
H72    H     0.54725   0.06759   0.84081   0.00000  Uiso   1.00
H73    H     0.46854   0.89561   0.96055   0.00000  Uiso   1.00
H74    H     0.85657   0.82319   0.75223   0.00000  Uiso   1.00
H75    H     0.49552   0.18821   0.78269   0.00000  Uiso   1.00
H76    H     0.32955   0.82556   0.03519   0.00000  Uiso   1.00
H77    H     0.39678   0.88091   0.67734   0.00000  Uiso   1.00
H78    H     0.53232   0.82092   0.62249   0.00000  Uiso   1.00
H79    H     0.36110   0.99404   0.63693   0.00000  Uiso   1.00
H80    H     0.28239   0.82206   0.75667   0.00000  Uiso   1.00
H81    H     0.70549   0.76349   0.58675   0.00000  Uiso   1.00
H82    H     0.34444   0.12851   0.61722   0.00000  Uiso   1.00
H83    H     0.17846   0.76587   0.86971   0.00000  Uiso   1.00
O84    O     0.87338   0.75515   0.63689   0.00000  Uiso   1.00
O85    O     0.39969   0.23404   0.67686   0.00000  Uiso   1.00
O86    O     0.18193   0.75826   0.00813   0.00000  Uiso   1.00
N87    N     0.80241   0.81736   0.72082   0.00000  Uiso   1.00
N88    N     0.46486   0.15863   0.74929   0.00000  Uiso   1.00
N89    N     0.30967   0.81960   0.98536   0.00000  Uiso   1.00
N90    N     0.72111   0.78524   0.63177   0.00000  Uiso   1.00
N91    N     0.38357   0.12651   0.66025   0.00000  Uiso   1.00
N92    N     0.22838   0.78748   0.89632   0.00000  Uiso   1.00
C93    C     0.53282   0.56534   0.67367   0.00000  Uiso   1.00
C94    C     0.58725   0.60553   0.72450   0.00000  Uiso   1.00
C95    C     0.67830   0.62142   0.71765   0.00000  Uiso   1.00
C96    C     0.71563   0.65859   0.76975   0.00000  Uiso   1.00
C97    C     0.80805   0.71784   0.84005   0.00000  Uiso   1.00
C98    C     0.49423   0.51147   0.71666   0.00000  Uiso   1.00
C99    C     0.50706   0.44827   0.70321   0.00000  Uiso   1.00
C100   C     0.46608   0.40627   0.74871   0.00000  Uiso   1.00
C101   C     0.41404   0.31949   0.80680   0.00000  Uiso   1.00
C102   C     0.45147   0.60491   0.65160   0.00000  Uiso   1.00
C103   C     0.42833   0.62027   0.58345   0.00000  Uiso   1.00
C104   C     0.35134   0.65693   0.57417   0.00000  Uiso   1.00
C105   C     0.23291   0.71524   0.53125   0.00000  Uiso   1.00
C106   C     0.43721   0.60312   0.77838   0.00000  Uiso   1.00
C107   C     0.53532   0.62604   0.78138   0.00000  Uiso   1.00
C108   C     0.57252   0.66321   0.83350   0.00000  Uiso   1.00
C109   C     0.66361   0.67915   0.82673   0.00000  Uiso   1.00
C110   C     0.44230   0.53198   0.77354   0.00000  Uiso   1.00
C111   C     0.40129   0.49006   0.81906   0.00000  Uiso   1.00
C112   C     0.41406   0.42682   0.80568   0.00000  Uiso   1.00
C113   C     0.39954   0.62543   0.70848   0.00000  Uiso   1.00
C114   C     0.32256   0.66207   0.69930   0.00000  Uiso   1.00
C115   C     0.29932   0.67749   0.63115   0.00000  Uiso   1.00
H116   H     0.57325   0.54937   0.62939   0.00000  Uiso   1.00
H117   H     0.71846   0.60552   0.67363   0.00000  Uiso   1.00
H118   H     0.54725   0.43241   0.65919   0.00000  Uiso   1.00
H119   H     0.46854   0.60439   0.53945   0.00000  Uiso   1.00
H120   H     0.85657   0.67681   0.74777   0.00000  Uiso   1.00
H121   H     0.49552   0.31179   0.71731   0.00000  Uiso   1.00
H122   H     0.32955   0.67444   0.46481   0.00000  Uiso   1.00
H123   H     0.39678   0.61909   0.82266   0.00000  Uiso   1.00
H124   H     0.53232   0.67908   0.87751   0.00000  Uiso   1.00
H125   H     0.36110   0.50596   0.86307   0.00000  Uiso   1.00
H126   H     0.28239   0.67794   0.74333   0.00000  Uiso   1.00
H127   H     0.70549   0.73651   0.91325   0.00000  Uiso   1.00
H128   H     0.34444   0.37149   0.88278   0.00000  Uiso   1.00
H129   H     0.17846   0.73413   0.63029   0.00000  Uiso   1.00
O130   O     0.87338   0.74485   0.86311   0.00000  Uiso   1.00
O131   O     0.39969   0.26596   0.82314   0.00000  Uiso   1.00
O132   O     0.18193   0.74174   0.49187   0.00000  Uiso   1.00
N133   N     0.80241   0.68264   0.77918   0.00000  Uiso   1.00
N134   N     0.46486   0.34137   0.75071   0.00000  Uiso   1.00
N135   N     0.30967   0.68040   0.51464   0.00000  Uiso   1.00
N136   N     0.72111   0.71476   0.86823   0.00000  Uiso   1.00
N137   N     0.38357   0.37349   0.83975   0.00000  Uiso   1.00
N138   N     0.22838   0.71252   0.60368   0.00000  Uiso   1.00
C139   C     0.96718   0.43466   0.67367   0.00000  Uiso   1.00
C140   C     0.91275   0.39447   0.72450   0.00000  Uiso   1.00
C141   C     0.82170   0.37858   0.71765   0.00000  Uiso   1.00
C142   C     0.78437   0.34141   0.76975   0.00000  Uiso   1.00
C143   C     0.69195   0.28216   0.84005   0.00000  Uiso   1.00
C144   C     0.00577   0.48853   0.71666   0.00000  Uiso   1.00
C145   C     0.99294   0.55173   0.70321   0.00000  Uiso   1.00
C146   C     0.03392   0.59373   0.74871   0.00000  Uiso   1.00
C147   C     0.08596   0.68051   0.80680   0.00000  Uiso   1.00
C148   C     0.04853   0.39509   0.65160   0.00000  Uiso   1.00
C149   C     0.07167   0.37973   0.58345   0.00000  Uiso   1.00
C150   C     0.14866   0.34307   0.57417   0.00000  Uiso   1.00
C151   C     0.26709   0.28476   0.53125   0.00000  Uiso   1.00
C152   C     0.06279   0.39688   0.77838   0.00000  Uiso   1.00
C153   C     0.96468   0.37396   0.78138   0.00000  Uiso   1.00
C154   C     0.92748   0.33679   0.83350   0.00000  Uiso   1.00
C155   C     0.83639   0.32085   0.82673   0.00000  Uiso   1.00
C156   C     0.05770   0.46802   0.77354   0.00000  Uiso   1.00
C157   C     0.09871   0.50994   0.81906   0.00000  Uiso   1.00
C158   C     0.08594   0.57318   0.80568   0.00000  Uiso   1.00
C159   C     0.10046   0.37457   0.70848   0.00000  Uiso   1.00
C160   C     0.17744   0.33793   0.69930   0.00000  Uiso   1.00
C161   C     0.20068   0.32251   0.63115   0.00000  Uiso   1.00
H162   H     0.92675   0.45063   0.62939   0.00000  Uiso   1.00
H163   H     0.78154   0.39448   0.67363   0.00000  Uiso   1.00
H164   H     0.95275   0.56759   0.65919   0.00000  Uiso   1.00
H165   H     0.03146   0.39561   0.53945   0.00000  Uiso   1.00
H166   H     0.64343   0.32319   0.74777   0.00000  Uiso   1.00
H167   H     0.00448   0.68821   0.71731   0.00000  Uiso   1.00
H168   H     0.17045   0.32556   0.46481   0.00000  Uiso   1.00
H169   H     0.10322   0.38091   0.82266   0.00000  Uiso   1.00
H170   H     0.96768   0.32092   0.87751   0.00000  Uiso   1.00
H171   H     0.13890   0.49404   0.86307   0.00000  Uiso   1.00
H172   H     0.21761   0.32206   0.74333   0.00000  Uiso   1.00
H173   H     0.79451   0.26349   0.91325   0.00000  Uiso   1.00
H174   H     0.15556   0.62851   0.88278   0.00000  Uiso   1.00
H175   H     0.32154   0.26587   0.63029   0.00000  Uiso   1.00
O176   O     0.62662   0.25515   0.86311   0.00000  Uiso   1.00
O177   O     0.10031   0.73404   0.82314   0.00000  Uiso   1.00
O178   O     0.31807   0.25826   0.49187   0.00000  Uiso   1.00
N179   N     0.69759   0.31736   0.77918   0.00000  Uiso   1.00
N180   N     0.03514   0.65863   0.75071   0.00000  Uiso   1.00
N181   N     0.19033   0.31960   0.51464   0.00000  Uiso   1.00
N182   N     0.77889   0.28524   0.86823   0.00000  Uiso   1.00
N183   N     0.11643   0.62651   0.83975   0.00000  Uiso   1.00
N184   N     0.27162   0.28748   0.60368   0.00000  Uiso   1.00
C185   C     0.03282   0.93466   0.17367   0.00000  Uiso   1.00
C186   C     0.08725   0.89447   0.22450   0.00000  Uiso   1.00
C187   C     0.17830   0.87858   0.21765   0.00000  Uiso   1.00
C188   C     0.21563   0.84141   0.26975   0.00000  Uiso   1.00
C189   C     0.30805   0.78216   0.34005   0.00000  Uiso   1.00
C190   C     0.99423   0.98853   0.21666   0.00000  Uiso   1.00
C191   C     0.00706   0.05173   0.20321   0.00000  Uiso   1.00
C192   C     0.96608   0.09373   0.24871   0.00000  Uiso   1.00
C193   C     0.91404   0.18051   0.30680   0.00000  Uiso   1.00
C194   C     0.95147   0.89509   0.15160   0.00000  Uiso   1.00
C195   C     0.92833   0.87973   0.08345   0.00000  Uiso   1.00
C196   C     0.85134   0.84307   0.07417   0.00000  Uiso   1.00
C197   C     0.73291   0.78476   0.03125   0.00000  Uiso   1.00
C198   C     0.93721   0.89688   0.27838   0.00000  Uiso   1.00
C199   C     0.03532   0.87396   0.28138   0.00000  Uiso   1.00
C200   C     0.07252   0.83679   0.33350   0.00000  Uiso   1.00
C201   C     0.16361   0.82085   0.32673   0.00000  Uiso   1.00
C202   C     0.94230   0.96802   0.27354   0.00000  Uiso   1.00
C203   C     0.90129   0.00994   0.31906   0.00000  Uiso   1.00
C204   C     0.91406   0.07318   0.30568   0.00000  Uiso   1.00
C205   C     0.89954   0.87457   0.20848   0.00000  Uiso   1.00
C206   C     0.82256   0.83793   0.19930   0.00000  Uiso   1.00
C207   C     0.79932   0.82251   0.13115   0.00000  Uiso   1.00
H208   H     0.07325   0.95063   0.12939   0.00000  Uiso   1.00
H209   H     0.21846   0.89448   0.17363   0.00000  Uiso   1.00
H210   H     0.04725   0.06759   0.15919   0.00000  Uiso   1.00
H211   H     0.96854   0.89561   0.03945   0.00000  Uiso   1.00
H212   H     0.35657   0.82319   0.24777   0.00000  Uiso   1.00
H213   H     0.99552   0.18821   0.21731   0.00000  Uiso   1.00
H214   H     0.82955   0.82556   0.96481   0.00000  Uiso   1.00
H215   H     0.89678   0.88091   0.32266   0.00000  Uiso   1.00
H216   H     0.03232   0.82092   0.37751   0.00000  Uiso   1.00
H217   H     0.86110   0.99404   0.36307   0.00000  Uiso   1.00
H218   H     0.78239   0.82206   0.24333   0.00000  Uiso   1.00
H219   H     0.20549   0.76349   0.41325   0.00000  Uiso   1.00
H220   H     0.84444   0.12851   0.38278   0.00000  Uiso   1.00
H221   H     0.67846   0.76587   0.13029   0.00000  Uiso   1.00
O222   O     0.37338   0.75515   0.36311   0.00000  Uiso   1.00
O223   O     0.89969   0.23404   0.32314   0.00000  Uiso   1.00
O224   O     0.68193   0.75826   0.99187   0.00000  Uiso   1.00
N225   N     0.30241   0.81736   0.27918   0.00000  Uiso   1.00
N226   N     0.96486   0.15863   0.25071   0.00000  Uiso   1.00
N227   N     0.80967   0.81960   0.01464   0.00000  Uiso   1.00
N228   N     0.22111   0.78524   0.36823   0.00000  Uiso   1.00
N229   N     0.88357   0.12651   0.33975   0.00000  Uiso   1.00
N230   N     0.72838   0.78748   0.10368   0.00000  Uiso   1.00
C231   C     0.46718   0.06534   0.17367   0.00000  Uiso   1.00
C232   C     0.41275   0.10553   0.22450   0.00000  Uiso   1.00
C233   C     0.32170   0.12142   0.21765   0.00000  Uiso   1.00
C234   C     0.28437   0.15859   0.26975   0.00000  Uiso   1.00
C235   C     0.19195   0.21784   0.34005   0.00000  Uiso   1.00
C236   C     0.50577   0.01147   0.21666   0.00000  Uiso   1.00
C237   C     0.49294   0.94827   0.20321   0.00000  Uiso   1.00
C238   C     0.53392   0.90627   0.24871   0.00000  Uiso   1.00
C239   C     0.58596   0.81949   0.30680   0.00000  Uiso   1.00
C240   C     0.54853   0.10491   0.15160   0.00000  Uiso   1.00
C241   C     0.57167   0.12027   0.08345   0.00000  Uiso   1.00
C242   C     0.64866   0.15693   0.07417   0.00000  Uiso   1.00
C243   C     0.76709   0.21524   0.03125   0.00000  Uiso   1.00
C244   C     0.56279   0.10312   0.27838   0.00000  Uiso   1.00
C245   C     0.46468   0.12604   0.28138   0.00000  Uiso   1.00
C246   C     0.42748   0.16321   0.33350   0.00000  Uiso   1.00
C247   C     0.33639   0.17915   0.32673   0.00000  Uiso   1.00
C248   C     0.55770   0.03198   0.27354   0.00000  Uiso   1.00
C249   C     0.59871   0.99006   0.31906   0.00000  Uiso   1.00
C250   C     0.58594   0.92682   0.30568   0.00000  Uiso   1.00
C251   C     0.60046   0.12543   0.20848   0.00000  Uiso   1.00
C252   C     0.67744   0.16207   0.19930   0.00000  Uiso   1.00
C253   C     0.70068   0.17749   0.13115   0.00000  Uiso   1.00
H254   H     0.42675   0.04937   0.12939   0.00000  Uiso   1.00
H255   H     0.28154   0.10552   0.17363   0.00000  Uiso   1.00
H256   H     0.45275   0.93241   0.15919   0.00000  Uiso   1.00
H257   H     0.53146   0.10439   0.03945   0.00000  Uiso   1.00
H258   H     0.14343   0.17681   0.24777   0.00000  Uiso   1.00
H259   H     0.50448   0.81179   0.21731   0.00000  Uiso   1.00
H260   H     0.67045   0.17444   0.96481   0.00000  Uiso   1.00
H261   H     0.60322   0.11909   0.32266   0.00000  Uiso   1.00
H262   H     0.46768   0.17908   0.37751   0.00000  Uiso   1.00
H263   H     0.63890   0.00596   0.36307   0.00000  Uiso   1.00
H264   H     0.71761   0.17794   0.24333   0.00000  Uiso   1.00
H265   H     0.29451   0.23651   0.41325   0.00000  Uiso   1.00
H266   H     0.65556   0.87149   0.38278   0.00000  Uiso   1.00
H267   H     0.82154   0.23413   0.13029   0.00000  Uiso   1.00
O268   O     0.12662   0.24485   0.36311   0.00000  Uiso   1.00
O269   O     0.60031   0.76596   0.32314   0.00000  Uiso   1.00
O270   O     0.81807   0.24174   0.99187   0.00000  Uiso   1.00
N271   N     0.19759   0.18264   0.27918   0.00000  Uiso   1.00
N272   N     0.53514   0.84137   0.25071   0.00000  Uiso   1.00
N273   N     0.69033   0.18040   0.01464   0.00000  Uiso   1.00
N274   N     0.27889   0.21476   0.36823   0.00000  Uiso   1.00
N275   N     0.61643   0.87349   0.33975   0.00000  Uiso   1.00
N276   N     0.77162   0.21252   0.10368   0.00000  Uiso   1.00
C277   C     0.46718   0.43466   0.32633   0.00000  Uiso   1.00
C278   C     0.41275   0.39447   0.27550   0.00000  Uiso   1.00
C279   C     0.32170   0.37858   0.28235   0.00000  Uiso   1.00
C280   C     0.28437   0.34141   0.23025   0.00000  Uiso   1.00
C281   C     0.19195   0.28216   0.15995   0.00000  Uiso   1.00
C282   C     0.50577   0.48853   0.28334   0.00000  Uiso   1.00
C283   C     0.49294   0.55173   0.29679   0.00000  Uiso   1.00
C284   C     0.53392   0.59373   0.25129   0.00000  Uiso   1.00
C285   C     0.58596   0.68051   0.19320   0.00000  Uiso   1.00
C286   C     0.54853   0.39509   0.34840   0.00000  Uiso   1.00
C287   C     0.57167   0.37973   0.41655   0.00000  Uiso   1.00
C288   C     0.64866   0.34307   0.42583   0.00000  Uiso   1.00
C289   C     0.76709   0.28476   0.46875   0.00000  Uiso   1.00
C290   C     0.56279   0.39688   0.22162   0.00000  Uiso   1.00
C291   C     0.46468   0.37396   0.21862   0.00000  Uiso   1.00
C292   C     0.42748   0.33679   0.16650   0.00000  Uiso   1.00
C293   C     0.33639   0.32085   0.17327   0.00000  Uiso   1.00
C294   C     0.55770   0.46802   0.22646   0.00000  Uiso   1.00
C295   C     0.59871   0.50994   0.18094   0.00000  Uiso   1.00
C296   C     0.58594   0.57318   0.19432   0.00000  Uiso   1.00
C297   C     0.60046   0.37457   0.29152   0.00000  Uiso   1.00
C298   C     0.67744   0.33793   0.30070   0.00000  Uiso   1.00
C299   C     0.70068   0.32251   0.36885   0.00000  Uiso   1.00
H300   H     0.42675   0.45063   0.37061   0.00000  Uiso   1.00
H301   H     0.28154   0.39448   0.32637   0.00000  Uiso   1.00
H302   H     0.45275   0.56759   0.34081   0.00000  Uiso   1.00
H303   H     0.53146   0.39561   0.46055   0.00000  Uiso   1.00
H304   H     0.14343   0.32319   0.25223   0.00000  Uiso   1.00
H305   H     0.50448   0.68821   0.28269   0.00000  Uiso   1.00
H306   H     0.67045   0.32556   0.53519   0.00000  Uiso   1.00
H307   H     0.60322   0.38091   0.17734   0.00000  Uiso   1.00
H308   H     0.46768   0.32092   0.12249   0.00000  Uiso   1.00
H309   H     0.63890   0.49404   0.13693   0.00000  Uiso   1.00
H310   H     0.71761   0.32206   0.25667   0.00000  Uiso   1.00
H311   H     0.29451   0.26349   0.08675   0.00000  Uiso   1.00
H312   H     0.65556   0.62851   0.11722   0.00000  Uiso   1.00
H313   H     0.82154   0.26587   0.36971   0.00000  Uiso   1.00
O314   O     0.12662   0.25515   0.13689   0.00000  Uiso   1.00
O315   O     0.60031   0.73404   0.17686   0.00000  Uiso   1.00
O316   O     0.81807   0.25826   0.50813   0.00000  Uiso   1.00
N317   N     0.19759   0.31736   0.22082   0.00000  Uiso   1.00
N318   N     0.53514   0.65863   0.24929   0.00000  Uiso   1.00
N319   N     0.69033   0.31960   0.48536   0.00000  Uiso   1.00
N320   N     0.27889   0.28524   0.13177   0.00000  Uiso   1.00
N321   N     0.61643   0.62651   0.16025   0.00000  Uiso   1.00
N322   N     0.77162   0.28748   0.39632   0.00000  Uiso   1.00
C323   C     0.03282   0.56534   0.32633   0.00000  Uiso   1.00
C324   C     0.08725   0.60553   0.27550   0.00000  Uiso   1.00
C325   C     0.17830   0.62142   0.28235   0.00000  Uiso   1.00
C326   C     0.21563   0.65859   0.23025   0.00000  Uiso   1.00
C327   C     0.30805   0.71784   0.15995   0.00000  Uiso   1.00
C328   C     0.99423   0.51147   0.28334   0.00000  Uiso   1.00
C329   C     0.00706   0.44827   0.29679   0.00000  Uiso   1.00
C330   C     0.96608   0.40627   0.25129   0.00000  Uiso   1.00
C331   C     0.91404   0.31949   0.19320   0.00000  Uiso   1.00
C332   C     0.95147   0.60491   0.34840   0.00000  Uiso   1.00
C333   C     0.92833   0.62027   0.41655   0.00000  Uiso   1.00
C334   C     0.85134   0.65693   0.42583   0.00000  Uiso   1.00
C335   C     0.73291   0.71524   0.46875   0.00000  Uiso   1.00
C336   C     0.93721   0.60312   0.22162   0.00000  Uiso   1.00
C337   C     0.03532   0.62604   0.21862   0.00000  Uiso   1.00
C338   C     0.07252   0.66321   0.16650   0.00000  Uiso   1.00
C339   C     0.16361   0.67915   0.17327   0.00000  Uiso   1.00
C340   C     0.94230   0.53198   0.22646   0.00000  Uiso   1.00
C341   C     0.90129   0.49006   0.18094   0.00000  Uiso   1.00
C342   C     0.91406   0.42682   0.19432   0.00000  Uiso   1.00
C343   C     0.89954   0.62543   0.29152   0.00000  Uiso   1.00
C344   C     0.82256   0.66207   0.30070   0.00000  Uiso   1.00
C345   C     0.79932   0.67749   0.36885   0.00000  Uiso   1.00
H346   H     0.07325   0.54937   0.37061   0.00000  Uiso   1.00
H347   H     0.21846   0.60552   0.32637   0.00000  Uiso   1.00
H348   H     0.04725   0.43241   0.34081   0.00000  Uiso   1.00
H349   H     0.96854   0.60439   0.46055   0.00000  Uiso   1.00
H350   H     0.35657   0.67681   0.25223   0.00000  Uiso   1.00
H351   H     0.99552   0.31179   0.28269   0.00000  Uiso   1.00
H352   H     0.82955   0.67444   0.53519   0.00000  Uiso   1.00
H353   H     0.89678   0.61909   0.17734   0.00000  Uiso   1.00
H354   H     0.03232   0.67908   0.12249   0.00000  Uiso   1.00
H355   H     0.86110   0.50596   0.13693   0.00000  Uiso   1.00
H356   H     0.78239   0.67794   0.25667   0.00000  Uiso   1.00
H357   H     0.20549   0.73651   0.08675   0.00000  Uiso   1.00
H358   H     0.84444   0.37149   0.11722   0.00000  Uiso   1.00
H359   H     0.67846   0.73413   0.36971   0.00000  Uiso   1.00
O360   O     0.37338   0.74485   0.13689   0.00000  Uiso   1.00
O361   O     0.89969   0.26596   0.17686   0.00000  Uiso   1.00
O362   O     0.68193   0.74174   0.50813   0.00000  Uiso   1.00
N363   N     0.30241   0.68264   0.22082   0.00000  Uiso   1.00
N364   N     0.96486   0.34137   0.24929   0.00000  Uiso   1.00
N365   N     0.80967   0.68040   0.48536   0.00000  Uiso   1.00
N366   N     0.22111   0.71476   0.13177   0.00000  Uiso   1.00
N367   N     0.88357   0.37349   0.16025   0.00000  Uiso   1.00
N368   N     0.72838   0.71252   0.39632   0.00000  Uiso   1.00
