data_job_04438
_audit_creation_date              2018-12-19
_audit_creation_method            'Materials Studio'
_symmetry_space_group_name_H-M    'P1'
_symmetry_Int_Tables_number       1
_symmetry_cell_setting            triclinic
loop_
_symmetry_equiv_pos_as_xyz
  x,y,z
_cell_length_a                    25.8827
_cell_length_b                    9.9751
_cell_length_c                    20.7580
_cell_angle_alpha                 90.0000
_cell_angle_beta                  151.7051
_cell_angle_gamma                 90.0000
loop_
_atom_site_label
_atom_site_type_symbol
_atom_site_fract_x
_atom_site_fract_y
_atom_site_fract_z
_atom_site_U_iso_or_equiv
_atom_site_adp_type
_atom_site_occupancy
C1     C     0.36944   0.69593   0.41209   0.00000  Uiso   1.00
C2     C     0.47019   0.77933   0.50706   0.00000  Uiso   1.00
C3     C     0.51311   0.80025   0.49315   0.00000  Uiso   1.00
C4     C     0.60578   0.87966   0.59069   0.00000  Uiso   1.00
C5     C     0.75496   0.00052   0.72183   0.00000  Uiso   1.00
C6     C     0.40631   0.59064   0.50117   0.00000  Uiso   1.00
C7     C     0.39550   0.45292   0.48229   0.00000  Uiso   1.00
C8     C     0.43438   0.37349   0.57486   0.00000  Uiso   1.00
C9     C     0.48431   0.20141   0.69680   0.00000  Uiso   1.00
C10    C     0.29231   0.78897   0.36373   0.00000  Uiso   1.00
C11    C     0.18563   0.81798   0.22928   0.00000  Uiso   1.00
C12    C     0.12852   0.90551   0.20614   0.00000  Uiso   1.00
C13    C     0.00144   0.04137   0.11468   0.00000  Uiso   1.00
C14    C     0.45770   0.79976   0.61007   0.00000  Uiso   1.00
C15    C     0.51813   0.83572   0.61460   0.00000  Uiso   1.00
C16    C     0.61075   0.91513   0.71218   0.00000  Uiso   1.00
C17    C     0.65380   0.93617   0.69841   0.00000  Uiso   1.00
C18    C     0.45425   0.64703   0.60870   0.00000  Uiso   1.00
C19    C     0.49314   0.56779   0.70132   0.00000  Uiso   1.00
C20    C     0.48240   0.42999   0.68259   0.00000  Uiso   1.00
C21    C     0.34024   0.84537   0.47126   0.00000  Uiso   1.00
C22    C     0.28328   0.93286   0.44832   0.00000  Uiso   1.00
C23    C     0.17654   0.96201   0.31387   0.00000  Uiso   1.00
H24    H     0.33212   0.65202   0.32838   0.00000  Uiso   1.00
H25    H     0.47599   0.75658   0.40992   0.00000  Uiso   1.00
H26    H     0.35839   0.40930   0.39906   0.00000  Uiso   1.00
H27    H     0.14856   0.77432   0.14610   0.00000  Uiso   1.00
H28    H     0.65667   0.89733   0.54777   0.00000  Uiso   1.00
H29    H     0.40866   0.16509   0.52484   0.00000  Uiso   1.00
H30    H     0.96619   0.93479   0.99141   0.00000  Uiso   1.00
H31    H     0.49502   0.84367   0.69379   0.00000  Uiso   1.00
H32    H     0.64783   0.95876   0.79539   0.00000  Uiso   1.00
H33    H     0.53023   0.61147   0.78452   0.00000  Uiso   1.00
H34    H     0.32040   0.97649   0.53156   0.00000  Uiso   1.00
H35    H     0.79614   0.06142   0.86064   0.00000  Uiso   1.00
H36    H     0.54813   0.32917   0.83769   0.00000  Uiso   1.00
H37    H     0.10566   0.09887   0.30428   0.00000  Uiso   1.00
O38    O     0.82401   0.05159   0.76447   0.00000  Uiso   1.00
O39    O     0.49862   0.09091   0.73435   0.00000  Uiso   1.00
O40    O     0.91811   0.10074   0.03452   0.00000  Uiso   1.00
N41    N     0.66851   0.92018   0.60745   0.00000  Uiso   1.00
N42    N     0.43665   0.23557   0.58601   0.00000  Uiso   1.00
N43    N     0.02297   0.95515   0.08731   0.00000  Uiso   1.00
N44    N     0.74355   0.00848   0.77579   0.00000  Uiso   1.00
N45    N     0.51170   0.32387   0.75436   0.00000  Uiso   1.00
N46    N     0.09802   0.04344   0.25566   0.00000  Uiso   1.00
C47    C     0.83768   0.45677   0.77578   0.00000  Uiso   1.00
C48    C     0.94190   0.37399   0.88577   0.00000  Uiso   1.00
C49    C     0.01668   0.35490   0.01718   0.00000  Uiso   1.00
C50    C     0.10685   0.27577   0.10248   0.00000  Uiso   1.00
C51    C     0.26647   0.15610   0.28008   0.00000  Uiso   1.00
C52    C     0.84475   0.56071   0.72983   0.00000  Uiso   1.00
C53    C     0.83782   0.69860   0.73013   0.00000  Uiso   1.00
C54    C     0.84619   0.77664   0.68415   0.00000  Uiso   1.00
C55    C     0.85489   0.94685   0.61956   0.00000  Uiso   1.00
C56    C     0.74499   0.36257   0.65541   0.00000  Uiso   1.00
C57    C     0.65417   0.33389   0.59310   0.00000  Uiso   1.00
C58    C     0.57853   0.24513   0.48444   0.00000  Uiso   1.00
C59    C     0.43235   0.10770   0.30430   0.00000  Uiso   1.00
C60    C     0.86483   0.35017   0.69358   0.00000  Uiso   1.00
C61    C     0.95665   0.31610   0.84111   0.00000  Uiso   1.00
C62    C     0.04672   0.23697   0.92624   0.00000  Uiso   1.00
C63    C     0.12162   0.21776   0.05776   0.00000  Uiso   1.00
C64    C     0.85949   0.50282   0.68519   0.00000  Uiso   1.00
C65    C     0.86786   0.58067   0.63918   0.00000  Uiso   1.00
C66    C     0.86096   0.71864   0.63942   0.00000  Uiso   1.00
C67    C     0.75974   0.30467   0.61076   0.00000  Uiso   1.00
C68    C     0.68422   0.21595   0.50216   0.00000  Uiso   1.00
C69    C     0.59331   0.18713   0.43971   0.00000  Uiso   1.00
H70    H     0.82620   0.50185   0.81054   0.00000  Uiso   1.00
H71    H     0.00525   0.39974   0.05170   0.00000  Uiso   1.00
H72    H     0.82640   0.74338   0.76468   0.00000  Uiso   1.00
H73    H     0.64279   0.37872   0.62768   0.00000  Uiso   1.00
H74    H     0.21029   0.26103   0.29940   0.00000  Uiso   1.00
H75    H     0.83314   0.98561   0.69415   0.00000  Uiso   1.00
H76    H     0.44595   0.21666   0.40526   0.00000  Uiso   1.00
H77    H     0.87631   0.30510   0.65881   0.00000  Uiso   1.00
H78    H     0.05811   0.19218   0.89165   0.00000  Uiso   1.00
H79    H     0.87927   0.53583   0.60463   0.00000  Uiso   1.00
H80    H     0.69565   0.17116   0.46764   0.00000  Uiso   1.00
H81    H     0.25320   0.09257   0.16950   0.00000  Uiso   1.00
H82    H     0.87605   0.81716   0.56425   0.00000  Uiso   1.00
H83    H     0.48886   0.04820   0.27537   0.00000  Uiso   1.00
O84    O     0.35045   0.10611   0.39037   0.00000  Uiso   1.00
O85    O     0.85563   0.05673   0.59629   0.00000  Uiso   1.00
O86    O     0.34765   0.04787   0.21728   0.00000  Uiso   1.00
N87    N     0.19542   0.23686   0.23686   0.00000  Uiso   1.00
N88    N     0.84283   0.91430   0.67102   0.00000  Uiso   1.00
N89    N     0.48083   0.19542   0.40091   0.00000  Uiso   1.00
N90    N     0.21851   0.14621   0.16697   0.00000  Uiso   1.00
N91    N     0.86592   0.82366   0.60112   0.00000  Uiso   1.00
N92    N     0.50392   0.10477   0.33101   0.00000  Uiso   1.00
C93    C     0.36944   0.30407   0.91209   0.00000  Uiso   1.00
C94    C     0.47019   0.22067   0.00706   0.00000  Uiso   1.00
C95    C     0.51311   0.19975   0.99315   0.00000  Uiso   1.00
C96    C     0.60578   0.12034   0.09069   0.00000  Uiso   1.00
C97    C     0.75496   0.99948   0.22183   0.00000  Uiso   1.00
C98    C     0.40631   0.40936   0.00117   0.00000  Uiso   1.00
C99    C     0.39550   0.54708   0.98229   0.00000  Uiso   1.00
C100   C     0.43438   0.62651   0.07486   0.00000  Uiso   1.00
C101   C     0.48431   0.79859   0.19680   0.00000  Uiso   1.00
C102   C     0.29231   0.21103   0.86373   0.00000  Uiso   1.00
C103   C     0.18563   0.18202   0.72928   0.00000  Uiso   1.00
C104   C     0.12852   0.09449   0.70614   0.00000  Uiso   1.00
C105   C     0.00144   0.95863   0.61468   0.00000  Uiso   1.00
C106   C     0.45770   0.20024   0.11007   0.00000  Uiso   1.00
C107   C     0.51813   0.16428   0.11460   0.00000  Uiso   1.00
C108   C     0.61075   0.08487   0.21218   0.00000  Uiso   1.00
C109   C     0.65380   0.06383   0.19841   0.00000  Uiso   1.00
C110   C     0.45425   0.35297   0.10870   0.00000  Uiso   1.00
C111   C     0.49314   0.43221   0.20132   0.00000  Uiso   1.00
C112   C     0.48240   0.57001   0.18259   0.00000  Uiso   1.00
C113   C     0.34024   0.15463   0.97126   0.00000  Uiso   1.00
C114   C     0.28328   0.06714   0.94832   0.00000  Uiso   1.00
C115   C     0.17654   0.03799   0.81387   0.00000  Uiso   1.00
H116   H     0.33212   0.34798   0.82838   0.00000  Uiso   1.00
H117   H     0.47599   0.24342   0.90992   0.00000  Uiso   1.00
H118   H     0.35839   0.59070   0.89906   0.00000  Uiso   1.00
H119   H     0.14856   0.22568   0.64610   0.00000  Uiso   1.00
H120   H     0.65667   0.10267   0.04777   0.00000  Uiso   1.00
H121   H     0.40866   0.83491   0.02484   0.00000  Uiso   1.00
H122   H     0.96619   0.06521   0.49141   0.00000  Uiso   1.00
H123   H     0.49502   0.15633   0.19379   0.00000  Uiso   1.00
H124   H     0.64783   0.04124   0.29539   0.00000  Uiso   1.00
H125   H     0.53023   0.38853   0.28452   0.00000  Uiso   1.00
H126   H     0.32040   0.02351   0.03156   0.00000  Uiso   1.00
H127   H     0.79614   0.93858   0.36064   0.00000  Uiso   1.00
H128   H     0.54813   0.67083   0.33769   0.00000  Uiso   1.00
H129   H     0.10566   0.90113   0.80428   0.00000  Uiso   1.00
O130   O     0.82401   0.94841   0.26447   0.00000  Uiso   1.00
O131   O     0.49862   0.90909   0.23435   0.00000  Uiso   1.00
O132   O     0.91811   0.89926   0.53452   0.00000  Uiso   1.00
N133   N     0.66851   0.07982   0.10745   0.00000  Uiso   1.00
N134   N     0.43665   0.76443   0.08601   0.00000  Uiso   1.00
N135   N     0.02297   0.04485   0.58731   0.00000  Uiso   1.00
N136   N     0.74355   0.99152   0.27579   0.00000  Uiso   1.00
N137   N     0.51170   0.67613   0.25436   0.00000  Uiso   1.00
N138   N     0.09802   0.95656   0.75566   0.00000  Uiso   1.00
C139   C     0.83768   0.54323   0.27578   0.00000  Uiso   1.00
C140   C     0.94190   0.62601   0.38577   0.00000  Uiso   1.00
C141   C     0.01668   0.64510   0.51718   0.00000  Uiso   1.00
C142   C     0.10685   0.72423   0.60248   0.00000  Uiso   1.00
C143   C     0.26647   0.84390   0.78008   0.00000  Uiso   1.00
C144   C     0.84475   0.43929   0.22983   0.00000  Uiso   1.00
C145   C     0.83782   0.30140   0.23013   0.00000  Uiso   1.00
C146   C     0.84619   0.22336   0.18415   0.00000  Uiso   1.00
C147   C     0.85489   0.05315   0.11956   0.00000  Uiso   1.00
C148   C     0.74499   0.63743   0.15541   0.00000  Uiso   1.00
C149   C     0.65417   0.66611   0.09310   0.00000  Uiso   1.00
C150   C     0.57853   0.75487   0.98444   0.00000  Uiso   1.00
C151   C     0.43235   0.89230   0.80430   0.00000  Uiso   1.00
C152   C     0.86483   0.64983   0.19358   0.00000  Uiso   1.00
C153   C     0.95665   0.68390   0.34111   0.00000  Uiso   1.00
C154   C     0.04672   0.76303   0.42624   0.00000  Uiso   1.00
C155   C     0.12162   0.78224   0.55776   0.00000  Uiso   1.00
C156   C     0.85949   0.49718   0.18519   0.00000  Uiso   1.00
C157   C     0.86786   0.41933   0.13918   0.00000  Uiso   1.00
C158   C     0.86096   0.28136   0.13942   0.00000  Uiso   1.00
C159   C     0.75974   0.69533   0.11076   0.00000  Uiso   1.00
C160   C     0.68422   0.78405   0.00216   0.00000  Uiso   1.00
C161   C     0.59331   0.81287   0.93971   0.00000  Uiso   1.00
H162   H     0.82620   0.49815   0.31054   0.00000  Uiso   1.00
H163   H     0.00525   0.60026   0.55170   0.00000  Uiso   1.00
H164   H     0.82640   0.25662   0.26468   0.00000  Uiso   1.00
H165   H     0.64279   0.62128   0.12768   0.00000  Uiso   1.00
H166   H     0.21029   0.73897   0.79940   0.00000  Uiso   1.00
H167   H     0.83314   0.01439   0.19415   0.00000  Uiso   1.00
H168   H     0.44595   0.78334   0.90526   0.00000  Uiso   1.00
H169   H     0.87631   0.69490   0.15881   0.00000  Uiso   1.00
H170   H     0.05811   0.80782   0.39165   0.00000  Uiso   1.00
H171   H     0.87927   0.46417   0.10463   0.00000  Uiso   1.00
H172   H     0.69565   0.82884   0.96764   0.00000  Uiso   1.00
H173   H     0.25320   0.90743   0.66950   0.00000  Uiso   1.00
H174   H     0.87605   0.18284   0.06425   0.00000  Uiso   1.00
H175   H     0.48886   0.95180   0.77537   0.00000  Uiso   1.00
O176   O     0.35045   0.89389   0.89037   0.00000  Uiso   1.00
O177   O     0.85563   0.94327   0.09629   0.00000  Uiso   1.00
O178   O     0.34765   0.95213   0.71728   0.00000  Uiso   1.00
N179   N     0.19542   0.76314   0.73686   0.00000  Uiso   1.00
N180   N     0.84283   0.08570   0.17102   0.00000  Uiso   1.00
N181   N     0.48083   0.80458   0.90091   0.00000  Uiso   1.00
N182   N     0.21851   0.85379   0.66697   0.00000  Uiso   1.00
N183   N     0.86592   0.17634   0.10112   0.00000  Uiso   1.00
N184   N     0.50392   0.89523   0.83101   0.00000  Uiso   1.00
