data_job_06838
_audit_creation_date              2018-12-19
_audit_creation_method            'Materials Studio'
_symmetry_space_group_name_H-M    'P1'
_symmetry_Int_Tables_number       1
_symmetry_cell_setting            triclinic
loop_
_symmetry_equiv_pos_as_xyz
  x,y,z
_cell_length_a                    21.6416
_cell_length_b                    21.9432
_cell_length_c                    23.6597
_cell_angle_alpha                 64.3256
_cell_angle_beta                  85.7655
_cell_angle_gamma                 64.0507
loop_
_atom_site_label
_atom_site_type_symbol
_atom_site_fract_x
_atom_site_fract_y
_atom_site_fract_z
_atom_site_U_iso_or_equiv
_atom_site_adp_type
_atom_site_occupancy
C1     C     0.70233   0.22602   0.48435   0.00000  Uiso   1.00
C2     C     0.76048   0.15074   0.53050   0.00000  Uiso   1.00
C3     C     0.75795   0.08187   0.55935   0.00000  Uiso   1.00
C4     C     0.81654   0.01954   0.60008   0.00000  Uiso   1.00
C5     C     0.89784   0.90167   0.67003   0.00000  Uiso   1.00
C6     C     0.68730   0.28086   0.51265   0.00000  Uiso   1.00
C7     C     0.62324   0.32140   0.52647   0.00000  Uiso   1.00
C8     C     0.62023   0.36861   0.55217   0.00000  Uiso   1.00
C9     C     0.58791   0.45281   0.59436   0.00000  Uiso   1.00
C10    C     0.73360   0.25454   0.42432   0.00000  Uiso   1.00
C11    C     0.70846   0.27297   0.36387   0.00000  Uiso   1.00
C12    C     0.74442   0.29804   0.31520   0.00000  Uiso   1.00
C13    C     0.78399   0.34138   0.22024   0.00000  Uiso   1.00
C14    C     0.81088   0.23780   0.50539   0.00000  Uiso   1.00
C15    C     0.81943   0.15714   0.54193   0.00000  Uiso   1.00
C16    C     0.87804   0.09490   0.58262   0.00000  Uiso   1.00
C17    C     0.87560   0.02594   0.61153   0.00000  Uiso   1.00
C18    C     0.74625   0.28726   0.52408   0.00000  Uiso   1.00
C19    C     0.74333   0.33443   0.54975   0.00000  Uiso   1.00
C20    C     0.67929   0.37502   0.56362   0.00000  Uiso   1.00
C21    C     0.79256   0.26094   0.43574   0.00000  Uiso   1.00
C22    C     0.82856   0.28599   0.38715   0.00000  Uiso   1.00
C23    C     0.80348   0.30445   0.32664   0.00000  Uiso   1.00
H24    H     0.65643   0.22105   0.47545   0.00000  Uiso   1.00
H25    H     0.71231   0.07694   0.55050   0.00000  Uiso   1.00
H26    H     0.57763   0.31644   0.51762   0.00000  Uiso   1.00
H27    H     0.66284   0.26802   0.35505   0.00000  Uiso   1.00
H28    H     0.80026   0.92000   0.63876   0.00000  Uiso   1.00
H29    H     0.51626   0.42502   0.56941   0.00000  Uiso   1.00
H30    H     0.69594   0.32291   0.22659   0.00000  Uiso   1.00
H31    H     0.85678   0.24278   0.51428   0.00000  Uiso   1.00
H32    H     0.92366   0.09986   0.59146   0.00000  Uiso   1.00
H33    H     0.78896   0.33936   0.55858   0.00000  Uiso   1.00
H34    H     0.87418   0.29094   0.39601   0.00000  Uiso   1.00
H35    H     0.97179   0.93860   0.67200   0.00000  Uiso   1.00
H36    H     0.68778   0.44363   0.60266   0.00000  Uiso   1.00
H37    H     0.86747   0.34151   0.25984   0.00000  Uiso   1.00
O38    O     0.92640   0.83490   0.70546   0.00000  Uiso   1.00
O39    O     0.55379   0.49747   0.61448   0.00000  Uiso   1.00
O40    O     0.78954   0.36350   0.16471   0.00000  Uiso   1.00
N41    N     0.83146   0.94399   0.63598   0.00000  Uiso   1.00
N42    N     0.56593   0.41614   0.57116   0.00000  Uiso   1.00
N43    N     0.73391   0.32069   0.25065   0.00000  Uiso   1.00
N44    N     0.92376   0.95400   0.65387   0.00000  Uiso   1.00
N45    N     0.65823   0.42615   0.58905   0.00000  Uiso   1.00
N46    N     0.82621   0.33070   0.26854   0.00000  Uiso   1.00
C47    C     0.25246   0.31703   0.40183   0.00000  Uiso   1.00
C48    C     0.24221   0.30206   0.47022   0.00000  Uiso   1.00
C49    C     0.29420   0.25629   0.52205   0.00000  Uiso   1.00
C50    C     0.27420   0.24990   0.58069   0.00000  Uiso   1.00
C51    C     0.26885   0.22084   0.68589   0.00000  Uiso   1.00
C52    C     0.20506   0.29420   0.37991   0.00000  Uiso   1.00
C53    C     0.22582   0.24183   0.35580   0.00000  Uiso   1.00
C54    C     0.17454   0.22884   0.33841   0.00000  Uiso   1.00
C55    C     0.11151   0.18762   0.30337   0.00000  Uiso   1.00
C56    C     0.22243   0.40282   0.36356   0.00000  Uiso   1.00
C57    C     0.25778   0.44178   0.32570   0.00000  Uiso   1.00
C58    C     0.22112   0.52023   0.29454   0.00000  Uiso   1.00
C59    C     0.18505   0.64765   0.23412   0.00000  Uiso   1.00
C60    C     0.12451   0.38708   0.41380   0.00000  Uiso   1.00
C61    C     0.17271   0.34011   0.47672   0.00000  Uiso   1.00
C62    C     0.15263   0.33379   0.53529   0.00000  Uiso   1.00
C63    C     0.20458   0.28801   0.58720   0.00000  Uiso   1.00
C64    C     0.13556   0.33225   0.38641   0.00000  Uiso   1.00
C65    C     0.08425   0.31933   0.36905   0.00000  Uiso   1.00
C66    C     0.10492   0.26695   0.34493   0.00000  Uiso   1.00
C67    C     0.15293   0.44087   0.37007   0.00000  Uiso   1.00
C68    C     0.11621   0.51928   0.33895   0.00000  Uiso   1.00
C69    C     0.15149   0.55834   0.30105   0.00000  Uiso   1.00
H70    H     0.30657   0.28741   0.39676   0.00000  Uiso   1.00
H71    H     0.34798   0.22685   0.51699   0.00000  Uiso   1.00
H72    H     0.27960   0.21240   0.35077   0.00000  Uiso   1.00
H73    H     0.31156   0.41231   0.32068   0.00000  Uiso   1.00
H74    H     0.36323   0.17646   0.65316   0.00000  Uiso   1.00
H75    H     0.21906   0.14602   0.30265   0.00000  Uiso   1.00
H76    H     0.28644   0.56758   0.23919   0.00000  Uiso   1.00
H77    H     0.07039   0.41670   0.41886   0.00000  Uiso   1.00
H78    H     0.09884   0.36324   0.54031   0.00000  Uiso   1.00
H79    H     0.03047   0.34879   0.37409   0.00000  Uiso   1.00
H80    H     0.06243   0.54870   0.34400   0.00000  Uiso   1.00
H81    H     0.16102   0.28716   0.67209   0.00000  Uiso   1.00
H82    H     0.01685   0.25672   0.32158   0.00000  Uiso   1.00
H83    H     0.08424   0.67827   0.25812   0.00000  Uiso   1.00
O84    O     0.28510   0.19429   0.74212   0.00000  Uiso   1.00
O85    O     0.09595   0.15436   0.28225   0.00000  Uiso   1.00
O86    O     0.18436   0.70743   0.19900   0.00000  Uiso   1.00
N87    N     0.31174   0.20986   0.64095   0.00000  Uiso   1.00
N88    N     0.17695   0.18140   0.31325   0.00000  Uiso   1.00
N89    N     0.23994   0.57551   0.25391   0.00000  Uiso   1.00
N90    N     0.20293   0.26943   0.65113   0.00000  Uiso   1.00
N91    N     0.06814   0.24096   0.32344   0.00000  Uiso   1.00
N92    N     0.13114   0.63508   0.26409   0.00000  Uiso   1.00
C93    C     0.82108   0.59269   0.38239   0.00000  Uiso   1.00
C94    C     0.86908   0.52144   0.44008   0.00000  Uiso   1.00
C95    C     0.87832   0.51584   0.49987   0.00000  Uiso   1.00
C96    C     0.92457   0.44568   0.54632   0.00000  Uiso   1.00
C97    C     0.99370   0.34453   0.63786   0.00000  Uiso   1.00
C98    C     0.86672   0.60657   0.33071   0.00000  Uiso   1.00
C99    C     0.87396   0.67256   0.29854   0.00000  Uiso   1.00
C100   C     0.91822   0.67407   0.25292   0.00000  Uiso   1.00
C101   C     0.98364   0.70512   0.17464   0.00000  Uiso   1.00
C102   C     0.77249   0.57149   0.36004   0.00000  Uiso   1.00
C103   C     0.70049   0.60798   0.35251   0.00000  Uiso   1.00
C104   C     0.66541   0.57997   0.33156   0.00000  Uiso   1.00
C105   C     0.58453   0.55654   0.29881   0.00000  Uiso   1.00
C106   C     0.88680   0.47805   0.35855   0.00000  Uiso   1.00
C107   C     0.90478   0.45918   0.42713   0.00000  Uiso   1.00
C108   C     0.95103   0.38901   0.47351   0.00000  Uiso   1.00
C109   C     0.96033   0.38330   0.53336   0.00000  Uiso   1.00
C110   C     0.90242   0.54431   0.31777   0.00000  Uiso   1.00
C111   C     0.94667   0.54573   0.27218   0.00000  Uiso   1.00
C112   C     0.95398   0.61169   0.23995   0.00000  Uiso   1.00
C113   C     0.80818   0.50923   0.34709   0.00000  Uiso   1.00
C114   C     0.77321   0.48115   0.32615   0.00000  Uiso   1.00
C115   C     0.70118   0.51759   0.31859   0.00000  Uiso   1.00
H116   H     0.79329   0.64116   0.39246   0.00000  Uiso   1.00
H117   H     0.85069   0.56404   0.50987   0.00000  Uiso   1.00
H118   H     0.84632   0.72073   0.30857   0.00000  Uiso   1.00
H119   H     0.67289   0.65617   0.36253   0.00000  Uiso   1.00
H120   H     0.93008   0.45108   0.63432   0.00000  Uiso   1.00
H121   H     0.92086   0.78149   0.20986   0.00000  Uiso   1.00
H122   H     0.55514   0.64534   0.32364   0.00000  Uiso   1.00
H123   H     0.91460   0.42958   0.34848   0.00000  Uiso   1.00
H124   H     0.97865   0.34084   0.46347   0.00000  Uiso   1.00
H125   H     0.97429   0.49754   0.26217   0.00000  Uiso   1.00
H126   H     0.80085   0.43297   0.31613   0.00000  Uiso   1.00
H127   H     0.03395   0.26992   0.59667   0.00000  Uiso   1.00
H128   H     0.02472   0.60034   0.17219   0.00000  Uiso   1.00
H129   H     0.65900   0.46418   0.28598   0.00000  Uiso   1.00
O130   O     0.02198   0.30595   0.69193   0.00000  Uiso   1.00
O131   O     0.00987   0.73944   0.13504   0.00000  Uiso   1.00
O132   O     0.53005   0.56081   0.28433   0.00000  Uiso   1.00
N133   N     0.94573   0.42062   0.60968   0.00000  Uiso   1.00
N134   N     0.93711   0.72953   0.21284   0.00000  Uiso   1.00
N135   N     0.59519   0.60225   0.31920   0.00000  Uiso   1.00
N136   N     0.00161   0.32314   0.58942   0.00000  Uiso   1.00
N137   N     0.99300   0.63205   0.19257   0.00000  Uiso   1.00
N138   N     0.65108   0.50477   0.29894   0.00000  Uiso   1.00
C139   C     0.78802   0.18017   0.85747   0.00000  Uiso   1.00
C140   C     0.78299   0.12855   0.92430   0.00000  Uiso   1.00
C141   C     0.83798   0.06393   0.96781   0.00000  Uiso   1.00
C142   C     0.82264   0.02446   0.02645   0.00000  Uiso   1.00
C143   C     0.82517   0.94063   0.12801   0.00000  Uiso   1.00
C144   C     0.75748   0.25936   0.85341   0.00000  Uiso   1.00
C145   C     0.79103   0.30473   0.83731   0.00000  Uiso   1.00
C146   C     0.75422   0.37538   0.83627   0.00000  Uiso   1.00
C147   C     0.71713   0.49466   0.82773   0.00000  Uiso   1.00
C148   C     0.73791   0.18331   0.81306   0.00000  Uiso   1.00
C149   C     0.75499   0.16475   0.76301   0.00000  Uiso   1.00
C150   C     0.70169   0.17139   0.72798   0.00000  Uiso   1.00
C151   C     0.63421   0.17259   0.65679   0.00000  Uiso   1.00
C152   C     0.66299   0.22499   0.88425   0.00000  Uiso   1.00
C153   C     0.71508   0.15290   0.93884   0.00000  Uiso   1.00
C154   C     0.69965   0.11351   0.99743   0.00000  Uiso   1.00
C155   C     0.75461   0.04885   0.04102   0.00000  Uiso   1.00
C156   C     0.68957   0.28371   0.86796   0.00000  Uiso   1.00
C157   C     0.65270   0.35431   0.86694   0.00000  Uiso   1.00
C158   C     0.68618   0.39977   0.85084   0.00000  Uiso   1.00
C159   C     0.67000   0.20765   0.82760   0.00000  Uiso   1.00
C160   C     0.61666   0.21433   0.79264   0.00000  Uiso   1.00
C161   C     0.63366   0.19578   0.74255   0.00000  Uiso   1.00
H162   H     0.84089   0.16123   0.84615   0.00000  Uiso   1.00
H163   H     0.89053   0.04512   0.95653   0.00000  Uiso   1.00
H164   H     0.84358   0.28588   0.82605   0.00000  Uiso   1.00
H165   H     0.80754   0.14592   0.75177   0.00000  Uiso   1.00
H166   H     0.91562   0.92714   0.08534   0.00000  Uiso   1.00
H167   H     0.81662   0.43481   0.81019   0.00000  Uiso   1.00
H168   H     0.74063   0.13968   0.65355   0.00000  Uiso   1.00
H169   H     0.61012   0.24394   0.89557   0.00000  Uiso   1.00
H170   H     0.64710   0.13237   0.00868   0.00000  Uiso   1.00
H171   H     0.60015   0.37313   0.87819   0.00000  Uiso   1.00
H172   H     0.56412   0.23317   0.80391   0.00000  Uiso   1.00
H173   H     0.71804   0.99796   0.12766   0.00000  Uiso   1.00
H174   H     0.61904   0.50563   0.85250   0.00000  Uiso   1.00
H175   H     0.54305   0.21050   0.69587   0.00000  Uiso   1.00
O176   O     0.84532   0.88767   0.18002   0.00000  Uiso   1.00
O177   O     0.71543   0.55372   0.81901   0.00000  Uiso   1.00
O178   O     0.61574   0.16651   0.61351   0.00000  Uiso   1.00
N179   N     0.86404   0.95911   0.07978   0.00000  Uiso   1.00
N180   N     0.77149   0.43375   0.82253   0.00000  Uiso   1.00
N181   N     0.70044   0.15784   0.67608   0.00000  Uiso   1.00
N182   N     0.75773   0.99722   0.10255   0.00000  Uiso   1.00
N183   N     0.66517   0.47185   0.84530   0.00000  Uiso   1.00
N184   N     0.59413   0.19595   0.69885   0.00000  Uiso   1.00
C185   C     0.36359   0.15917   0.00338   0.00000  Uiso   1.00
C186   C     0.36406   0.21194   0.02895   0.00000  Uiso   1.00
C187   C     0.34158   0.21315   0.08510   0.00000  Uiso   1.00
C188   C     0.34627   0.26566   0.10014   0.00000  Uiso   1.00
C189   C     0.34304   0.34004   0.14591   0.00000  Uiso   1.00
C190   C     0.43818   0.11768   0.99377   0.00000  Uiso   1.00
C191   C     0.47801   0.03964   0.02033   0.00000  Uiso   1.00
C192   C     0.54510   0.01279   0.00575   0.00000  Uiso   1.00
C193   C     0.65693   0.94083   0.99686   0.00000  Uiso   1.00
C194   C     0.32165   0.21031   0.93730   0.00000  Uiso   1.00
C195   C     0.26351   0.21015   0.91636   0.00000  Uiso   1.00
C196   C     0.23250   0.26129   0.85423   0.00000  Uiso   1.00
C197   C     0.16339   0.33316   0.75766   0.00000  Uiso   1.00
C198   C     0.41191   0.25026   0.93025   0.00000  Uiso   1.00
C199   C     0.39031   0.26141   0.98924   0.00000  Uiso   1.00
C200   C     0.39504   0.31393   0.00420   0.00000  Uiso   1.00
C201   C     0.37257   0.31522   0.06035   0.00000  Uiso   1.00
C202   C     0.46443   0.16715   0.95406   0.00000  Uiso   1.00
C203   C     0.53148   0.14041   0.93943   0.00000  Uiso   1.00
C204   C     0.57140   0.06235   0.96596   0.00000  Uiso   1.00
C205   C     0.34790   0.25979   0.89758   0.00000  Uiso   1.00
C206   C     0.31697   0.31093   0.83547   0.00000  Uiso   1.00
C207   C     0.25879   0.31085   0.81444   0.00000  Uiso   1.00
H208   H     0.34316   0.12065   0.03430   0.00000  Uiso   1.00
H209   H     0.32127   0.17485   0.11583   0.00000  Uiso   1.00
H210   H     0.45768   0.00136   0.05106   0.00000  Uiso   1.00
H211   H     0.24321   0.17186   0.94711   0.00000  Uiso   1.00
H212   H     0.30860   0.25674   0.18871   0.00000  Uiso   1.00
H213   H     0.59623   0.89093   0.05213   0.00000  Uiso   1.00
H214   H     0.14398   0.25045   0.83294   0.00000  Uiso   1.00
H215   H     0.43235   0.28878   0.89933   0.00000  Uiso   1.00
H216   H     0.41536   0.35221   0.97345   0.00000  Uiso   1.00
H217   H     0.55177   0.17872   0.90869   0.00000  Uiso   1.00
H218   H     0.33730   0.34921   0.80474   0.00000  Uiso   1.00
H219   H     0.38497   0.40069   0.07316   0.00000  Uiso   1.00
H220   H     0.67259   0.03488   0.93658   0.00000  Uiso   1.00
H221   H     0.22034   0.39440   0.71739   0.00000  Uiso   1.00
O222   O     0.33402   0.36740   0.18214   0.00000  Uiso   1.00
O223   O     0.71136   0.88747   0.00294   0.00000  Uiso   1.00
O224   O     0.11802   0.35914   0.71537   0.00000  Uiso   1.00
N225   N     0.32890   0.28193   0.15133   0.00000  Uiso   1.00
N226   N     0.59781   0.93992   0.02365   0.00000  Uiso   1.00
N227   N     0.17500   0.27602   0.81872   0.00000  Uiso   1.00
N228   N     0.36999   0.35939   0.08916   0.00000  Uiso   1.00
N229   N     0.63890   0.01737   0.96147   0.00000  Uiso   1.00
N230   N     0.21609   0.35348   0.75654   0.00000  Uiso   1.00
C231   C     0.30803   0.58572   0.95971   0.00000  Uiso   1.00
C232   C     0.38458   0.53065   0.98446   0.00000  Uiso   1.00
C233   C     0.41747   0.50294   0.04466   0.00000  Uiso   1.00
C234   C     0.48781   0.45308   0.05812   0.00000  Uiso   1.00
C235   C     0.60116   0.37079   0.10343   0.00000  Uiso   1.00
C236   C     0.27871   0.54663   0.93762   0.00000  Uiso   1.00
C237   C     0.22259   0.53237   0.95843   0.00000  Uiso   1.00
C238   C     0.20381   0.49597   0.93244   0.00000  Uiso   1.00
C239   C     0.15278   0.43854   0.90499   0.00000  Uiso   1.00
C240   C     0.30632   0.65295   0.90007   0.00000  Uiso   1.00
C241   C     0.27340   0.72810   0.88930   0.00000  Uiso   1.00
C242   C     0.27784   0.78122   0.83170   0.00000  Uiso   1.00
C243   C     0.26968   0.88888   0.74595   0.00000  Uiso   1.00
C244   C     0.37445   0.54645   0.87655   0.00000  Uiso   1.00
C245   C     0.42065   0.50932   0.93929   0.00000  Uiso   1.00
C246   C     0.49095   0.45949   0.95265   0.00000  Uiso   1.00
C247   C     0.52395   0.43172   0.01286   0.00000  Uiso   1.00
C248   C     0.31478   0.52530   0.89245   0.00000  Uiso   1.00
C249   C     0.29607   0.48892   0.86642   0.00000  Uiso   1.00
C250   C     0.23994   0.47460   0.88719   0.00000  Uiso   1.00
C251   C     0.34239   0.63162   0.85490   0.00000  Uiso   1.00
C252   C     0.34688   0.68464   0.79729   0.00000  Uiso   1.00
C253   C     0.31398   0.75985   0.78644   0.00000  Uiso   1.00
H254   H     0.27994   0.60232   0.99488   0.00000  Uiso   1.00
H255   H     0.38953   0.51946   0.07961   0.00000  Uiso   1.00
H256   H     0.19468   0.54889   0.99338   0.00000  Uiso   1.00
H257   H     0.24549   0.74458   0.92427   0.00000  Uiso   1.00
H258   H     0.52694   0.41816   0.15364   0.00000  Uiso   1.00
H259   H     0.11607   0.48024   0.97181   0.00000  Uiso   1.00
H260   H     0.22319   0.89290   0.82607   0.00000  Uiso   1.00
H261   H     0.40253   0.52984   0.84138   0.00000  Uiso   1.00
H262   H     0.51885   0.44300   0.91769   0.00000  Uiso   1.00
H263   H     0.32400   0.47242   0.83146   0.00000  Uiso   1.00
H264   H     0.37480   0.66812   0.76235   0.00000  Uiso   1.00
H265   H     0.63190   0.35610   0.02222   0.00000  Uiso   1.00
H266   H     0.22102   0.41818   0.84038   0.00000  Uiso   1.00
H267   H     0.32815   0.83084   0.69465   0.00000  Uiso   1.00
O268   O     0.65372   0.33129   0.14090   0.00000  Uiso   1.00
O269   O     0.11467   0.41275   0.90234   0.00000  Uiso   1.00
O270   O     0.25522   0.95415   0.71113   0.00000  Uiso   1.00
N271   N     0.53568   0.41548   0.11223   0.00000  Uiso   1.00
N272   N     0.15155   0.47351   0.94224   0.00000  Uiso   1.00
N273   N     0.25168   0.85932   0.80598   0.00000  Uiso   1.00
N274   N     0.59216   0.38209   0.04151   0.00000  Uiso   1.00
N275   N     0.20803   0.44012   0.87152   0.00000  Uiso   1.00
N276   N     0.30816   0.82592   0.73526   0.00000  Uiso   1.00
C277   C     0.35587   0.90072   0.51623   0.00000  Uiso   1.00
C278   C     0.34185   0.91581   0.44805   0.00000  Uiso   1.00
C279   C     0.34289   0.97582   0.39419   0.00000  Uiso   1.00
C280   C     0.32869   0.97965   0.33614   0.00000  Uiso   1.00
C281   C     0.30918   0.01132   0.23088   0.00000  Uiso   1.00
C282   C     0.41518   0.82076   0.54920   0.00000  Uiso   1.00
C283   C     0.47787   0.80085   0.58040   0.00000  Uiso   1.00
C284   C     0.52539   0.72465   0.60751   0.00000  Uiso   1.00
C285   C     0.61971   0.60874   0.65933   0.00000  Uiso   1.00
C286   C     0.29205   0.89711   0.54642   0.00000  Uiso   1.00
C287   C     0.25122   0.94139   0.57529   0.00000  Uiso   1.00
C288   C     0.19509   0.92947   0.60008   0.00000  Uiso   1.00
C289   C     0.09823   0.93211   0.64758   0.00000  Uiso   1.00
C290   C     0.32880   0.80081   0.50891   0.00000  Uiso   1.00
C291   C     0.32714   0.86154   0.44407   0.00000  Uiso   1.00
C292   C     0.31293   0.86528   0.38609   0.00000  Uiso   1.00
C293   C     0.31395   0.92529   0.33215   0.00000  Uiso   1.00
C294   C     0.40048   0.76649   0.54523   0.00000  Uiso   1.00
C295   C     0.44791   0.69031   0.57230   0.00000  Uiso   1.00
C296   C     0.51066   0.67029   0.60353   0.00000  Uiso   1.00
C297   C     0.27734   0.84285   0.54244   0.00000  Uiso   1.00
C298   C     0.22127   0.83085   0.56719   0.00000  Uiso   1.00
C299   C     0.18036   0.87510   0.59609   0.00000  Uiso   1.00
H300   H     0.36733   0.94296   0.51933   0.00000  Uiso   1.00
H301   H     0.35428   0.01780   0.39729   0.00000  Uiso   1.00
H302   H     0.48923   0.84285   0.58347   0.00000  Uiso   1.00
H303   H     0.26262   0.98337   0.57836   0.00000  Uiso   1.00
H304   H     0.33335   0.07682   0.26023   0.00000  Uiso   1.00
H305   H     0.61790   0.70794   0.65284   0.00000  Uiso   1.00
H306   H     0.14004   0.00425   0.64206   0.00000  Uiso   1.00
H307   H     0.31735   0.75856   0.50581   0.00000  Uiso   1.00
H308   H     0.30156   0.82328   0.38303   0.00000  Uiso   1.00
H309   H     0.43652   0.64833   0.56922   0.00000  Uiso   1.00
H310   H     0.20990   0.78885   0.56410   0.00000  Uiso   1.00
H311   H     0.29056   0.91894   0.24866   0.00000  Uiso   1.00
H312   H     0.57511   0.55005   0.64127   0.00000  Uiso   1.00
H313   H     0.09726   0.84637   0.63049   0.00000  Uiso   1.00
O314   O     0.30249   0.04377   0.17392   0.00000  Uiso   1.00
O315   O     0.67580   0.55980   0.68901   0.00000  Uiso   1.00
O316   O     0.04887   0.94857   0.67487   0.00000  Uiso   1.00
N317   N     0.32543   0.03079   0.27436   0.00000  Uiso   1.00
N318   N     0.59148   0.68591   0.64141   0.00000  Uiso   1.00
N319   N     0.14473   0.96292   0.63135   0.00000  Uiso   1.00
N320   N     0.30241   0.94584   0.26813   0.00000  Uiso   1.00
N321   N     0.56845   0.60095   0.63518   0.00000  Uiso   1.00
N322   N     0.12171   0.87797   0.62512   0.00000  Uiso   1.00
C323   C     0.01136   0.86497   0.43904   0.00000  Uiso   1.00
C324   C     0.02495   0.86903   0.37364   0.00000  Uiso   1.00
C325   C     0.97795   0.88010   0.32906   0.00000  Uiso   1.00
C326   C     0.00033   0.88210   0.27204   0.00000  Uiso   1.00
C327   C     0.01122   0.88978   0.17228   0.00000  Uiso   1.00
C328   C     0.02572   0.92568   0.44209   0.00000  Uiso   1.00
C329   C     0.97938   0.98438   0.45508   0.00000  Uiso   1.00
C330   C     0.00242   0.03406   0.45569   0.00000  Uiso   1.00
C331   C     0.01453   0.12965   0.46226   0.00000  Uiso   1.00
C332   C     0.06793   0.78915   0.48632   0.00000  Uiso   1.00
C333   C     0.05708   0.73304   0.53652   0.00000  Uiso   1.00
C334   C     0.11566   0.66777   0.57437   0.00000  Uiso   1.00
C335   C     0.19331   0.55138   0.64962   0.00000  Uiso   1.00
C336   C     0.13469   0.84884   0.41704   0.00000  Uiso   1.00
C337   C     0.09193   0.86027   0.36168   0.00000  Uiso   1.00
C338   C     0.11440   0.86225   0.30471   0.00000  Uiso   1.00
C339   C     0.06744   0.87332   0.26006   0.00000  Uiso   1.00
C340   C     0.09271   0.91692   0.43014   0.00000  Uiso   1.00
C341   C     0.11582   0.96652   0.43073   0.00000  Uiso   1.00
C342   C     0.06953   0.02528   0.44371   0.00000  Uiso   1.00
C343   C     0.13492   0.78038   0.47437   0.00000  Uiso   1.00
C344   C     0.19353   0.71519   0.51216   0.00000  Uiso   1.00
C345   C     0.18277   0.65900   0.56240   0.00000  Uiso   1.00
H346   H     0.95921   0.87180   0.44835   0.00000  Uiso   1.00
H347   H     0.92611   0.88689   0.33833   0.00000  Uiso   1.00
H348   H     0.92754   0.99114   0.46434   0.00000  Uiso   1.00
H349   H     0.00524   0.73984   0.54575   0.00000  Uiso   1.00
H350   H     0.91895   0.89978   0.21107   0.00000  Uiso   1.00
H351   H     0.92197   0.11959   0.47678   0.00000  Uiso   1.00
H352   H     0.08581   0.58968   0.64847   0.00000  Uiso   1.00
H353   H     0.18685   0.84201   0.40773   0.00000  Uiso   1.00
H354   H     0.16624   0.85547   0.29548   0.00000  Uiso   1.00
H355   H     0.16767   0.95972   0.42148   0.00000  Uiso   1.00
H356   H     0.24536   0.70843   0.50290   0.00000  Uiso   1.00
H357   H     0.11384   0.87429   0.17629   0.00000  Uiso   1.00
H358   H     0.11687   0.09409   0.44200   0.00000  Uiso   1.00
H359   H     0.28070   0.56419   0.61368   0.00000  Uiso   1.00
O360   O     0.99872   0.89645   0.12056   0.00000  Uiso   1.00
O361   O     0.00270   0.18481   0.46917   0.00000  Uiso   1.00
O362   O     0.21764   0.48959   0.69442   0.00000  Uiso   1.00
N363   N     0.96765   0.89192   0.21829   0.00000  Uiso   1.00
N364   N     0.97047   0.09743   0.46671   0.00000  Uiso   1.00
N365   N     0.12364   0.60202   0.62723   0.00000  Uiso   1.00
N366   N     0.07252   0.87820   0.19958   0.00000  Uiso   1.00
N367   N     0.07535   0.08371   0.44799   0.00000  Uiso   1.00
N368   N     0.22851   0.58830   0.60851   0.00000  Uiso   1.00
C369   C     0.32151   0.42365   0.50740   0.00000  Uiso   1.00
C370   C     0.36665   0.42939   0.45453   0.00000  Uiso   1.00
C371   C     0.39804   0.37608   0.43157   0.00000  Uiso   1.00
C372   C     0.43726   0.39181   0.38302   0.00000  Uiso   1.00
C373   C     0.50617   0.39059   0.30465   0.00000  Uiso   1.00
C374   C     0.25234   0.49491   0.47934   0.00000  Uiso   1.00
C375   C     0.18763   0.49669   0.47724   0.00000  Uiso   1.00
C376   C     0.13062   0.56758   0.44959   0.00000  Uiso   1.00
C377   C     0.02206   0.66808   0.40978   0.00000  Uiso   1.00
C378   C     0.35501   0.43078   0.55724   0.00000  Uiso   1.00
C379   C     0.37662   0.37864   0.62064   0.00000  Uiso   1.00
C380   C     0.40604   0.39555   0.65857   0.00000  Uiso   1.00
C381   C     0.45690   0.39647   0.73970   0.00000  Uiso   1.00
C382   C     0.33533   0.54639   0.46203   0.00000  Uiso   1.00
C383   C     0.37415   0.49606   0.42989   0.00000  Uiso   1.00
C384   C     0.41333   0.51187   0.38136   0.00000  Uiso   1.00
C385   C     0.44478   0.45860   0.35833   0.00000  Uiso   1.00
C386   C     0.25984   0.56158   0.45469   0.00000  Uiso   1.00
C387   C     0.20292   0.63248   0.42704   0.00000  Uiso   1.00
C388   C     0.13814   0.63437   0.42490   0.00000  Uiso   1.00
C389   C     0.36252   0.49744   0.53259   0.00000  Uiso   1.00
C390   C     0.39191   0.51444   0.57043   0.00000  Uiso   1.00
C391   C     0.41355   0.46233   0.63387   0.00000  Uiso   1.00
H392   H     0.31566   0.37176   0.52659   0.00000  Uiso   1.00
H393   H     0.39221   0.32450   0.45065   0.00000  Uiso   1.00
H394   H     0.18183   0.44509   0.49633   0.00000  Uiso   1.00
H395   H     0.37080   0.32706   0.63969   0.00000  Uiso   1.00
H396   H     0.48038   0.30152   0.35557   0.00000  Uiso   1.00
H397   H     0.03677   0.55579   0.45190   0.00000  Uiso   1.00
H398   H     0.43524   0.30690   0.75422   0.00000  Uiso   1.00
H399   H     0.34117   0.59830   0.44284   0.00000  Uiso   1.00
H400   H     0.41913   0.56347   0.36230   0.00000  Uiso   1.00
H401   H     0.20875   0.68406   0.40797   0.00000  Uiso   1.00
H402   H     0.39771   0.56603   0.55134   0.00000  Uiso   1.00
H403   H     0.50222   0.49548   0.28386   0.00000  Uiso   1.00
H404   H     0.05861   0.74975   0.38019   0.00000  Uiso   1.00
H405   H     0.45708   0.50086   0.68251   0.00000  Uiso   1.00
O406   O     0.54210   0.37151   0.26823   0.00000  Uiso   1.00
O407   O     0.96011   0.70510   0.39462   0.00000  Uiso   1.00
O408   O     0.48289   0.37857   0.79126   0.00000  Uiso   1.00
N409   N     0.47483   0.35194   0.34976   0.00000  Uiso   1.00
N410   N     0.06009   0.58967   0.43981   0.00000  Uiso   1.00
N411   N     0.43260   0.35699   0.72246   0.00000  Uiso   1.00
N412   N     0.48658   0.45631   0.31117   0.00000  Uiso   1.00
N413   N     0.07184   0.69403   0.40122   0.00000  Uiso   1.00
N414   N     0.44436   0.46135   0.68387   0.00000  Uiso   1.00
C415   C     0.43595   0.86925   0.94455   0.00000  Uiso   1.00
C416   C     0.45896   0.92967   0.90436   0.00000  Uiso   1.00
C417   C     0.41538   0.00435   0.86304   0.00000  Uiso   1.00
C418   C     0.44654   0.05074   0.83060   0.00000  Uiso   1.00
C419   C     0.47129   0.14871   0.76686   0.00000  Uiso   1.00
C420   C     0.47443   0.80400   0.92724   0.00000  Uiso   1.00
C421   C     0.44384   0.77300   0.90518   0.00000  Uiso   1.00
C422   C     0.48803   0.71359   0.89202   0.00000  Uiso   1.00
C423   C     0.53679   0.61641   0.86385   0.00000  Uiso   1.00
C424   C     0.46552   0.83954   0.01292   0.00000  Uiso   1.00
C425   C     0.42746   0.83840   0.06290   0.00000  Uiso   1.00
C426   C     0.46415   0.80889   0.12188   0.00000  Uiso   1.00
C427   C     0.49909   0.76690   0.22674   0.00000  Uiso   1.00
C428   C     0.56881   0.81885   0.96043   0.00000  Uiso   1.00
C429   C     0.53112   0.90229   0.91298   0.00000  Uiso   1.00
C430   C     0.56236   0.94858   0.88060   0.00000  Uiso   1.00
C431   C     0.51883   0.02331   0.83924   0.00000  Uiso   1.00
C432   C     0.54659   0.77662   0.93587   0.00000  Uiso   1.00
C433   C     0.59083   0.71723   0.92274   0.00000  Uiso   1.00
C434   C     0.56032   0.68616   0.90065   0.00000  Uiso   1.00
C435   C     0.53769   0.81216   0.02155   0.00000  Uiso   1.00
C436   C     0.57445   0.78264   0.08046   0.00000  Uiso   1.00
C437   C     0.53644   0.78146   0.13052   0.00000  Uiso   1.00
H438   H     0.37978   0.89056   0.93784   0.00000  Uiso   1.00
H439   H     0.35953   0.02551   0.85637   0.00000  Uiso   1.00
H440   H     0.38800   0.79419   0.89851   0.00000  Uiso   1.00
H441   H     0.37162   0.85959   0.05621   0.00000  Uiso   1.00
H442   H     0.36892   0.16305   0.76984   0.00000  Uiso   1.00
H443   H     0.42893   0.67528   0.85872   0.00000  Uiso   1.00
H444   H     0.39439   0.81318   0.19125   0.00000  Uiso   1.00
H445   H     0.62499   0.79753   0.96714   0.00000  Uiso   1.00
H446   H     0.61821   0.92738   0.88728   0.00000  Uiso   1.00
H447   H     0.64667   0.69606   0.92942   0.00000  Uiso   1.00
H448   H     0.63029   0.76146   0.08712   0.00000  Uiso   1.00
H449   H     0.57887   0.08340   0.79493   0.00000  Uiso   1.00
H450   H     0.63888   0.59563   0.88381   0.00000  Uiso   1.00
H451   H     0.60434   0.73354   0.21634   0.00000  Uiso   1.00
O452   O     0.46501   0.21032   0.72931   0.00000  Uiso   1.00
O453   O     0.54374   0.57038   0.84592   0.00000  Uiso   1.00
O454   O     0.49842   0.75131   0.28219   0.00000  Uiso   1.00
N455   N     0.41926   0.12649   0.78671   0.00000  Uiso   1.00
N456   N     0.47537   0.67046   0.86980   0.00000  Uiso   1.00
N457   N     0.44308   0.79937   0.18069   0.00000  Uiso   1.00
N458   N     0.53223   0.08363   0.80021   0.00000  Uiso   1.00
N459   N     0.58834   0.62761   0.88330   0.00000  Uiso   1.00
N460   N     0.55605   0.75652   0.19419   0.00000  Uiso   1.00
C461   C     0.97244   0.69786   0.99871   0.00000  Uiso   1.00
C462   C     0.97223   0.66557   0.95321   0.00000  Uiso   1.00
C463   C     0.95608   0.70603   0.88775   0.00000  Uiso   1.00
C464   C     0.95889   0.66617   0.85454   0.00000  Uiso   1.00
C465   C     0.95575   0.62783   0.77915   0.00000  Uiso   1.00
C466   C     0.92326   0.67979   0.04538   0.00000  Uiso   1.00
C467   C     0.86595   0.73222   0.05742   0.00000  Uiso   1.00
C468   C     0.82754   0.70433   0.10182   0.00000  Uiso   1.00
C469   C     0.74841   0.68808   0.16956   0.00000  Uiso   1.00
C470   C     0.04491   0.65040   0.03689   0.00000  Uiso   1.00
C471   C     0.08987   0.67811   0.04182   0.00000  Uiso   1.00
C472   C     0.15388   0.62547   0.07908   0.00000  Uiso   1.00
C473   C     0.26362   0.56358   0.13364   0.00000  Uiso   1.00
C474   C     0.00614   0.55512   0.05614   0.00000  Uiso   1.00
C475   C     0.99054   0.58804   0.98441   0.00000  Uiso   1.00
C476   C     0.99337   0.54810   0.95129   0.00000  Uiso   1.00
C477   C     0.97723   0.58850   0.88579   0.00000  Uiso   1.00
C478   C     0.94157   0.60227   0.07658   0.00000  Uiso   1.00
C479   C     0.90324   0.57430   0.12097   0.00000  Uiso   1.00
C480   C     0.84588   0.62666   0.13307   0.00000  Uiso   1.00
C481   C     0.06322   0.57287   0.06809   0.00000  Uiso   1.00
C482   C     0.12716   0.52018   0.10536   0.00000  Uiso   1.00
C483   C     0.17222   0.54781   0.11033   0.00000  Uiso   1.00
H484   H     0.95818   0.75822   0.97442   0.00000  Uiso   1.00
H485   H     0.94191   0.76603   0.86363   0.00000  Uiso   1.00
H486   H     0.85180   0.79221   0.03328   0.00000  Uiso   1.00
H487   H     0.07569   0.73811   0.01767   0.00000  Uiso   1.00
H488   H     0.93192   0.74050   0.75454   0.00000  Uiso   1.00
H489   H     0.74193   0.79571   0.11228   0.00000  Uiso   1.00
H490   H     0.21404   0.68162   0.07937   0.00000  Uiso   1.00
H491   H     0.02040   0.49476   0.08043   0.00000  Uiso   1.00
H492   H     0.00754   0.48811   0.97545   0.00000  Uiso   1.00
H493   H     0.91743   0.51430   0.14510   0.00000  Uiso   1.00
H494   H     0.14131   0.46019   0.12949   0.00000  Uiso   1.00
H495   H     0.98518   0.51493   0.84530   0.00000  Uiso   1.00
H496   H     0.79519   0.57014   0.20305   0.00000  Uiso   1.00
H497   H     0.26731   0.45605   0.17013   0.00000  Uiso   1.00
O498   O     0.94895   0.62810   0.72895   0.00000  Uiso   1.00
O499   O     0.69970   0.70053   0.19830   0.00000  Uiso   1.00
O500   O     0.31910   0.55085   0.15511   0.00000  Uiso   1.00
N501   N     0.94623   0.68832   0.79031   0.00000  Uiso   1.00
N502   N     0.76859   0.73994   0.12477   0.00000  Uiso   1.00
N503   N     0.20997   0.63328   0.09401   0.00000  Uiso   1.00
N504   N     0.97490   0.56695   0.83915   0.00000  Uiso   1.00
N505   N     0.79726   0.61857   0.17361   0.00000  Uiso   1.00
N506   N     0.23864   0.51190   0.14285   0.00000  Uiso   1.00
C507   C     0.00229   0.22411   0.00029   0.00000  Uiso   1.00
C508   C     0.97680   0.29496   0.93680   0.00000  Uiso   1.00
C509   C     0.99131   0.29665   0.87817   0.00000  Uiso   1.00
C510   C     0.96313   0.36714   0.82571   0.00000  Uiso   1.00
C511   C     0.92986   0.46705   0.72623   0.00000  Uiso   1.00
C512   C     0.04067   0.23757   0.04175   0.00000  Uiso   1.00
C513   C     0.10888   0.19100   0.07135   0.00000  Uiso   1.00
C514   C     0.13446   0.21318   0.10725   0.00000  Uiso   1.00
C515   C     0.20032   0.22396   0.17073   0.00000  Uiso   1.00
C516   C     0.93742   0.22355   0.02992   0.00000  Uiso   1.00
C517   C     0.91881   0.16518   0.04960   0.00000  Uiso   1.00
C518   C     0.85746   0.17555   0.07555   0.00000  Uiso   1.00
C519   C     0.76300   0.16456   0.12066   0.00000  Uiso   1.00
C520   C     0.92643   0.34629   0.01140   0.00000  Uiso   1.00
C521   C     0.93560   0.36132   0.94284   0.00000  Uiso   1.00
C522   C     0.90739   0.43183   0.89046   0.00000  Uiso   1.00
C523   C     0.92185   0.43363   0.83176   0.00000  Uiso   1.00
C524   C     0.99947   0.30393   0.04779   0.00000  Uiso   1.00
C525   C     0.02495   0.32618   0.08365   0.00000  Uiso   1.00
C526   C     0.09318   0.27966   0.11330   0.00000  Uiso   1.00
C527   C     0.89621   0.28991   0.03596   0.00000  Uiso   1.00
C528   C     0.83488   0.30037   0.06189   0.00000  Uiso   1.00
C529   C     0.81618   0.24203   0.08159   0.00000  Uiso   1.00
H530   H     0.03437   0.17244   0.99559   0.00000  Uiso   1.00
H531   H     0.02321   0.24528   0.87352   0.00000  Uiso   1.00
H532   H     0.14075   0.13964   0.06668   0.00000  Uiso   1.00
H533   H     0.95071   0.11383   0.04492   0.00000  Uiso   1.00
H534   H     0.99268   0.35530   0.74084   0.00000  Uiso   1.00
H535   H     0.24052   0.13254   0.14815   0.00000  Uiso   1.00
H536   H     0.83978   0.07812   0.10227   0.00000  Uiso   1.00
H537   H     0.89435   0.39796   0.01610   0.00000  Uiso   1.00
H538   H     0.87550   0.48318   0.89515   0.00000  Uiso   1.00
H539   H     0.99305   0.37754   0.08831   0.00000  Uiso   1.00
H540   H     0.80301   0.35173   0.06655   0.00000  Uiso   1.00
H541   H     0.87280   0.54839   0.75840   0.00000  Uiso   1.00
H542   H     0.12064   0.32563   0.16571   0.00000  Uiso   1.00
H543   H     0.71990   0.27120   0.11982   0.00000  Uiso   1.00
O544   O     0.92289   0.50383   0.66969   0.00000  Uiso   1.00
O545   O     0.24804   0.21157   0.20407   0.00000  Uiso   1.00
O546   O     0.72228   0.14017   0.14387   0.00000  Uiso   1.00
N547   N     0.96705   0.38905   0.76157   0.00000  Uiso   1.00
N548   N     0.19876   0.18079   0.14237   0.00000  Uiso   1.00
N549   N     0.82412   0.12990   0.09949   0.00000  Uiso   1.00
N550   N     0.90254   0.49294   0.77102   0.00000  Uiso   1.00
N551   N     0.13425   0.28469   0.15182   0.00000  Uiso   1.00
N552   N     0.75961   0.23379   0.10894   0.00000  Uiso   1.00
