data_job_06896
_audit_creation_date              2018-12-19
_audit_creation_method            'Materials Studio'
_symmetry_space_group_name_H-M    'P1'
_symmetry_Int_Tables_number       1
_symmetry_cell_setting            triclinic
loop_
_symmetry_equiv_pos_as_xyz
  x,y,z
_cell_length_a                    19.4023
_cell_length_b                    19.2549
_cell_length_c                    23.1317
_cell_angle_alpha                 84.1555
_cell_angle_beta                  87.6032
_cell_angle_gamma                 79.0781
loop_
_atom_site_label
_atom_site_type_symbol
_atom_site_fract_x
_atom_site_fract_y
_atom_site_fract_z
_atom_site_U_iso_or_equiv
_atom_site_adp_type
_atom_site_occupancy
C1     C     0.24436   0.31563   0.00183   0.00000  Uiso   1.00
C2     C     0.16727   0.35050   0.99577   0.00000  Uiso   1.00
C3     C     0.13626   0.41554   0.01468   0.00000  Uiso   1.00
C4     C     0.06502   0.43819   0.00509   0.00000  Uiso   1.00
C5     C     0.95121   0.49854   0.99989   0.00000  Uiso   1.00
C6     C     0.24494   0.24262   0.03448   0.00000  Uiso   1.00
C7     C     0.27925   0.21696   0.08594   0.00000  Uiso   1.00
C8     C     0.27340   0.14879   0.10893   0.00000  Uiso   1.00
C9     C     0.28022   0.04165   0.16381   0.00000  Uiso   1.00
C10    C     0.27195   0.30208   0.94052   0.00000  Uiso   1.00
C11    C     0.32898   0.32640   0.91297   0.00000  Uiso   1.00
C12    C     0.34588   0.30827   0.85685   0.00000  Uiso   1.00
C13    C     0.39464   0.29345   0.76584   0.00000  Uiso   1.00
C14    C     0.17298   0.24019   0.95115   0.00000  Uiso   1.00
C15    C     0.12850   0.30952   0.96824   0.00000  Uiso   1.00
C16    C     0.05729   0.33208   0.95861   0.00000  Uiso   1.00
C17    C     0.02618   0.39714   0.97750   0.00000  Uiso   1.00
C18    C     0.20617   0.20165   0.00695   0.00000  Uiso   1.00
C19    C     0.20027   0.13350   0.02987   0.00000  Uiso   1.00
C20    C     0.23456   0.10774   0.08135   0.00000  Uiso   1.00
C21    C     0.23318   0.26111   0.91298   0.00000  Uiso   1.00
C22    C     0.25000   0.24294   0.85690   0.00000  Uiso   1.00
C23    C     0.30704   0.26722   0.82927   0.00000  Uiso   1.00
H24    H     0.27455   0.34753   0.02326   0.00000  Uiso   1.00
H25    H     0.16628   0.44723   0.03599   0.00000  Uiso   1.00
H26    H     0.30925   0.24868   0.10723   0.00000  Uiso   1.00
H27    H     0.35897   0.35810   0.93429   0.00000  Uiso   1.00
H28    H     0.02915   0.53968   0.03798   0.00000  Uiso   1.00
H29    H     0.33063   0.12102   0.18819   0.00000  Uiso   1.00
H30    H     0.43548   0.35176   0.82350   0.00000  Uiso   1.00
H31    H     0.14279   0.20829   0.92971   0.00000  Uiso   1.00
H32    H     0.02730   0.30035   0.93730   0.00000  Uiso   1.00
H33    H     0.17027   0.10180   0.00855   0.00000  Uiso   1.00
H34    H     0.21999   0.21123   0.83561   0.00000  Uiso   1.00
H35    H     0.91634   0.42047   0.95788   0.00000  Uiso   1.00
H36    H     0.21783   0.00181   0.10809   0.00000  Uiso   1.00
H37    H     0.32267   0.23255   0.74341   0.00000  Uiso   1.00
O38    O     0.89914   0.54314   0.00463   0.00000  Uiso   1.00
O39    O     0.29468   0.99387   0.20169   0.00000  Uiso   1.00
O40    O     0.43223   0.29659   0.72324   0.00000  Uiso   1.00
N41    N     0.01845   0.49900   0.01807   0.00000  Uiso   1.00
N42    N     0.30031   0.10758   0.15852   0.00000  Uiso   1.00
N43    N     0.39834   0.32328   0.81758   0.00000  Uiso   1.00
N44    N     0.95775   0.43485   0.97498   0.00000  Uiso   1.00
N45    N     0.23961   0.04343   0.11542   0.00000  Uiso   1.00
N46    N     0.33764   0.25914   0.77448   0.00000  Uiso   1.00
C47    C     0.99376   0.38144   0.37346   0.00000  Uiso   1.00
C48    C     0.99305   0.32321   0.42325   0.00000  Uiso   1.00
C49    C     0.04215   0.30452   0.46674   0.00000  Uiso   1.00
C50    C     0.03225   0.24981   0.50835   0.00000  Uiso   1.00
C51    C     0.03984   0.16465   0.58593   0.00000  Uiso   1.00
C52    C     0.99322   0.34564   0.31767   0.00000  Uiso   1.00
C53    C     0.04246   0.34582   0.27240   0.00000  Uiso   1.00
C54    C     0.03269   0.31000   0.22513   0.00000  Uiso   1.00
C55    C     0.04051   0.25970   0.13879   0.00000  Uiso   1.00
C56    C     0.92311   0.43166   0.37707   0.00000  Uiso   1.00
C57    C     0.91341   0.50418   0.38173   0.00000  Uiso   1.00
C58    C     0.84461   0.54078   0.38446   0.00000  Uiso   1.00
C59    C     0.74359   0.62405   0.39035   0.00000  Uiso   1.00
C60    C     0.88885   0.31751   0.37000   0.00000  Uiso   1.00
C61    C     0.93607   0.28848   0.42136   0.00000  Uiso   1.00
C62    C     0.92609   0.23379   0.46292   0.00000  Uiso   1.00
C63    C     0.97516   0.21502   0.50647   0.00000  Uiso   1.00
C64    C     0.93624   0.31091   0.31579   0.00000  Uiso   1.00
C65    C     0.92639   0.27509   0.26858   0.00000  Uiso   1.00
C66    C     0.97561   0.27521   0.22325   0.00000  Uiso   1.00
C67    C     0.86613   0.39693   0.37520   0.00000  Uiso   1.00
C68    C     0.79734   0.43344   0.37791   0.00000  Uiso   1.00
C69    C     0.78753   0.50600   0.38258   0.00000  Uiso   1.00
H70    H     0.03812   0.40847   0.37491   0.00000  Uiso   1.00
H71    H     0.08624   0.33140   0.46818   0.00000  Uiso   1.00
H72    H     0.08654   0.37270   0.27386   0.00000  Uiso   1.00
H73    H     0.95751   0.53103   0.38319   0.00000  Uiso   1.00
H74    H     0.11448   0.23062   0.57074   0.00000  Uiso   1.00
H75    H     0.11510   0.31773   0.16101   0.00000  Uiso   1.00
H76    H     0.84302   0.65159   0.39153   0.00000  Uiso   1.00
H77    H     0.84449   0.29047   0.36853   0.00000  Uiso   1.00
H78    H     0.88199   0.20692   0.46145   0.00000  Uiso   1.00
H79    H     0.88229   0.24822   0.26714   0.00000  Uiso   1.00
H80    H     0.75326   0.40655   0.37646   0.00000  Uiso   1.00
H81    H     0.94871   0.12959   0.56528   0.00000  Uiso   1.00
H82    H     0.94932   0.21669   0.15555   0.00000  Uiso   1.00
H83    H     0.67724   0.55056   0.38607   0.00000  Uiso   1.00
O84    O     0.05977   0.12726   0.62923   0.00000  Uiso   1.00
O85    O     0.06057   0.24155   0.09168   0.00000  Uiso   1.00
O86    O     0.70361   0.67957   0.39413   0.00000  Uiso   1.00
N87    N     0.07031   0.21832   0.55671   0.00000  Uiso   1.00
N88    N     0.07090   0.29975   0.17364   0.00000  Uiso   1.00
N89    N     0.81652   0.61189   0.38914   0.00000  Uiso   1.00
N90    N     0.98111   0.16396   0.55377   0.00000  Uiso   1.00
N91    N     0.98170   0.24538   0.17070   0.00000  Uiso   1.00
N92    N     0.72732   0.55752   0.38621   0.00000  Uiso   1.00
C93    C     0.20110   0.24916   0.37574   0.00000  Uiso   1.00
C94    C     0.24862   0.28259   0.33145   0.00000  Uiso   1.00
C95    C     0.23650   0.35284   0.30770   0.00000  Uiso   1.00
C96    C     0.28626   0.37308   0.26788   0.00000  Uiso   1.00
C97    C     0.35094   0.43232   0.20144   0.00000  Uiso   1.00
C98    C     0.18312   0.18600   0.34872   0.00000  Uiso   1.00
C99    C     0.11593   0.17504   0.33950   0.00000  Uiso   1.00
C100   C     0.11055   0.11395   0.31422   0.00000  Uiso   1.00
C101   C     0.07355   0.02321   0.27464   0.00000  Uiso   1.00
C102   C     0.24688   0.21791   0.42751   0.00000  Uiso   1.00
C103   C     0.23330   0.23377   0.48455   0.00000  Uiso   1.00
C104   C     0.28161   0.19954   0.52561   0.00000  Uiso   1.00
C105   C     0.34361   0.15836   0.60837   0.00000  Uiso   1.00
C106   C     0.31102   0.16016   0.34724   0.00000  Uiso   1.00
C107   C     0.30832   0.23424   0.31597   0.00000  Uiso   1.00
C108   C     0.35812   0.25438   0.27617   0.00000  Uiso   1.00
C109   C     0.34607   0.32465   0.25237   0.00000  Uiso   1.00
C110   C     0.24282   0.13766   0.33324   0.00000  Uiso   1.00
C111   C     0.23755   0.07657   0.30797   0.00000  Uiso   1.00
C112   C     0.17037   0.06553   0.29871   0.00000  Uiso   1.00
C113   C     0.30659   0.16957   0.41203   0.00000  Uiso   1.00
C114   C     0.35493   0.13531   0.45302   0.00000  Uiso   1.00
C115   C     0.34142   0.15112   0.51011   0.00000  Uiso   1.00
H116   H     0.15461   0.28679   0.38779   0.00000  Uiso   1.00
H117   H     0.19028   0.39023   0.31969   0.00000  Uiso   1.00
H118   H     0.06973   0.21245   0.35149   0.00000  Uiso   1.00
H119   H     0.18709   0.27118   0.49651   0.00000  Uiso   1.00
H120   H     0.25614   0.48359   0.23735   0.00000  Uiso   1.00
H121   H     0.00196   0.10872   0.30442   0.00000  Uiso   1.00
H122   H     0.24943   0.23256   0.61023   0.00000  Uiso   1.00
H123   H     0.35751   0.12253   0.33519   0.00000  Uiso   1.00
H124   H     0.40432   0.21696   0.26420   0.00000  Uiso   1.00
H125   H     0.28377   0.03917   0.29600   0.00000  Uiso   1.00
H126   H     0.40112   0.09790   0.44102   0.00000  Uiso   1.00
H127   H     0.42986   0.34296   0.19231   0.00000  Uiso   1.00
H128   H     0.17568   0.96808   0.25938   0.00000  Uiso   1.00
H129   H     0.42315   0.09192   0.56519   0.00000  Uiso   1.00
O130   O     0.37012   0.47835   0.16907   0.00000  Uiso   1.00
O131   O     0.03664   0.98652   0.25707   0.00000  Uiso   1.00
O132   O     0.36132   0.14900   0.65829   0.00000  Uiso   1.00
N133   N     0.29061   0.43754   0.23650   0.00000  Uiso   1.00
N134   N     0.05297   0.08706   0.29920   0.00000  Uiso   1.00
N135   N     0.28432   0.20282   0.58511   0.00000  Uiso   1.00
N136   N     0.38409   0.36186   0.21226   0.00000  Uiso   1.00
N137   N     0.14644   0.01138   0.27496   0.00000  Uiso   1.00
N138   N     0.37780   0.12715   0.56087   0.00000  Uiso   1.00
C139   C     0.52477   0.67178   0.94516   0.00000  Uiso   1.00
C140   C     0.48892   0.66132   0.00450   0.00000  Uiso   1.00
C141   C     0.48225   0.70740   0.04764   0.00000  Uiso   1.00
C142   C     0.44766   0.68831   0.09885   0.00000  Uiso   1.00
C143   C     0.39606   0.68166   0.18981   0.00000  Uiso   1.00
C144   C     0.47010   0.66896   0.90039   0.00000  Uiso   1.00
C145   C     0.44763   0.72147   0.85599   0.00000  Uiso   1.00
C146   C     0.39720   0.70880   0.81957   0.00000  Uiso   1.00
C147   C     0.31643   0.71399   0.74886   0.00000  Uiso   1.00
C148   C     0.58130   0.60567   0.94035   0.00000  Uiso   1.00
C149   C     0.65231   0.60497   0.92954   0.00000  Uiso   1.00
C150   C     0.69551   0.53902   0.92675   0.00000  Uiso   1.00
C151   C     0.78738   0.44594   0.91809   0.00000  Uiso   1.00
C152   C     0.47519   0.55592   0.95941   0.00000  Uiso   1.00
C153   C     0.46199   0.59839   0.01224   0.00000  Uiso   1.00
C154   C     0.42740   0.57922   0.06341   0.00000  Uiso   1.00
C155   C     0.42068   0.62527   0.10661   0.00000  Uiso   1.00
C156   C     0.44317   0.60603   0.90813   0.00000  Uiso   1.00
C157   C     0.39278   0.59328   0.87176   0.00000  Uiso   1.00
C158   C     0.37022   0.64576   0.82732   0.00000  Uiso   1.00
C159   C     0.55437   0.54274   0.94810   0.00000  Uiso   1.00
C160   C     0.59746   0.47678   0.94532   0.00000  Uiso   1.00
C161   C     0.66853   0.47597   0.93450   0.00000  Uiso   1.00
H162   H     0.54573   0.72078   0.93913   0.00000  Uiso   1.00
H163   H     0.50309   0.75610   0.04162   0.00000  Uiso   1.00
H164   H     0.46848   0.77016   0.85001   0.00000  Uiso   1.00
H165   H     0.67313   0.65368   0.92355   0.00000  Uiso   1.00
H166   H     0.44392   0.76753   0.15867   0.00000  Uiso   1.00
H167   H     0.37096   0.79716   0.75462   0.00000  Uiso   1.00
H168   H     0.80251   0.55153   0.90970   0.00000  Uiso   1.00
H169   H     0.45422   0.50692   0.96544   0.00000  Uiso   1.00
H170   H     0.40657   0.53052   0.06939   0.00000  Uiso   1.00
H171   H     0.37195   0.54457   0.87777   0.00000  Uiso   1.00
H172   H     0.57660   0.42809   0.95131   0.00000  Uiso   1.00
H173   H     0.36558   0.58444   0.18120   0.00000  Uiso   1.00
H174   H     0.29261   0.61406   0.77714   0.00000  Uiso   1.00
H175   H     0.72416   0.36844   0.93223   0.00000  Uiso   1.00
O176   O     0.37503   0.69538   0.23783   0.00000  Uiso   1.00
O177   O     0.27931   0.73424   0.70772   0.00000  Uiso   1.00
O178   O     0.84550   0.41198   0.91119   0.00000  Uiso   1.00
N179   N     0.43204   0.72120   0.14971   0.00000  Uiso   1.00
N180   N     0.36381   0.74890   0.77195   0.00000  Uiso   1.00
N181   N     0.76727   0.51926   0.91692   0.00000  Uiso   1.00
N182   N     0.38988   0.62268   0.16184   0.00000  Uiso   1.00
N183   N     0.32165   0.65038   0.78408   0.00000  Uiso   1.00
N184   N     0.72512   0.42074   0.92905   0.00000  Uiso   1.00
C185   C     0.43912   0.90325   0.92501   0.00000  Uiso   1.00
C186   C     0.44490   0.93819   0.86326   0.00000  Uiso   1.00
C187   C     0.49561   0.91531   0.82177   0.00000  Uiso   1.00
C188   C     0.49187   0.95452   0.76782   0.00000  Uiso   1.00
C189   C     0.50882   0.99964   0.67374   0.00000  Uiso   1.00
C190   C     0.36544   0.88614   0.93153   0.00000  Uiso   1.00
C191   C     0.34933   0.81950   0.94746   0.00000  Uiso   1.00
C192   C     0.27870   0.81489   0.95099   0.00000  Uiso   1.00
C193   C     0.17229   0.77921   0.96295   0.00000  Uiso   1.00
C194   C     0.44068   0.96102   0.96515   0.00000  Uiso   1.00
C195   C     0.48783   0.95732   0.00935   0.00000  Uiso   1.00
C196   C     0.48054   0.01575   0.04119   0.00000  Uiso   1.00
C197   C     0.49095   0.09632   0.10534   0.00000  Uiso   1.00
C198   C     0.34232   0.01357   0.90298   0.00000  Uiso   1.00
C199   C     0.39232   0.99812   0.85129   0.00000  Uiso   1.00
C200   C     0.38850   0.03737   0.79739   0.00000  Uiso   1.00
C201   C     0.43920   0.01455   0.75582   0.00000  Uiso   1.00
C202   C     0.31286   0.94606   0.91956   0.00000  Uiso   1.00
C203   C     0.24223   0.94156   0.92308   0.00000  Uiso   1.00
C204   C     0.22603   0.87492   0.93900   0.00000  Uiso   1.00
C205   C     0.38810   0.02094   0.95318   0.00000  Uiso   1.00
C206   C     0.38073   0.07938   0.98496   0.00000  Uiso   1.00
C207   C     0.42787   0.07578   0.02919   0.00000  Uiso   1.00
H208   H     0.48005   0.85660   0.93433   0.00000  Uiso   1.00
H209   H     0.53628   0.86893   0.83105   0.00000  Uiso   1.00
H210   H     0.39003   0.77313   0.95673   0.00000  Uiso   1.00
H211   H     0.52851   0.91094   0.01860   0.00000  Uiso   1.00
H212   H     0.57542   0.90902   0.71125   0.00000  Uiso   1.00
H213   H     0.26705   0.70703   0.97627   0.00000  Uiso   1.00
H214   H     0.55906   0.99761   0.10674   0.00000  Uiso   1.00
H215   H     0.30138   0.06023   0.89366   0.00000  Uiso   1.00
H216   H     0.34781   0.08374   0.78813   0.00000  Uiso   1.00
H217   H     0.20156   0.98794   0.91381   0.00000  Uiso   1.00
H218   H     0.34004   0.12574   0.97568   0.00000  Uiso   1.00
H219   H     0.42245   0.08336   0.67642   0.00000  Uiso   1.00
H220   H     0.11407   0.88137   0.94144   0.00000  Uiso   1.00
H221   H     0.40608   0.17196   0.07191   0.00000  Uiso   1.00
O222   O     0.53269   0.00797   0.62515   0.00000  Uiso   1.00
O223   O     0.12812   0.74297   0.97285   0.00000  Uiso   1.00
O224   O     0.51123   0.12421   0.14402   0.00000  Uiso   1.00
N225   N     0.53306   0.94683   0.71754   0.00000  Uiso   1.00
N226   N     0.24475   0.75798   0.96530   0.00000  Uiso   1.00
N227   N     0.51774   0.02965   0.08729   0.00000  Uiso   1.00
N228   N     0.45074   0.04064   0.69879   0.00000  Uiso   1.00
N229   N     0.16243   0.85179   0.94656   0.00000  Uiso   1.00
N230   N     0.43543   0.12346   0.06855   0.00000  Uiso   1.00
C231   C     0.56431   0.73216   0.66261   0.00000  Uiso   1.00
C232   C     0.55633   0.65576   0.68122   0.00000  Uiso   1.00
C233   C     0.53767   0.62959   0.73662   0.00000  Uiso   1.00
C234   C     0.53318   0.55813   0.74485   0.00000  Uiso   1.00
C235   C     0.51867   0.44615   0.78068   0.00000  Uiso   1.00
C236   C     0.51523   0.75768   0.61185   0.00000  Uiso   1.00
C237   C     0.46202   0.81722   0.60892   0.00000  Uiso   1.00
C238   C     0.42294   0.83157   0.55874   0.00000  Uiso   1.00
C239   C     0.34466   0.87786   0.48685   0.00000  Uiso   1.00
C240   C     0.63863   0.72796   0.63724   0.00000  Uiso   1.00
C241   C     0.68919   0.76253   0.65564   0.00000  Uiso   1.00
C242   C     0.75400   0.75187   0.62682   0.00000  Uiso   1.00
C243   C     0.86732   0.75201   0.59434   0.00000  Uiso   1.00
C244   C     0.58951   0.65179   0.57869   0.00000  Uiso   1.00
C245   C     0.57002   0.61210   0.63564   0.00000  Uiso   1.00
C246   C     0.56556   0.54066   0.64378   0.00000  Uiso   1.00
C247   C     0.54690   0.51440   0.69919   0.00000  Uiso   1.00
C248   C     0.52892   0.71403   0.56627   0.00000  Uiso   1.00
C249   C     0.48991   0.72830   0.51608   0.00000  Uiso   1.00
C250   C     0.43665   0.78784   0.51308   0.00000  Uiso   1.00
C251   C     0.65233   0.68431   0.59166   0.00000  Uiso   1.00
C252   C     0.71707   0.67360   0.56280   0.00000  Uiso   1.00
C253   C     0.76771   0.70813   0.58115   0.00000  Uiso   1.00
H254   H     0.55365   0.76615   0.69809   0.00000  Uiso   1.00
H255   H     0.52708   0.66340   0.77188   0.00000  Uiso   1.00
H256   H     0.45144   0.85100   0.64420   0.00000  Uiso   1.00
H257   H     0.67857   0.79631   0.69091   0.00000  Uiso   1.00
H258   H     0.50363   0.53022   0.83359   0.00000  Uiso   1.00
H259   H     0.34417   0.92581   0.56435   0.00000  Uiso   1.00
H260   H     0.82311   0.81049   0.66285   0.00000  Uiso   1.00
H261   H     0.60017   0.61780   0.54320   0.00000  Uiso   1.00
H262   H     0.57615   0.50689   0.60850   0.00000  Uiso   1.00
H263   H     0.50052   0.69450   0.48082   0.00000  Uiso   1.00
H264   H     0.72765   0.63981   0.52753   0.00000  Uiso   1.00
H265   H     0.54346   0.40320   0.70099   0.00000  Uiso   1.00
H266   H     0.38400   0.79880   0.43174   0.00000  Uiso   1.00
H267   H     0.86294   0.68347   0.53024   0.00000  Uiso   1.00
O268   O     0.50688   0.39644   0.81304   0.00000  Uiso   1.00
O269   O     0.29769   0.91545   0.45980   0.00000  Uiso   1.00
O270   O     0.92605   0.76414   0.58903   0.00000  Uiso   1.00
N271   N     0.51631   0.51554   0.79343   0.00000  Uiso   1.00
N272   N     0.36722   0.88539   0.54171   0.00000  Uiso   1.00
N273   N     0.81499   0.77759   0.63378   0.00000  Uiso   1.00
N274   N     0.53774   0.44720   0.72207   0.00000  Uiso   1.00
N275   N     0.38865   0.81705   0.47035   0.00000  Uiso   1.00
N276   N     0.83642   0.70924   0.56243   0.00000  Uiso   1.00
C277   C     0.68366   0.89508   0.13113   0.00000  Uiso   1.00
C278   C     0.72044   0.83518   0.09612   0.00000  Uiso   1.00
C279   C     0.70697   0.82716   0.03897   0.00000  Uiso   1.00
C280   C     0.74627   0.76880   0.01469   0.00000  Uiso   1.00
C281   C     0.79566   0.68319   0.95548   0.00000  Uiso   1.00
C282   C     0.74157   0.92957   0.15183   0.00000  Uiso   1.00
C283   C     0.74586   0.00092   0.14151   0.00000  Uiso   1.00
C284   C     0.80295   0.02202   0.16413   0.00000  Uiso   1.00
C285   C     0.88512   0.08297   0.19145   0.00000  Uiso   1.00
C286   C     0.65320   0.85924   0.18555   0.00000  Uiso   1.00
C287   C     0.58319   0.87147   0.20359   0.00000  Uiso   1.00
C288   C     0.56588   0.83336   0.25461   0.00000  Uiso   1.00
C289   C     0.51084   0.78511   0.33428   0.00000  Uiso   1.00
C290   C     0.77739   0.80570   0.18965   0.00000  Uiso   1.00
C291   C     0.77135   0.78663   0.12791   0.00000  Uiso   1.00
C292   C     0.81068   0.72826   0.10371   0.00000  Uiso   1.00
C293   C     0.79727   0.72016   0.04653   0.00000  Uiso   1.00
C294   C     0.79248   0.88103   0.18361   0.00000  Uiso   1.00
C295   C     0.84957   0.90203   0.20626   0.00000  Uiso   1.00
C296   C     0.85395   0.97338   0.19598   0.00000  Uiso   1.00
C297   C     0.70411   0.81069   0.21733   0.00000  Uiso   1.00
C298   C     0.68690   0.77256   0.26834   0.00000  Uiso   1.00
C299   C     0.61688   0.78472   0.28646   0.00000  Uiso   1.00
H300   H     0.64402   0.93289   0.10639   0.00000  Uiso   1.00
H301   H     0.66757   0.86475   0.01438   0.00000  Uiso   1.00
H302   H     0.70645   0.03848   0.11692   0.00000  Uiso   1.00
H303   H     0.54381   0.90904   0.17899   0.00000  Uiso   1.00
H304   H     0.71615   0.76781   0.92639   0.00000  Uiso   1.00
H305   H     0.79813   0.13414   0.14260   0.00000  Uiso   1.00
H306   H     0.45516   0.86119   0.27349   0.00000  Uiso   1.00
H307   H     0.81703   0.76790   0.21440   0.00000  Uiso   1.00
H308   H     0.85008   0.69070   0.12832   0.00000  Uiso   1.00
H309   H     0.88896   0.86444   0.23086   0.00000  Uiso   1.00
H310   H     0.72631   0.73500   0.29293   0.00000  Uiso   1.00
H311   H     0.86428   0.62655   0.01886   0.00000  Uiso   1.00
H312   H     0.94625   0.99288   0.23508   0.00000  Uiso   1.00
H313   H     0.60328   0.71993   0.36597   0.00000  Uiso   1.00
O314   O     0.80885   0.64939   0.91404   0.00000  Uiso   1.00
O315   O     0.91638   0.13001   0.19772   0.00000  Uiso   1.00
O316   O     0.46642   0.77190   0.36944   0.00000  Uiso   1.00
N317   N     0.74647   0.74515   0.95997   0.00000  Uiso   1.00
N318   N     0.82312   0.08765   0.16211   0.00000  Uiso   1.00
N319   N     0.50247   0.83248   0.28449   0.00000  Uiso   1.00
N320   N     0.82618   0.66914   0.00973   0.00000  Uiso   1.00
N321   N     0.90282   0.01164   0.21187   0.00000  Uiso   1.00
N322   N     0.58218   0.75646   0.33425   0.00000  Uiso   1.00
C323   C     0.79610   0.84451   0.81687   0.00000  Uiso   1.00
C324   C     0.82893   0.88357   0.76539   0.00000  Uiso   1.00
C325   C     0.79833   0.94769   0.73592   0.00000  Uiso   1.00
C326   C     0.83689   0.97472   0.69000   0.00000  Uiso   1.00
C327   C     0.87773   0.04084   0.61249   0.00000  Uiso   1.00
C328   C     0.84830   0.83427   0.86589   0.00000  Uiso   1.00
C329   C     0.83399   0.85693   0.92093   0.00000  Uiso   1.00
C330   C     0.88885   0.84245   0.95961   0.00000  Uiso   1.00
C331   C     0.95976   0.83200   0.03814   0.00000  Uiso   1.00
C332   C     0.79527   0.77045   0.79935   0.00000  Uiso   1.00
C333   C     0.73637   0.73943   0.79845   0.00000  Uiso   1.00
C334   C     0.74659   0.67120   0.78112   0.00000  Uiso   1.00
C335   C     0.73516   0.56164   0.75634   0.00000  Uiso   1.00
C336   C     0.91898   0.77849   0.78770   0.00000  Uiso   1.00
C337   C     0.89568   0.84771   0.74954   0.00000  Uiso   1.00
C338   C     0.93429   0.87464   0.70365   0.00000  Uiso   1.00
C339   C     0.90375   0.93879   0.67412   0.00000  Uiso   1.00
C340   C     0.91505   0.79841   0.85005   0.00000  Uiso   1.00
C341   C     0.96994   0.78389   0.88865   0.00000  Uiso   1.00
C342   C     0.95572   0.80653   0.94373   0.00000  Uiso   1.00
C343   C     0.86202   0.73458   0.78350   0.00000  Uiso   1.00
C344   C     0.87233   0.66639   0.76617   0.00000  Uiso   1.00
C345   C     0.81346   0.63528   0.76525   0.00000  Uiso   1.00
H346   H     0.74413   0.87243   0.82921   0.00000  Uiso   1.00
H347   H     0.74668   0.97543   0.74820   0.00000  Uiso   1.00
H348   H     0.78233   0.88468   0.93318   0.00000  Uiso   1.00
H349   H     0.68473   0.76720   0.81072   0.00000  Uiso   1.00
H350   H     0.77895   0.07382   0.65142   0.00000  Uiso   1.00
H351   H     0.85411   0.88245   0.04146   0.00000  Uiso   1.00
H352   H     0.64830   0.63471   0.78323   0.00000  Uiso   1.00
H353   H     0.97095   0.75057   0.77536   0.00000  Uiso   1.00
H354   H     0.98594   0.84688   0.69139   0.00000  Uiso   1.00
H355   H     0.02159   0.75613   0.87637   0.00000  Uiso   1.00
H356   H     0.92399   0.63865   0.75391   0.00000  Uiso   1.00
H357   H     0.97314   0.96949   0.60531   0.00000  Uiso   1.00
H358   H     0.04830   0.77812   0.99536   0.00000  Uiso   1.00
H359   H     0.84250   0.53038   0.73712   0.00000  Uiso   1.00
O360   O     0.88183   0.08723   0.57411   0.00000  Uiso   1.00
O361   O     0.98043   0.83614   0.08584   0.00000  Uiso   1.00
O362   O     0.71042   0.51112   0.74704   0.00000  Uiso   1.00
N363   N     0.82259   0.03604   0.65208   0.00000  Uiso   1.00
N364   N     0.89286   0.85713   0.01675   0.00000  Uiso   1.00
N365   N     0.70046   0.62551   0.77533   0.00000  Uiso   1.00
N366   N     0.92708   0.97990   0.62727   0.00000  Uiso   1.00
N367   N     0.99736   0.80099   0.99193   0.00000  Uiso   1.00
N368   N     0.80495   0.56937   0.75052   0.00000  Uiso   1.00
C369   C     0.77797   0.11554   0.99044   0.00000  Uiso   1.00
C370   C     0.73292   0.17080   0.02568   0.00000  Uiso   1.00
C371   C     0.67198   0.16231   0.05696   0.00000  Uiso   1.00
C372   C     0.63838   0.21914   0.08632   0.00000  Uiso   1.00
C373   C     0.56442   0.29535   0.14134   0.00000  Uiso   1.00
C374   C     0.85175   0.10392   0.01438   0.00000  Uiso   1.00
C375   C     0.89072   0.03918   0.03616   0.00000  Uiso   1.00
C376   C     0.95716   0.03971   0.05600   0.00000  Uiso   1.00
C377   C     0.06770   0.01208   0.09345   0.00000  Uiso   1.00
C378   C     0.78261   0.15140   0.92888   0.00000  Uiso   1.00
C379   C     0.76348   0.12657   0.87877   0.00000  Uiso   1.00
C380   C     0.77173   0.16707   0.82663   0.00000  Uiso   1.00
C381   C     0.77494   0.21315   0.73133   0.00000  Uiso   1.00
C382   C     0.82666   0.23157   0.98695   0.00000  Uiso   1.00
C383   C     0.75937   0.23383   0.02378   0.00000  Uiso   1.00
C384   C     0.72585   0.29069   0.05310   0.00000  Uiso   1.00
C385   C     0.66487   0.28228   0.08442   0.00000  Uiso   1.00
C386   C     0.87819   0.16694   0.01249   0.00000  Uiso   1.00
C387   C     0.94459   0.16757   0.03230   0.00000  Uiso   1.00
C388   C     0.98365   0.10285   0.05410   0.00000  Uiso   1.00
C389   C     0.80906   0.21443   0.92699   0.00000  Uiso   1.00
C390   C     0.81735   0.25496   0.87491   0.00000  Uiso   1.00
C391   C     0.79823   0.23021   0.82473   0.00000  Uiso   1.00
H392   H     0.75738   0.06646   0.99192   0.00000  Uiso   1.00
H393   H     0.65153   0.11352   0.05842   0.00000  Uiso   1.00
H394   H     0.87024   0.99042   0.03761   0.00000  Uiso   1.00
H395   H     0.74302   0.07780   0.88025   0.00000  Uiso   1.00
H396   H     0.54586   0.19348   0.13133   0.00000  Uiso   1.00
H397   H     0.00703   0.93390   0.08744   0.00000  Uiso   1.00
H398   H     0.73875   0.11816   0.75561   0.00000  Uiso   1.00
H399   H     0.84725   0.28064   0.98548   0.00000  Uiso   1.00
H400   H     0.74633   0.33946   0.05163   0.00000  Uiso   1.00
H401   H     0.96504   0.21635   0.03082   0.00000  Uiso   1.00
H402   H     0.83781   0.30373   0.87346   0.00000  Uiso   1.00
H403   H     0.62280   0.37685   0.12582   0.00000  Uiso   1.00
H404   H     0.08397   0.11728   0.08193   0.00000  Uiso   1.00
H405   H     0.81569   0.30154   0.75010   0.00000  Uiso   1.00
O406   O     0.51633   0.31998   0.17222   0.00000  Uiso   1.00
O407   O     0.12137   0.97943   0.11463   0.00000  Uiso   1.00
O408   O     0.76939   0.22117   0.67928   0.00000  Uiso   1.00
N409   N     0.57781   0.22857   0.12095   0.00000  Uiso   1.00
N410   N     0.00897   0.98588   0.07992   0.00000  Uiso   1.00
N411   N     0.75817   0.15814   0.76969   0.00000  Uiso   1.00
N412   N     0.61921   0.32724   0.11798   0.00000  Uiso   1.00
N413   N     0.05037   0.08456   0.07696   0.00000  Uiso   1.00
N414   N     0.79957   0.25681   0.76672   0.00000  Uiso   1.00
C415   C     0.17020   0.53222   0.36569   0.00000  Uiso   1.00
C416   C     0.23736   0.56215   0.36751   0.00000  Uiso   1.00
C417   C     0.30503   0.52261   0.37014   0.00000  Uiso   1.00
C418   C     0.35946   0.55993   0.37149   0.00000  Uiso   1.00
C419   C     0.46569   0.59511   0.37454   0.00000  Uiso   1.00
C420   C     0.12440   0.55923   0.41689   0.00000  Uiso   1.00
C421   C     0.09709   0.51723   0.46104   0.00000  Uiso   1.00
C422   C     0.05643   0.55210   0.50394   0.00000  Uiso   1.00
C423   C     0.98724   0.58275   0.58363   0.00000  Uiso   1.00
C424   C     0.13263   0.56890   0.31110   0.00000  Uiso   1.00
C425   C     0.11223   0.53504   0.26629   0.00000  Uiso   1.00
C426   C     0.07848   0.57805   0.22012   0.00000  Uiso   1.00
C427   C     0.02207   0.62371   0.13555   0.00000  Uiso   1.00
C428   C     0.14653   0.66882   0.36340   0.00000  Uiso   1.00
C429   C     0.22449   0.63635   0.36627   0.00000  Uiso   1.00
C430   C     0.27884   0.67374   0.36761   0.00000  Uiso   1.00
C431   C     0.34658   0.63426   0.37024   0.00000  Uiso   1.00
C432   C     0.11154   0.63342   0.41565   0.00000  Uiso   1.00
C433   C     0.07090   0.66836   0.45850   0.00000  Uiso   1.00
C434   C     0.04354   0.62643   0.50269   0.00000  Uiso   1.00
C435   C     0.11977   0.64310   0.30985   0.00000  Uiso   1.00
C436   C     0.08604   0.68617   0.26375   0.00000  Uiso   1.00
C437   C     0.06559   0.65238   0.21888   0.00000  Uiso   1.00
H438   H     0.18021   0.47446   0.36666   0.00000  Uiso   1.00
H439   H     0.31496   0.46519   0.37111   0.00000  Uiso   1.00
H440   H     0.10705   0.45982   0.46198   0.00000  Uiso   1.00
H441   H     0.12219   0.47762   0.26727   0.00000  Uiso   1.00
H442   H     0.45868   0.48763   0.37552   0.00000  Uiso   1.00
H443   H     0.02027   0.47630   0.56712   0.00000  Uiso   1.00
H444   H     0.05219   0.51384   0.15651   0.00000  Uiso   1.00
H445   H     0.13651   0.72659   0.36243   0.00000  Uiso   1.00
H446   H     0.26887   0.73116   0.36664   0.00000  Uiso   1.00
H447   H     0.06095   0.72578   0.45752   0.00000  Uiso   1.00
H448   H     0.07609   0.74358   0.26280   0.00000  Uiso   1.00
H449   H     0.42127   0.70350   0.37189   0.00000  Uiso   1.00
H450   H     0.98285   0.69217   0.56349   0.00000  Uiso   1.00
H451   H     0.01478   0.72971   0.15289   0.00000  Uiso   1.00
O452   O     0.52783   0.59402   0.37657   0.00000  Uiso   1.00
O453   O     0.95263   0.57915   0.62794   0.00000  Uiso   1.00
O454   O     0.99452   0.62841   0.08924   0.00000  Uiso   1.00
N455   N     0.43171   0.53781   0.37407   0.00000  Uiso   1.00
N456   N     0.02183   0.52721   0.55321   0.00000  Uiso   1.00
N457   N     0.05166   0.56231   0.16934   0.00000  Uiso   1.00
N458   N     0.41158   0.65397   0.37212   0.00000  Uiso   1.00
N459   N     0.00170   0.64337   0.55126   0.00000  Uiso   1.00
N460   N     0.03153   0.67847   0.16739   0.00000  Uiso   1.00
C461   C     0.46338   0.33110   0.46168   0.00000  Uiso   1.00
C462   C     0.51546   0.29210   0.50701   0.00000  Uiso   1.00
C463   C     0.52191   0.22127   0.52851   0.00000  Uiso   1.00
C464   C     0.57275   0.19557   0.56980   0.00000  Uiso   1.00
C465   C     0.64709   0.12840   0.63731   0.00000  Uiso   1.00
C466   C     0.42154   0.39493   0.48957   0.00000  Uiso   1.00
C467   C     0.34901   0.41055   0.49639   0.00000  Uiso   1.00
C468   C     0.32079   0.47142   0.52299   0.00000  Uiso   1.00
C469   C     0.24930   0.56391   0.56338   0.00000  Uiso   1.00
C470   C     0.50715   0.36132   0.41251   0.00000  Uiso   1.00
C471   C     0.50659   0.34870   0.35453   0.00000  Uiso   1.00
C472   C     0.55043   0.38130   0.31625   0.00000  Uiso   1.00
C473   C     0.61187   0.42161   0.23699   0.00000  Uiso   1.00
C474   C     0.54220   0.41144   0.49677   0.00000  Uiso   1.00
C475   C     0.55828   0.33575   0.52607   0.00000  Uiso   1.00
C476   C     0.60913   0.31016   0.56733   0.00000  Uiso   1.00
C477   C     0.61565   0.23929   0.58889   0.00000  Uiso   1.00
C478   C     0.46435   0.43857   0.50863   0.00000  Uiso   1.00
C479   C     0.43623   0.49944   0.53521   0.00000  Uiso   1.00
C480   C     0.36368   0.51514   0.54208   0.00000  Uiso   1.00
C481   C     0.54996   0.40496   0.43156   0.00000  Uiso   1.00
C482   C     0.59381   0.43759   0.39336   0.00000  Uiso   1.00
C483   C     0.59332   0.42502   0.33534   0.00000  Uiso   1.00
H484   H     0.43004   0.29713   0.44684   0.00000  Uiso   1.00
H485   H     0.48876   0.18751   0.51375   0.00000  Uiso   1.00
H486   H     0.31589   0.37677   0.48163   0.00000  Uiso   1.00
H487   H     0.47345   0.31493   0.33980   0.00000  Uiso   1.00
H488   H     0.57273   0.08524   0.59636   0.00000  Uiso   1.00
H489   H     0.20822   0.48431   0.52861   0.00000  Uiso   1.00
H490   H     0.54046   0.35391   0.22953   0.00000  Uiso   1.00
H491   H     0.57554   0.44542   0.51161   0.00000  Uiso   1.00
H492   H     0.64225   0.34394   0.58208   0.00000  Uiso   1.00
H493   H     0.46938   0.53320   0.54996   0.00000  Uiso   1.00
H494   H     0.62693   0.47136   0.40812   0.00000  Uiso   1.00
H495   H     0.69731   0.21220   0.65182   0.00000  Uiso   1.00
H496   H     0.33279   0.61128   0.58407   0.00000  Uiso   1.00
H497   H     0.66504   0.48087   0.28499   0.00000  Uiso   1.00
O498   O     0.67626   0.07929   0.66929   0.00000  Uiso   1.00
O499   O     0.19804   0.60286   0.58040   0.00000  Uiso   1.00
O500   O     0.63393   0.43178   0.18801   0.00000  Uiso   1.00
N501   N     0.59291   0.12904   0.59973   0.00000  Uiso   1.00
N502   N     0.25211   0.50214   0.53640   0.00000  Uiso   1.00
N503   N     0.56271   0.38024   0.25678   0.00000  Uiso   1.00
N504   N     0.65994   0.19736   0.62957   0.00000  Uiso   1.00
N505   N     0.31914   0.57046   0.56624   0.00000  Uiso   1.00
N506   N     0.62975   0.44856   0.28662   0.00000  Uiso   1.00
C507   C     0.05449   0.28399   0.71709   0.00000  Uiso   1.00
C508   C     0.98102   0.32355   0.70101   0.00000  Uiso   1.00
C509   C     0.95244   0.33134   0.64620   0.00000  Uiso   1.00
C510   C     0.88437   0.36942   0.64040   0.00000  Uiso   1.00
C511   C     0.77610   0.42643   0.60823   0.00000  Uiso   1.00
C512   C     0.08999   0.33730   0.74331   0.00000  Uiso   1.00
C513   C     0.15303   0.35664   0.72407   0.00000  Uiso   1.00
C514   C     0.17670   0.40629   0.75389   0.00000  Uiso   1.00
C515   C     0.23762   0.48460   0.78742   0.00000  Uiso   1.00
C516   C     0.04444   0.22800   0.76668   0.00000  Uiso   1.00
C517   C     0.06921   0.15544   0.76709   0.00000  Uiso   1.00
C518   C     0.05454   0.11307   0.81659   0.00000  Uiso   1.00
C519   C     0.04476   0.02168   0.88639   0.00000  Uiso   1.00
C520   C     0.98443   0.33777   0.80425   0.00000  Uiso   1.00
C521   C     0.94297   0.35276   0.74836   0.00000  Uiso   1.00
C522   C     0.87493   0.39084   0.74264   0.00000  Uiso   1.00
C523   C     0.84625   0.39868   0.68783   0.00000  Uiso   1.00
C524   C     0.05194   0.36651   0.79065   0.00000  Uiso   1.00
C525   C     0.07552   0.41614   0.82051   0.00000  Uiso   1.00
C526   C     0.13858   0.43555   0.80132   0.00000  Uiso   1.00
C527   C     0.00639   0.25721   0.81402   0.00000  Uiso   1.00
C528   C     0.99170   0.21494   0.86353   0.00000  Uiso   1.00
C529   C     0.01643   0.14233   0.86402   0.00000  Uiso   1.00
H530   H     0.08411   0.26126   0.68023   0.00000  Uiso   1.00
H531   H     0.98190   0.30873   0.60957   0.00000  Uiso   1.00
H532   H     0.18247   0.33402   0.68744   0.00000  Uiso   1.00
H533   H     0.09865   0.13286   0.73045   0.00000  Uiso   1.00
H534   H     0.85181   0.37427   0.55211   0.00000  Uiso   1.00
H535   H     0.27472   0.42758   0.71630   0.00000  Uiso   1.00
H536   H     0.09799   0.00338   0.80700   0.00000  Uiso   1.00
H537   H     0.95481   0.36051   0.84111   0.00000  Uiso   1.00
H538   H     0.84550   0.41344   0.77928   0.00000  Uiso   1.00
H539   H     0.04606   0.43873   0.85715   0.00000  Uiso   1.00
H540   H     0.96225   0.23756   0.90016   0.00000  Uiso   1.00
H541   H     0.74110   0.45926   0.68985   0.00000  Uiso   1.00
H542   H     0.16402   0.51256   0.85405   0.00000  Uiso   1.00
H543   H     0.98728   0.08837   0.94475   0.00000  Uiso   1.00
O544   O     0.72689   0.44981   0.57740   0.00000  Uiso   1.00
O545   O     0.28174   0.51973   0.79282   0.00000  Uiso   1.00
O546   O     0.04987   0.96320   0.91181   0.00000  Uiso   1.00
N547   N     0.84075   0.38700   0.59302   0.00000  Uiso   1.00
N548   N     0.23614   0.43684   0.74652   0.00000  Uiso   1.00
N549   N     0.07093   0.04026   0.83132   0.00000  Uiso   1.00
N550   N     0.78118   0.43273   0.66713   0.00000  Uiso   1.00
N551   N     0.17657   0.48257   0.82064   0.00000  Uiso   1.00
N552   N     0.01136   0.08599   0.90544   0.00000  Uiso   1.00
