data_job_07076
_audit_creation_date              2018-12-19
_audit_creation_method            'Materials Studio'
_symmetry_space_group_name_H-M    'P1'
_symmetry_Int_Tables_number       1
_symmetry_cell_setting            triclinic
loop_
_symmetry_equiv_pos_as_xyz
  x,y,z
_cell_length_a                    22.2306
_cell_length_b                    23.6505
_cell_length_c                    20.9687
_cell_angle_alpha                 68.1184
_cell_angle_beta                  85.1670
_cell_angle_gamma                 77.1695
loop_
_atom_site_label
_atom_site_type_symbol
_atom_site_fract_x
_atom_site_fract_y
_atom_site_fract_z
_atom_site_U_iso_or_equiv
_atom_site_adp_type
_atom_site_occupancy
C1     C     0.38551   0.93615   0.36840   0.00000  Uiso   1.00
C2     C     0.38004   0.92238   0.30388   0.00000  Uiso   1.00
C3     C     0.41802   0.87508   0.28662   0.00000  Uiso   1.00
C4     C     0.40545   0.87018   0.22536   0.00000  Uiso   1.00
C5     C     0.40440   0.84258   0.13160   0.00000  Uiso   1.00
C6     C     0.39187   0.00391   0.34351   0.00000  Uiso   1.00
C7     C     0.43979   0.02517   0.35959   0.00000  Uiso   1.00
C8     C     0.43716   0.08892   0.33170   0.00000  Uiso   1.00
C9     C     0.45445   0.18791   0.29953   0.00000  Uiso   1.00
C10    C     0.32303   0.93385   0.40428   0.00000  Uiso   1.00
C11    C     0.31307   0.89621   0.47146   0.00000  Uiso   1.00
C12    C     0.25249   0.90098   0.49474   0.00000  Uiso   1.00
C13    C     0.16290   0.89118   0.55691   0.00000  Uiso   1.00
C14    C     0.29563   0.01156   0.29029   0.00000  Uiso   1.00
C15    C     0.33122   0.96334   0.26145   0.00000  Uiso   1.00
C16    C     0.31858   0.95851   0.20020   0.00000  Uiso   1.00
C17    C     0.35653   0.91121   0.18285   0.00000  Uiso   1.00
C18    C     0.34305   0.04487   0.30109   0.00000  Uiso   1.00
C19    C     0.34034   0.10860   0.27317   0.00000  Uiso   1.00
C20    C     0.38825   0.12995   0.28920   0.00000  Uiso   1.00
C21    C     0.27421   0.97481   0.36185   0.00000  Uiso   1.00
C22    C     0.21363   0.97964   0.38504   0.00000  Uiso   1.00
C23    C     0.20358   0.94201   0.45223   0.00000  Uiso   1.00
H24    H     0.42352   0.90427   0.40143   0.00000  Uiso   1.00
H25    H     0.45581   0.84339   0.31946   0.00000  Uiso   1.00
H26    H     0.47756   0.99346   0.39243   0.00000  Uiso   1.00
H27    H     0.35087   0.86452   0.50428   0.00000  Uiso   1.00
H28    H     0.47008   0.79398   0.20986   0.00000  Uiso   1.00
H29    H     0.51595   0.11042   0.36374   0.00000  Uiso   1.00
H30    H     0.24878   0.83851   0.59959   0.00000  Uiso   1.00
H31    H     0.25762   0.04345   0.25726   0.00000  Uiso   1.00
H32    H     0.28079   0.99022   0.16738   0.00000  Uiso   1.00
H33    H     0.30255   0.14029   0.24034   0.00000  Uiso   1.00
H34    H     0.17586   0.01134   0.35219   0.00000  Uiso   1.00
H35    H     0.32804   0.91315   0.08642   0.00000  Uiso   1.00
H36    H     0.37390   0.22958   0.24030   0.00000  Uiso   1.00
H37    H     0.10674   0.95768   0.47615   0.00000  Uiso   1.00
O38    O     0.41731   0.81605   0.09161   0.00000  Uiso   1.00
O39    O     0.47748   0.23119   0.29350   0.00000  Uiso   1.00
O40    O     0.12697   0.87446   0.60292   0.00000  Uiso   1.00
N41    N     0.43346   0.82933   0.19315   0.00000  Uiso   1.00
N42    N     0.47635   0.12517   0.33701   0.00000  Uiso   1.00
N43    N     0.22657   0.87098   0.55752   0.00000  Uiso   1.00
N44    N     0.35703   0.89345   0.12673   0.00000  Uiso   1.00
N45    N     0.39992   0.18930   0.27059   0.00000  Uiso   1.00
N46    N     0.15014   0.93510   0.49109   0.00000  Uiso   1.00
C47    C     0.06072   0.48387   0.89734   0.00000  Uiso   1.00
C48    C     0.01434   0.45866   0.95281   0.00000  Uiso   1.00
C49    C     0.95081   0.47191   0.94466   0.00000  Uiso   1.00
C50    C     0.91636   0.44424   0.00164   0.00000  Uiso   1.00
C51    C     0.84007   0.41114   0.07823   0.00000  Uiso   1.00
C52    C     0.09732   0.51609   0.92655   0.00000  Uiso   1.00
C53    C     0.10357   0.57762   0.89630   0.00000  Uiso   1.00
C54    C     0.13899   0.59830   0.93117   0.00000  Uiso   1.00
C55    C     0.19157   0.65434   0.96695   0.00000  Uiso   1.00
C56    C     0.10598   0.42704   0.89194   0.00000  Uiso   1.00
C57    C     0.11953   0.41370   0.83260   0.00000  Uiso   1.00
C58    C     0.16224   0.35940   0.83832   0.00000  Uiso   1.00
C59    C     0.22826   0.27718   0.82036   0.00000  Uiso   1.00
C60    C     0.11250   0.41118   0.01302   0.00000  Uiso   1.00
C61    C     0.04247   0.41918   0.01565   0.00000  Uiso   1.00
C62    C     0.00811   0.39149   0.07265   0.00000  Uiso   1.00
C63    C     0.94454   0.40469   0.06459   0.00000  Uiso   1.00
C64    C     0.12545   0.47662   0.98938   0.00000  Uiso   1.00
C65    C     0.16087   0.49720   0.02429   0.00000  Uiso   1.00
C66    C     0.16717   0.55875   0.99411   0.00000  Uiso   1.00
C67    C     0.13411   0.38756   0.95477   0.00000  Uiso   1.00
C68    C     0.17682   0.33328   0.96058   0.00000  Uiso   1.00
C69    C     0.19042   0.31985   0.90126   0.00000  Uiso   1.00
H70    H     0.03882   0.51460   0.84842   0.00000  Uiso   1.00
H71    H     0.92906   0.50247   0.89603   0.00000  Uiso   1.00
H72    H     0.08181   0.60816   0.84768   0.00000  Uiso   1.00
H73    H     0.09775   0.44426   0.78398   0.00000  Uiso   1.00
H74    H     0.81978   0.47162   0.97653   0.00000  Uiso   1.00
H75    H     0.14186   0.69447   0.87456   0.00000  Uiso   1.00
H76    H     0.17549   0.34885   0.74024   0.00000  Uiso   1.00
H77    H     0.13440   0.38044   0.06194   0.00000  Uiso   1.00
H78    H     0.02989   0.36094   0.12127   0.00000  Uiso   1.00
H79    H     0.18263   0.46664   0.07291   0.00000  Uiso   1.00
H80    H     0.19857   0.30274   0.00921   0.00000  Uiso   1.00
H81    H     0.90161   0.35675   0.15934   0.00000  Uiso   1.00
H82    H     0.22370   0.57961   0.05737   0.00000  Uiso   1.00
H83    H     0.25732   0.23399   0.92305   0.00000  Uiso   1.00
O84    O     0.79021   0.40379   0.10312   0.00000  Uiso   1.00
O85    O     0.21279   0.69616   0.96932   0.00000  Uiso   1.00
O86    O     0.25690   0.24272   0.79311   0.00000  Uiso   1.00
N87    N     0.85338   0.44725   0.01141   0.00000  Uiso   1.00
N88    N     0.15450   0.65561   0.91608   0.00000  Uiso   1.00
N89    N     0.18595   0.33249   0.79050   0.00000  Uiso   1.00
N90    N     0.89741   0.38544   0.10978   0.00000  Uiso   1.00
N91    N     0.19854   0.59380   0.01445   0.00000  Uiso   1.00
N92    N     0.22998   0.27069   0.88887   0.00000  Uiso   1.00
C93    C     0.79611   0.37356   0.28485   0.00000  Uiso   1.00
C94    C     0.84908   0.31927   0.28745   0.00000  Uiso   1.00
C95    C     0.85165   0.27940   0.25223   0.00000  Uiso   1.00
C96    C     0.90410   0.23261   0.26144   0.00000  Uiso   1.00
C97    C     0.97902   0.14930   0.25897   0.00000  Uiso   1.00
C98    C     0.77545   0.36195   0.35907   0.00000  Uiso   1.00
C99    C     0.71610   0.35797   0.38406   0.00000  Uiso   1.00
C100   C     0.70657   0.34711   0.45356   0.00000  Uiso   1.00
C101   C     0.66716   0.33010   0.56228   0.00000  Uiso   1.00
C102   C     0.82452   0.43109   0.26217   0.00000  Uiso   1.00
C103   C     0.80642   0.48527   0.20570   0.00000  Uiso   1.00
C104   C     0.83821   0.53263   0.19362   0.00000  Uiso   1.00
C105   C     0.87499   0.62298   0.15189   0.00000  Uiso   1.00
C106   C     0.88472   0.36135   0.36384   0.00000  Uiso   1.00
C107   C     0.89721   0.31264   0.33036   0.00000  Uiso   1.00
C108   C     0.94968   0.26589   0.33962   0.00000  Uiso   1.00
C109   C     0.95232   0.22596   0.30442   0.00000  Uiso   1.00
C110   C     0.82358   0.35532   0.40198   0.00000  Uiso   1.00
C111   C     0.81414   0.34446   0.47145   0.00000  Uiso   1.00
C112   C     0.75479   0.34046   0.49655   0.00000  Uiso   1.00
C113   C     0.87265   0.42446   0.30507   0.00000  Uiso   1.00
C114   C     0.90446   0.47175   0.29309   0.00000  Uiso   1.00
C115   C     0.88642   0.52598   0.23660   0.00000  Uiso   1.00
H116   H     0.75864   0.37873   0.25145   0.00000  Uiso   1.00
H117   H     0.81439   0.28455   0.21904   0.00000  Uiso   1.00
H118   H     0.67886   0.36311   0.35085   0.00000  Uiso   1.00
H119   H     0.76918   0.49038   0.17251   0.00000  Uiso   1.00
H120   H     0.89741   0.17720   0.20203   0.00000  Uiso   1.00
H121   H     0.61164   0.34287   0.47996   0.00000  Uiso   1.00
H122   H     0.80209   0.61125   0.10390   0.00000  Uiso   1.00
H123   H     0.92219   0.35619   0.39725   0.00000  Uiso   1.00
H124   H     0.98692   0.26077   0.37282   0.00000  Uiso   1.00
H125   H     0.85139   0.33933   0.50464   0.00000  Uiso   1.00
H126   H     0.94171   0.46660   0.32630   0.00000  Uiso   1.00
H127   H     0.03744   0.15790   0.32686   0.00000  Uiso   1.00
H128   H     0.75167   0.32357   0.60479   0.00000  Uiso   1.00
H129   H     0.94212   0.59195   0.22872   0.00000  Uiso   1.00
O130   O     0.00704   0.10517   0.24577   0.00000  Uiso   1.00
O131   O     0.63213   0.32254   0.61040   0.00000  Uiso   1.00
O132   O     0.88199   0.67464   0.11701   0.00000  Uiso   1.00
N133   N     0.92149   0.18576   0.23475   0.00000  Uiso   1.00
N134   N     0.65432   0.34064   0.49460   0.00000  Uiso   1.00
N135   N     0.83235   0.59156   0.14302   0.00000  Uiso   1.00
N136   N     0.99684   0.17537   0.30192   0.00000  Uiso   1.00
N137   N     0.72967   0.33026   0.56177   0.00000  Uiso   1.00
N138   N     0.90770   0.58117   0.21019   0.00000  Uiso   1.00
C139   C     0.76941   0.09364   0.22949   0.00000  Uiso   1.00
C140   C     0.72136   0.05288   0.25112   0.00000  Uiso   1.00
C141   C     0.70810   0.01714   0.21664   0.00000  Uiso   1.00
C142   C     0.66257   0.98310   0.24473   0.00000  Uiso   1.00
C143   C     0.59273   0.91953   0.26914   0.00000  Uiso   1.00
C144   C     0.81265   0.07118   0.29068   0.00000  Uiso   1.00
C145   C     0.87615   0.05084   0.28945   0.00000  Uiso   1.00
C146   C     0.90747   0.03221   0.35084   0.00000  Uiso   1.00
C147   C     0.97936   0.99710   0.43665   0.00000  Uiso   1.00
C148   C     0.73496   0.15896   0.22289   0.00000  Uiso   1.00
C149   C     0.73315   0.21243   0.16467   0.00000  Uiso   1.00
C150   C     0.69907   0.26771   0.16898   0.00000  Uiso   1.00
C151   C     0.65033   0.36889   0.14954   0.00000  Uiso   1.00
C152   C     0.71213   0.09672   0.34068   0.00000  Uiso   1.00
C153   C     0.69025   0.05456   0.31152   0.00000  Uiso   1.00
C154   C     0.64473   0.02056   0.33966   0.00000  Uiso   1.00
C155   C     0.63141   0.98478   0.30523   0.00000  Uiso   1.00
C156   C     0.78155   0.07286   0.35107   0.00000  Uiso   1.00
C157   C     0.81278   0.05425   0.41247   0.00000  Uiso   1.00
C158   C     0.87631   0.03389   0.41134   0.00000  Uiso   1.00
C159   C     0.70385   0.16064   0.28328   0.00000  Uiso   1.00
C160   C     0.66977   0.21584   0.28769   0.00000  Uiso   1.00
C161   C     0.66790   0.26939   0.22948   0.00000  Uiso   1.00
H162   H     0.79363   0.09233   0.18248   0.00000  Uiso   1.00
H163   H     0.73219   0.01585   0.16991   0.00000  Uiso   1.00
H164   H     0.90021   0.04956   0.24271   0.00000  Uiso   1.00
H165   H     0.75722   0.21112   0.11794   0.00000  Uiso   1.00
H166   H     0.65037   0.93179   0.18263   0.00000  Uiso   1.00
H167   H     0.00466   0.00287   0.33611   0.00000  Uiso   1.00
H168   H     0.70314   0.34355   0.07302   0.00000  Uiso   1.00
H169   H     0.68791   0.09803   0.38770   0.00000  Uiso   1.00
H170   H     0.62067   0.02186   0.38640   0.00000  Uiso   1.00
H171   H     0.78869   0.05556   0.45919   0.00000  Uiso   1.00
H172   H     0.64571   0.21712   0.33443   0.00000  Uiso   1.00
H173   H     0.55986   0.93666   0.35834   0.00000  Uiso   1.00
H174   H     0.91414   0.00774   0.51182   0.00000  Uiso   1.00
H175   H     0.61263   0.34842   0.24873   0.00000  Uiso   1.00
O176   O     0.56280   0.88400   0.26593   0.00000  Uiso   1.00
O177   O     0.02761   0.97726   0.46730   0.00000  Uiso   1.00
O178   O     0.63203   0.42423   0.12213   0.00000  Uiso   1.00
N179   N     0.63829   0.94340   0.22415   0.00000  Uiso   1.00
N180   N     0.96952   0.00984   0.36766   0.00000  Uiso   1.00
N181   N     0.68765   0.32836   0.12169   0.00000  Uiso   1.00
N182   N     0.58958   0.94602   0.31870   0.00000  Uiso   1.00
N183   N     0.92082   0.01246   0.46220   0.00000  Uiso   1.00
N184   N     0.63894   0.33098   0.21624   0.00000  Uiso   1.00
C185   C     0.56061   0.55694   0.83897   0.00000  Uiso   1.00
C186   C     0.51528   0.61501   0.79620   0.00000  Uiso   1.00
C187   C     0.45170   0.62166   0.79543   0.00000  Uiso   1.00
C188   C     0.41832   0.67846   0.75284   0.00000  Uiso   1.00
C189   C     0.34348   0.76128   0.69260   0.00000  Uiso   1.00
C190   C     0.59679   0.57791   0.88169   0.00000  Uiso   1.00
C191   C     0.60175   0.55336   0.95280   0.00000  Uiso   1.00
C192   C     0.63698   0.57893   0.98218   0.00000  Uiso   1.00
C193   C     0.68873   0.60412   0.05466   0.00000  Uiso   1.00
C194   C     0.60661   0.53891   0.78812   0.00000  Uiso   1.00
C195   C     0.61984   0.48157   0.78056   0.00000  Uiso   1.00
C196   C     0.66334   0.47430   0.73117   0.00000  Uiso   1.00
C197   C     0.73034   0.43896   0.65837   0.00000  Uiso   1.00
C198   C     0.61438   0.64598   0.76472   0.00000  Uiso   1.00
C199   C     0.54449   0.66337   0.75588   0.00000  Uiso   1.00
C200   C     0.51119   0.72018   0.71328   0.00000  Uiso   1.00
C201   C     0.44757   0.72691   0.71244   0.00000  Uiso   1.00
C202   C     0.62599   0.62627   0.84137   0.00000  Uiso   1.00
C203   C     0.66123   0.65188   0.87065   0.00000  Uiso   1.00
C204   C     0.66623   0.62738   0.94178   0.00000  Uiso   1.00
C205   C     0.63581   0.58728   0.74779   0.00000  Uiso   1.00
C206   C     0.67931   0.58009   0.69841   0.00000  Uiso   1.00
C207   C     0.69260   0.52276   0.69076   0.00000  Uiso   1.00
H208   H     0.53788   0.51928   0.87037   0.00000  Uiso   1.00
H209   H     0.42912   0.58422   0.82665   0.00000  Uiso   1.00
H210   H     0.57915   0.51593   0.98399   0.00000  Uiso   1.00
H211   H     0.59723   0.44416   0.81178   0.00000  Uiso   1.00
H212   H     0.32142   0.67756   0.76041   0.00000  Uiso   1.00
H213   H     0.63777   0.53354   0.09218   0.00000  Uiso   1.00
H214   H     0.67590   0.38220   0.72903   0.00000  Uiso   1.00
H215   H     0.63711   0.68363   0.73332   0.00000  Uiso   1.00
H216   H     0.53380   0.75759   0.68207   0.00000  Uiso   1.00
H217   H     0.68382   0.68930   0.83942   0.00000  Uiso   1.00
H218   H     0.70190   0.61753   0.66721   0.00000  Uiso   1.00
H219   H     0.40638   0.81827   0.64307   0.00000  Uiso   1.00
H220   H     0.72273   0.67426   0.97484   0.00000  Uiso   1.00
H221   H     0.76086   0.52291   0.61169   0.00000  Uiso   1.00
O222   O     0.29414   0.79361   0.67053   0.00000  Uiso   1.00
O223   O     0.70919   0.60466   0.10579   0.00000  Uiso   1.00
O224   O     0.75921   0.40610   0.62934   0.00000  Uiso   1.00
N225   N     0.35559   0.70052   0.73982   0.00000  Uiso   1.00
N226   N     0.65136   0.56588   0.05000   0.00000  Uiso   1.00
N227   N     0.68702   0.42438   0.71050   0.00000  Uiso   1.00
N228   N     0.40131   0.77624   0.67668   0.00000  Uiso   1.00
N229   N     0.69707   0.64160   0.98686   0.00000  Uiso   1.00
N230   N     0.73273   0.50010   0.64736   0.00000  Uiso   1.00
C231   C     0.29219   0.94594   0.71680   0.00000  Uiso   1.00
C232   C     0.35255   0.94683   0.67644   0.00000  Uiso   1.00
C233   C     0.36594   0.92888   0.62004   0.00000  Uiso   1.00
C234   C     0.42376   0.93315   0.59027   0.00000  Uiso   1.00
C235   C     0.51097   0.93130   0.52366   0.00000  Uiso   1.00
C236   C     0.26843   0.01213   0.71512   0.00000  Uiso   1.00
C237   C     0.21108   0.04908   0.69124   0.00000  Uiso   1.00
C238   C     0.19808   0.10831   0.69403   0.00000  Uiso   1.00
C239   C     0.15466   0.20782   0.68751   0.00000  Uiso   1.00
C240   C     0.30963   0.90592   0.79133   0.00000  Uiso   1.00
C241   C     0.28692   0.85358   0.83156   0.00000  Uiso   1.00
C242   C     0.30861   0.82341   0.89853   0.00000  Uiso   1.00
C243   C     0.32917   0.75802   0.01035   0.00000  Uiso   1.00
C244   C     0.37106   0.98542   0.76421   0.00000  Uiso   1.00
C245   C     0.39539   0.96828   0.70219   0.00000  Uiso   1.00
C246   C     0.45321   0.97257   0.67250   0.00000  Uiso   1.00
C247   C     0.46668   0.95463   0.61606   0.00000  Uiso   1.00
C248   C     0.31127   0.03357   0.74086   0.00000  Uiso   1.00
C249   C     0.29835   0.09276   0.74370   0.00000  Uiso   1.00
C250   C     0.24100   0.12980   0.71983   0.00000  Uiso   1.00
C251   C     0.35248   0.92737   0.81709   0.00000  Uiso   1.00
C252   C     0.37419   0.89727   0.88401   0.00000  Uiso   1.00
C253   C     0.35153   0.84489   0.92432   0.00000  Uiso   1.00
H254   H     0.25883   0.92924   0.69675   0.00000  Uiso   1.00
H255   H     0.33277   0.91229   0.60013   0.00000  Uiso   1.00
H256   H     0.17794   0.03247   0.67133   0.00000  Uiso   1.00
H257   H     0.25377   0.83700   0.81161   0.00000  Uiso   1.00
H258   H     0.43364   0.90298   0.50434   0.00000  Uiso   1.00
H259   H     0.10715   0.15637   0.65448   0.00000  Uiso   1.00
H260   H     0.26706   0.74419   0.95031   0.00000  Uiso   1.00
H261   H     0.40442   0.00212   0.78426   0.00000  Uiso   1.00
H262   H     0.48635   0.98916   0.69243   0.00000  Uiso   1.00
H263   H     0.33151   0.10934   0.76363   0.00000  Uiso   1.00
H264   H     0.40735   0.91388   0.90392   0.00000  Uiso   1.00
H265   H     0.55829   0.96538   0.57925   0.00000  Uiso   1.00
H266   H     0.23179   0.21876   0.72940   0.00000  Uiso   1.00
H267   H     0.39170   0.80658   0.02523   0.00000  Uiso   1.00
O268   O     0.54723   0.92436   0.47980   0.00000  Uiso   1.00
O269   O     0.11888   0.25679   0.67679   0.00000  Uiso   1.00
O270   O     0.32868   0.71602   0.06491   0.00000  Uiso   1.00
N271   N     0.45173   0.91943   0.53458   0.00000  Uiso   1.00
N272   N     0.14649   0.15633   0.67495   0.00000  Uiso   1.00
N273   N     0.29598   0.77099   0.95153   0.00000  Uiso   1.00
N274   N     0.51881   0.95300   0.57489   0.00000  Uiso   1.00
N275   N     0.21356   0.18991   0.71526   0.00000  Uiso   1.00
N276   N     0.36305   0.80457   0.99184   0.00000  Uiso   1.00
C277   C     0.34565   0.25337   0.56049   0.00000  Uiso   1.00
C278   C     0.37667   0.21729   0.63033   0.00000  Uiso   1.00
C279   C     0.36558   0.23393   0.68776   0.00000  Uiso   1.00
C280   C     0.39865   0.19474   0.74680   0.00000  Uiso   1.00
C281   C     0.44030   0.14690   0.85502   0.00000  Uiso   1.00
C282   C     0.31633   0.20766   0.54454   0.00000  Uiso   1.00
C283   C     0.25451   0.21621   0.52982   0.00000  Uiso   1.00
C284   C     0.23678   0.16891   0.51663   0.00000  Uiso   1.00
C285   C     0.18476   0.10613   0.49161   0.00000  Uiso   1.00
C286   C     0.39772   0.26719   0.50848   0.00000  Uiso   1.00
C287   C     0.40433   0.32579   0.46344   0.00000  Uiso   1.00
C288   C     0.45512   0.32861   0.41988   0.00000  Uiso   1.00
C289   C     0.52947   0.35826   0.33889   0.00000  Uiso   1.00
C290   C     0.42409   0.15417   0.56323   0.00000  Uiso   1.00
C291   C     0.41927   0.16341   0.63181   0.00000  Uiso   1.00
C292   C     0.45236   0.12418   0.69078   0.00000  Uiso   1.00
C293   C     0.44133   0.14077   0.74829   0.00000  Uiso   1.00
C294   C     0.35893   0.15378   0.54602   0.00000  Uiso   1.00
C295   C     0.34129   0.10646   0.53285   0.00000  Uiso   1.00
C296   C     0.27946   0.11493   0.51812   0.00000  Uiso   1.00
C297   C     0.44032   0.21331   0.50997   0.00000  Uiso   1.00
C298   C     0.49111   0.21604   0.46647   0.00000  Uiso   1.00
C299   C     0.49780   0.27463   0.42137   0.00000  Uiso   1.00
H300   H     0.31248   0.29532   0.55933   0.00000  Uiso   1.00
H301   H     0.33260   0.27563   0.68659   0.00000  Uiso   1.00
H302   H     0.22155   0.25791   0.52867   0.00000  Uiso   1.00
H303   H     0.37135   0.36748   0.46230   0.00000  Uiso   1.00
H304   H     0.37368   0.23003   0.82834   0.00000  Uiso   1.00
H305   H     0.13953   0.19268   0.49533   0.00000  Uiso   1.00
H306   H     0.45540   0.42372   0.35538   0.00000  Uiso   1.00
H307   H     0.45726   0.11222   0.56438   0.00000  Uiso   1.00
H308   H     0.48533   0.08249   0.69192   0.00000  Uiso   1.00
H309   H     0.37427   0.06477   0.53400   0.00000  Uiso   1.00
H310   H     0.52407   0.17433   0.46763   0.00000  Uiso   1.00
H311   H     0.49764   0.07327   0.83266   0.00000  Uiso   1.00
H312   H     0.26348   0.03592   0.49966   0.00000  Uiso   1.00
H313   H     0.57936   0.26695   0.35971   0.00000  Uiso   1.00
O314   O     0.45150   0.13538   0.91431   0.00000  Uiso   1.00
O315   O     0.14430   0.08638   0.47741   0.00000  Uiso   1.00
O316   O     0.55872   0.38950   0.29381   0.00000  Uiso   1.00
N317   N     0.39901   0.19723   0.81185   0.00000  Uiso   1.00
N318   N     0.18009   0.16230   0.50052   0.00000  Uiso   1.00
N319   N     0.47540   0.37830   0.36967   0.00000  Uiso   1.00
N320   N     0.46571   0.11287   0.81418   0.00000  Uiso   1.00
N321   N     0.24679   0.07794   0.50285   0.00000  Uiso   1.00
N322   N     0.54210   0.29394   0.37200   0.00000  Uiso   1.00
C323   C     0.60630   0.77463   0.05739   0.00000  Uiso   1.00
C324   C     0.66437   0.78206   0.01348   0.00000  Uiso   1.00
C325   C     0.72442   0.75443   0.03635   0.00000  Uiso   1.00
C326   C     0.77121   0.76703   0.98817   0.00000  Uiso   1.00
C327   C     0.86334   0.77263   0.93041   0.00000  Uiso   1.00
C328   C     0.56592   0.75051   0.02226   0.00000  Uiso   1.00
C329   C     0.54319   0.69635   0.05253   0.00000  Uiso   1.00
C330   C     0.50710   0.68240   0.01175   0.00000  Uiso   1.00
C331   C     0.44636   0.63904   0.96765   0.00000  Uiso   1.00
C332   C     0.57236   0.84032   0.04991   0.00000  Uiso   1.00
C333   C     0.55502   0.86168   0.10342   0.00000  Uiso   1.00
C334   C     0.52433   0.92334   0.08591   0.00000  Uiso   1.00
C335   C     0.47358   0.01943   0.08473   0.00000  Uiso   1.00
C336   C     0.58261   0.84614   0.93114   0.00000  Uiso   1.00
C337   C     0.65150   0.82090   0.94490   0.00000  Uiso   1.00
C338   C     0.69822   0.83355   0.89667   0.00000  Uiso   1.00
C339   C     0.75832   0.80594   0.91948   0.00000  Uiso   1.00
C340   C     0.55306   0.78935   0.95369   0.00000  Uiso   1.00
C341   C     0.51699   0.77547   0.91286   0.00000  Uiso   1.00
C342   C     0.49421   0.72130   0.94305   0.00000  Uiso   1.00
C343   C     0.55949   0.87916   0.98134   0.00000  Uiso   1.00
C344   C     0.52882   0.94080   0.96374   0.00000  Uiso   1.00
C345   C     0.51144   0.96225   0.01722   0.00000  Uiso   1.00
H346   H     0.61631   0.74439   0.11078   0.00000  Uiso   1.00
H347   H     0.73436   0.72437   0.08942   0.00000  Uiso   1.00
H348   H     0.55315   0.66631   0.10560   0.00000  Uiso   1.00
H349   H     0.56498   0.83161   0.15648   0.00000  Uiso   1.00
H350   H     0.85956   0.71929   0.03551   0.00000  Uiso   1.00
H351   H     0.47747   0.59687   0.06963   0.00000  Uiso   1.00
H352   H     0.50241   0.94544   0.17692   0.00000  Uiso   1.00
H353   H     0.57259   0.87638   0.87775   0.00000  Uiso   1.00
H354   H     0.68825   0.86360   0.84361   0.00000  Uiso   1.00
H355   H     0.50704   0.80554   0.85979   0.00000  Uiso   1.00
H356   H     0.51887   0.97084   0.91067   0.00000  Uiso   1.00
H357   H     0.82213   0.83229   0.83599   0.00000  Uiso   1.00
H358   H     0.44004   0.70987   0.87012   0.00000  Uiso   1.00
H359   H     0.46498   0.05844   0.97741   0.00000  Uiso   1.00
O360   O     0.91771   0.76499   0.91749   0.00000  Uiso   1.00
O361   O     0.41641   0.60438   0.96226   0.00000  Uiso   1.00
O362   O     0.44914   0.06170   0.10302   0.00000  Uiso   1.00
N363   N     0.83488   0.74765   0.99324   0.00000  Uiso   1.00
N364   N     0.47765   0.63319   0.02514   0.00000  Uiso   1.00
N365   N     0.50096   0.95907   0.12545   0.00000  Uiso   1.00
N366   N     0.81474   0.80845   0.88588   0.00000  Uiso   1.00
N367   N     0.45751   0.69399   0.91778   0.00000  Uiso   1.00
N368   N     0.48082   0.01987   0.01809   0.00000  Uiso   1.00
C369   C     0.89321   0.82946   0.69026   0.00000  Uiso   1.00
C370   C     0.83990   0.88552   0.67755   0.00000  Uiso   1.00
C371   C     0.83435   0.93161   0.70488   0.00000  Uiso   1.00
C372   C     0.78212   0.97901   0.68705   0.00000  Uiso   1.00
C373   C     0.70620   0.06589   0.67392   0.00000  Uiso   1.00
C374   C     0.91862   0.83223   0.61953   0.00000  Uiso   1.00
C375   C     0.97926   0.83350   0.59809   0.00000  Uiso   1.00
C376   C     0.99329   0.83603   0.53142   0.00000  Uiso   1.00
C377   C     0.03960   0.84013   0.42824   0.00000  Uiso   1.00
C378   C     0.86430   0.77216   0.71866   0.00000  Uiso   1.00
C379   C     0.87928   0.72291   0.78057   0.00000  Uiso   1.00
C380   C     0.84759   0.67485   0.79735   0.00000  Uiso   1.00
C381   C     0.80956   0.58568   0.84809   0.00000  Uiso   1.00
C382   C     0.81030   0.83168   0.60998   0.00000  Uiso   1.00
C383   C     0.79487   0.88673   0.63394   0.00000  Uiso   1.00
C384   C     0.74262   0.93406   0.61606   0.00000  Uiso   1.00
C385   C     0.73700   0.98021   0.64337   0.00000  Uiso   1.00
C386   C     0.87359   0.83344   0.57593   0.00000  Uiso   1.00
C387   C     0.88753   0.83596   0.50927   0.00000  Uiso   1.00
C388   C     0.94817   0.83724   0.48774   0.00000  Uiso   1.00
C389   C     0.81927   0.77336   0.67506   0.00000  Uiso   1.00
C390   C     0.78755   0.72537   0.69175   0.00000  Uiso   1.00
C391   C     0.80247   0.67606   0.75366   0.00000  Uiso   1.00
H392   H     0.92828   0.82852   0.72420   0.00000  Uiso   1.00
H393   H     0.86922   0.93066   0.73862   0.00000  Uiso   1.00
H394   H     0.01410   0.83256   0.63185   0.00000  Uiso   1.00
H395   H     0.91413   0.72199   0.81430   0.00000  Uiso   1.00
H396   H     0.78389   0.04445   0.73536   0.00000  Uiso   1.00
H397   H     0.08939   0.83758   0.51024   0.00000  Uiso   1.00
H398   H     0.87859   0.60442   0.89496   0.00000  Uiso   1.00
H399   H     0.77524   0.83262   0.57602   0.00000  Uiso   1.00
H400   H     0.70778   0.93499   0.58232   0.00000  Uiso   1.00
H401   H     0.85267   0.83689   0.47555   0.00000  Uiso   1.00
H402   H     0.75270   0.72632   0.65799   0.00000  Uiso   1.00
H403   H     0.65287   0.04796   0.60850   0.00000  Uiso   1.00
H404   H     0.95837   0.84109   0.38337   0.00000  Uiso   1.00
H405   H     0.74757   0.60793   0.76809   0.00000  Uiso   1.00
O406   O     0.67678   0.11348   0.67872   0.00000  Uiso   1.00
O407   O     0.07758   0.84206   0.38338   0.00000  Uiso   1.00
O408   O     0.80102   0.53616   0.88812   0.00000  Uiso   1.00
N409   N     0.76231   0.03122   0.70465   0.00000  Uiso   1.00
N410   N     0.04793   0.83782   0.49417   0.00000  Uiso   1.00
N411   N     0.85086   0.61982   0.85384   0.00000  Uiso   1.00
N412   N     0.69180   0.03311   0.63639   0.00000  Uiso   1.00
N413   N     0.97743   0.83971   0.42591   0.00000  Uiso   1.00
N414   N     0.78036   0.62171   0.78558   0.00000  Uiso   1.00
C415   C     0.91614   0.15886   0.64480   0.00000  Uiso   1.00
C416   C     0.95640   0.20557   0.60630   0.00000  Uiso   1.00
C417   C     0.96601   0.25332   0.62498   0.00000  Uiso   1.00
C418   C     0.00444   0.29106   0.58300   0.00000  Uiso   1.00
C419   C     0.06270   0.36508   0.53211   0.00000  Uiso   1.00
C420   C     0.86924   0.16418   0.59274   0.00000  Uiso   1.00
C421   C     0.80558   0.17713   0.60002   0.00000  Uiso   1.00
C422   C     0.77064   0.18001   0.54662   0.00000  Uiso   1.00
C423   C     0.69360   0.18973   0.47470   0.00000  Uiso   1.00
C424   C     0.95782   0.09458   0.66148   0.00000  Uiso   1.00
C425   C     0.96862   0.04899   0.72657   0.00000  Uiso   1.00
C426   C     0.00825   0.99327   0.73104   0.00000  Uiso   1.00
C427   C     0.06874   0.89492   0.76586   0.00000  Uiso   1.00
C428   C     0.96729   0.14095   0.53701   0.00000  Uiso   1.00
C429   C     0.98418   0.19584   0.54775   0.00000  Uiso   1.00
C430   C     0.02261   0.23351   0.50573   0.00000  Uiso   1.00
C431   C     0.03228   0.28131   0.52435   0.00000  Uiso   1.00
C432   C     0.89703   0.15445   0.53419   0.00000  Uiso   1.00
C433   C     0.86218   0.15731   0.48077   0.00000  Uiso   1.00
C434   C     0.79848   0.17027   0.48797   0.00000  Uiso   1.00
C435   C     0.98561   0.08485   0.60294   0.00000  Uiso   1.00
C436   C     0.02522   0.02918   0.60731   0.00000  Uiso   1.00
C437   C     0.03609   0.98352   0.67239   0.00000  Uiso   1.00
H438   H     0.89450   0.16644   0.69038   0.00000  Uiso   1.00
H439   H     0.94449   0.26084   0.67029   0.00000  Uiso   1.00
H440   H     0.78409   0.18465   0.64534   0.00000  Uiso   1.00
H441   H     0.94711   0.05654   0.77186   0.00000  Uiso   1.00
H442   H     0.01215   0.36123   0.62219   0.00000  Uiso   1.00
H443   H     0.67394   0.20055   0.56959   0.00000  Uiso   1.00
H444   H     0.01769   0.93040   0.83639   0.00000  Uiso   1.00
H445   H     0.98893   0.13338   0.49143   0.00000  Uiso   1.00
H446   H     0.04410   0.22597   0.46043   0.00000  Uiso   1.00
H447   H     0.88370   0.14978   0.43547   0.00000  Uiso   1.00
H448   H     0.04672   0.02167   0.56200   0.00000  Uiso   1.00
H449   H     0.09300   0.33293   0.45186   0.00000  Uiso   1.00
H450   H     0.75478   0.17225   0.39925   0.00000  Uiso   1.00
H451   H     0.09854   0.90210   0.66605   0.00000  Uiso   1.00
O452   O     0.08715   0.40860   0.52021   0.00000  Uiso   1.00
O453   O     0.64343   0.19779   0.45120   0.00000  Uiso   1.00
O454   O     0.09443   0.84336   0.80124   0.00000  Uiso   1.00
N455   N     0.02362   0.34185   0.58637   0.00000  Uiso   1.00
N456   N     0.70740   0.19164   0.53718   0.00000  Uiso   1.00
N457   N     0.02878   0.93907   0.78661   0.00000  Uiso   1.00
N458   N     0.06712   0.32663   0.49471   0.00000  Uiso   1.00
N459   N     0.75091   0.17641   0.44552   0.00000  Uiso   1.00
N460   N     0.07228   0.92384   0.69496   0.00000  Uiso   1.00
C461   C     0.12534   0.64075   0.18701   0.00000  Uiso   1.00
C462   C     0.19112   0.60484   0.18506   0.00000  Uiso   1.00
C463   C     0.24236   0.63100   0.15999   0.00000  Uiso   1.00
C464   C     0.29849   0.59020   0.16273   0.00000  Uiso   1.00
C465   C     0.39991   0.54427   0.15559   0.00000  Uiso   1.00
C466   C     0.08604   0.61913   0.14798   0.00000  Uiso   1.00
C467   C     0.04891   0.65730   0.09175   0.00000  Uiso   1.00
C468   C     0.01658   0.62853   0.06329   0.00000  Uiso   1.00
C469   C     0.95482   0.60479   0.99862   0.00000  Uiso   1.00
C470   C     0.10476   0.61676   0.26186   0.00000  Uiso   1.00
C471   C     0.08336   0.65295   0.30136   0.00000  Uiso   1.00
C472   C     0.06678   0.62218   0.36877   0.00000  Uiso   1.00
C473   C     0.03408   0.59477   0.48091   0.00000  Uiso   1.00
C474   C     0.13393   0.52179   0.23646   0.00000  Uiso   1.00
C475   C     0.19578   0.54023   0.21192   0.00000  Uiso   1.00
C476   C     0.25186   0.49938   0.21470   0.00000  Uiso   1.00
C477   C     0.30317   0.52547   0.18964   0.00000  Uiso   1.00
C478   C     0.09070   0.55452   0.17484   0.00000  Uiso   1.00
C479   C     0.05842   0.52569   0.14646   0.00000  Uiso   1.00
C480   C     0.02126   0.56380   0.09020   0.00000  Uiso   1.00
C481   C     0.10942   0.55215   0.28872   0.00000  Uiso   1.00
C482   C     0.09287   0.52133   0.35607   0.00000  Uiso   1.00
C483   C     0.07145   0.55745   0.39568   0.00000  Uiso   1.00
H484   H     0.12171   0.69106   0.16609   0.00000  Uiso   1.00
H485   H     0.23873   0.68101   0.13920   0.00000  Uiso   1.00
H486   H     0.04531   0.70730   0.07098   0.00000  Uiso   1.00
H487   H     0.07975   0.70295   0.28056   0.00000  Uiso   1.00
H488   H     0.37051   0.64136   0.12121   0.00000  Uiso   1.00
H489   H     0.96267   0.69682   0.97737   0.00000  Uiso   1.00
H490   H     0.03530   0.68763   0.41932   0.00000  Uiso   1.00
H491   H     0.13756   0.47148   0.25737   0.00000  Uiso   1.00
H492   H     0.25546   0.44938   0.23549   0.00000  Uiso   1.00
H493   H     0.06204   0.47568   0.16726   0.00000  Uiso   1.00
H494   H     0.09648   0.47132   0.37684   0.00000  Uiso   1.00
H495   H     0.38409   0.45337   0.19935   0.00000  Uiso   1.00
H496   H     0.97624   0.50883   0.05552   0.00000  Uiso   1.00
H497   H     0.04887   0.49964   0.49746   0.00000  Uiso   1.00
O498   O     0.45457   0.53679   0.14422   0.00000  Uiso   1.00
O499   O     0.91948   0.60955   0.95552   0.00000  Uiso   1.00
O500   O     0.01477   0.59749   0.53534   0.00000  Uiso   1.00
N501   N     0.35753   0.60015   0.14262   0.00000  Uiso   1.00
N502   N     0.97623   0.65200   0.00813   0.00000  Uiso   1.00
N503   N     0.04412   0.64341   0.42131   0.00000  Uiso   1.00
N504   N     0.36484   0.49899   0.18467   0.00000  Uiso   1.00
N505   N     0.98353   0.55084   0.05018   0.00000  Uiso   1.00
N506   N     0.05142   0.54225   0.46336   0.00000  Uiso   1.00
C507   C     0.38467   0.36296   0.13088   0.00000  Uiso   1.00
C508   C     0.33080   0.34098   0.17625   0.00000  Uiso   1.00
C509   C     0.31538   0.34658   0.23946   0.00000  Uiso   1.00
C510   C     0.26443   0.32355   0.27296   0.00000  Uiso   1.00
C511   C     0.18601   0.29360   0.34780   0.00000  Uiso   1.00
C512   C     0.42320   0.30592   0.11868   0.00000  Uiso   1.00
C513   C     0.48547   0.28206   0.13349   0.00000  Uiso   1.00
C514   C     0.51231   0.22953   0.11853   0.00000  Uiso   1.00
C515   C     0.57735   0.14518   0.10395   0.00000  Uiso   1.00
C516   C     0.35680   0.40711   0.06145   0.00000  Uiso   1.00
C517   C     0.36326   0.46832   0.02811   0.00000  Uiso   1.00
C518   C     0.33420   0.50098   0.96495   0.00000  Uiso   1.00
C519   C     0.29615   0.57374   0.86151   0.00000  Uiso   1.00
C520   C     0.32161   0.31210   0.07797   0.00000  Uiso   1.00
C521   C     0.29655   0.31335   0.14751   0.00000  Uiso   1.00
C522   C     0.24561   0.29031   0.18093   0.00000  Uiso   1.00
C523   C     0.23011   0.29588   0.24418   0.00000  Uiso   1.00
C524   C     0.38895   0.27830   0.08995   0.00000  Uiso   1.00
C525   C     0.41570   0.22579   0.07496   0.00000  Uiso   1.00
C526   C     0.47799   0.20185   0.08974   0.00000  Uiso   1.00
C527   C     0.32254   0.37949   0.03271   0.00000  Uiso   1.00
C528   C     0.29348   0.41206   0.96959   0.00000  Uiso   1.00
C529   C     0.29989   0.47331   0.93617   0.00000  Uiso   1.00
H530   H     0.41134   0.38446   0.15325   0.00000  Uiso   1.00
H531   H     0.34190   0.36795   0.26168   0.00000  Uiso   1.00
H532   H     0.51196   0.30345   0.15572   0.00000  Uiso   1.00
H533   H     0.38977   0.48968   0.05036   0.00000  Uiso   1.00
H534   H     0.24982   0.33745   0.36924   0.00000  Uiso   1.00
H535   H     0.60842   0.20145   0.14579   0.00000  Uiso   1.00
H536   H     0.35074   0.59416   0.92363   0.00000  Uiso   1.00
H537   H     0.29494   0.29060   0.05560   0.00000  Uiso   1.00
H538   H     0.21911   0.26894   0.15868   0.00000  Uiso   1.00
H539   H     0.38918   0.20443   0.05272   0.00000  Uiso   1.00
H540   H     0.26698   0.39067   0.94737   0.00000  Uiso   1.00
H541   H     0.15016   0.25709   0.28564   0.00000  Uiso   1.00
H542   H     0.50876   0.12109   0.06219   0.00000  Uiso   1.00
H543   H     0.25108   0.51380   0.84004   0.00000  Uiso   1.00
O544   O     0.15222   0.28470   0.39702   0.00000  Uiso   1.00
O545   O     0.62269   0.10628   0.10385   0.00000  Uiso   1.00
O546   O     0.28462   0.62151   0.81239   0.00000  Uiso   1.00
N547   N     0.23677   0.32152   0.33541   0.00000  Uiso   1.00
N548   N     0.57203   0.19436   0.12651   0.00000  Uiso   1.00
N549   N     0.33114   0.56151   0.91880   0.00000  Uiso   1.00
N550   N     0.18314   0.27828   0.29043   0.00000  Uiso   1.00
N551   N     0.51841   0.15112   0.08153   0.00000  Uiso   1.00
N552   N     0.27751   0.51827   0.87382   0.00000  Uiso   1.00
