data_job_05023
_audit_creation_date              2018-12-19
_audit_creation_method            'Materials Studio'
_symmetry_space_group_name_H-M    'P1'
_symmetry_Int_Tables_number       1
_symmetry_cell_setting            triclinic
loop_
_symmetry_equiv_pos_as_xyz
  x,y,z
_cell_length_a                    14.9079
_cell_length_b                    18.8692
_cell_length_c                    9.9044
_cell_angle_alpha                 90.0000
_cell_angle_beta                  85.9019
_cell_angle_gamma                 90.0000
loop_
_atom_site_label
_atom_site_type_symbol
_atom_site_fract_x
_atom_site_fract_y
_atom_site_fract_z
_atom_site_U_iso_or_equiv
_atom_site_adp_type
_atom_site_occupancy
C1     C     0.24217   0.75298   0.22386   0.00000  Uiso   1.00
C2     C     0.28302   0.70469   0.11231   0.00000  Uiso   1.00
C3     C     0.27577   0.71375   0.97447   0.00000  Uiso   1.00
C4     C     0.31795   0.66378   0.88882   0.00000  Uiso   1.00
C5     C     0.37409   0.59745   0.70793   0.00000  Uiso   1.00
C6     C     0.18351   0.70555   0.31843   0.00000  Uiso   1.00
C7     C     0.09260   0.71535   0.35389   0.00000  Uiso   1.00
C8     C     0.05102   0.66611   0.44176   0.00000  Uiso   1.00
C9     C     0.95269   0.60116   0.58095   0.00000  Uiso   1.00
C10    C     0.32012   0.77683   0.30459   0.00000  Uiso   1.00
C11    C     0.34407   0.84655   0.32845   0.00000  Uiso   1.00
C12    C     0.41749   0.85732   0.40470   0.00000  Uiso   1.00
C13    C     0.53127   0.90302   0.52240   0.00000  Uiso   1.00
C14    C     0.32996   0.64813   0.31687   0.00000  Uiso   1.00
C15    C     0.33070   0.64774   0.16284   0.00000  Uiso   1.00
C16    C     0.37290   0.59775   0.07737   0.00000  Uiso   1.00
C17    C     0.36572   0.60674   0.93943   0.00000  Uiso   1.00
C18    C     0.23119   0.64861   0.36895   0.00000  Uiso   1.00
C19    C     0.18973   0.59935   0.45680   0.00000  Uiso   1.00
C20    C     0.09879   0.60906   0.49238   0.00000  Uiso   1.00
C21    C     0.36781   0.71988   0.35511   0.00000  Uiso   1.00
C22    C     0.44120   0.73054   0.43135   0.00000  Uiso   1.00
C23    C     0.46526   0.80027   0.45532   0.00000  Uiso   1.00
H24    H     0.20504   0.79731   0.18454   0.00000  Uiso   1.00
H25    H     0.23886   0.75782   0.93541   0.00000  Uiso   1.00
H26    H     0.05572   0.75943   0.31479   0.00000  Uiso   1.00
H27    H     0.30715   0.89060   0.28934   0.00000  Uiso   1.00
H28    H     0.29735   0.68892   0.68149   0.00000  Uiso   1.00
H29    H     0.91121   0.69231   0.48146   0.00000  Uiso   1.00
H30    H     0.44140   0.96892   0.42781   0.00000  Uiso   1.00
H31    H     0.36708   0.60379   0.35621   0.00000  Uiso   1.00
H32    H     0.40980   0.55369   0.11650   0.00000  Uiso   1.00
H33    H     0.22666   0.55529   0.49588   0.00000  Uiso   1.00
H34    H     0.47809   0.68646   0.47043   0.00000  Uiso   1.00
H35    H     0.43609   0.52323   0.82847   0.00000  Uiso   1.00
H36    H     0.04994   0.52663   0.62845   0.00000  Uiso   1.00
H37    H     0.58013   0.80323   0.57479   0.00000  Uiso   1.00
O38    O     0.39187   0.57659   0.59420   0.00000  Uiso   1.00
O39    O     0.88527   0.58106   0.64375   0.00000  Uiso   1.00
O40    O     0.58087   0.94395   0.57335   0.00000  Uiso   1.00
N41    N     0.32416   0.65681   0.74898   0.00000  Uiso   1.00
N42    N     0.96313   0.65998   0.49689   0.00000  Uiso   1.00
N43    N     0.45880   0.91858   0.44676   0.00000  Uiso   1.00
N44    N     0.39881   0.56765   0.82807   0.00000  Uiso   1.00
N45    N     0.03779   0.57082   0.57598   0.00000  Uiso   1.00
N46    N     0.53345   0.82942   0.52585   0.00000  Uiso   1.00
C47    C     0.75783   0.75298   0.27614   0.00000  Uiso   1.00
C48    C     0.71698   0.70469   0.38769   0.00000  Uiso   1.00
C49    C     0.72423   0.71375   0.52553   0.00000  Uiso   1.00
C50    C     0.68205   0.66378   0.61118   0.00000  Uiso   1.00
C51    C     0.62591   0.59745   0.79207   0.00000  Uiso   1.00
C52    C     0.81649   0.70555   0.18157   0.00000  Uiso   1.00
C53    C     0.90740   0.71535   0.14611   0.00000  Uiso   1.00
C54    C     0.94898   0.66611   0.05824   0.00000  Uiso   1.00
C55    C     0.04731   0.60116   0.91905   0.00000  Uiso   1.00
C56    C     0.67988   0.77683   0.19541   0.00000  Uiso   1.00
C57    C     0.65593   0.84655   0.17155   0.00000  Uiso   1.00
C58    C     0.58251   0.85732   0.09530   0.00000  Uiso   1.00
C59    C     0.46873   0.90302   0.97760   0.00000  Uiso   1.00
C60    C     0.67004   0.64813   0.18313   0.00000  Uiso   1.00
C61    C     0.66930   0.64774   0.33716   0.00000  Uiso   1.00
C62    C     0.62710   0.59775   0.42263   0.00000  Uiso   1.00
C63    C     0.63428   0.60674   0.56057   0.00000  Uiso   1.00
C64    C     0.76881   0.64861   0.13105   0.00000  Uiso   1.00
C65    C     0.81027   0.59935   0.04320   0.00000  Uiso   1.00
C66    C     0.90121   0.60906   0.00762   0.00000  Uiso   1.00
C67    C     0.63219   0.71988   0.14489   0.00000  Uiso   1.00
C68    C     0.55880   0.73054   0.06865   0.00000  Uiso   1.00
C69    C     0.53474   0.80027   0.04468   0.00000  Uiso   1.00
H70    H     0.79496   0.79731   0.31546   0.00000  Uiso   1.00
H71    H     0.76114   0.75782   0.56459   0.00000  Uiso   1.00
H72    H     0.94428   0.75943   0.18521   0.00000  Uiso   1.00
H73    H     0.69285   0.89060   0.21066   0.00000  Uiso   1.00
H74    H     0.70265   0.68892   0.81851   0.00000  Uiso   1.00
H75    H     0.08879   0.69231   0.01854   0.00000  Uiso   1.00
H76    H     0.55860   0.96892   0.07219   0.00000  Uiso   1.00
H77    H     0.63292   0.60379   0.14379   0.00000  Uiso   1.00
H78    H     0.59020   0.55369   0.38350   0.00000  Uiso   1.00
H79    H     0.77334   0.55529   0.00412   0.00000  Uiso   1.00
H80    H     0.52191   0.68646   0.02957   0.00000  Uiso   1.00
H81    H     0.56391   0.52323   0.67153   0.00000  Uiso   1.00
H82    H     0.95006   0.52663   0.87155   0.00000  Uiso   1.00
H83    H     0.41987   0.80323   0.92521   0.00000  Uiso   1.00
O84    O     0.60813   0.57659   0.90580   0.00000  Uiso   1.00
O85    O     0.11473   0.58106   0.85625   0.00000  Uiso   1.00
O86    O     0.41913   0.94395   0.92665   0.00000  Uiso   1.00
N87    N     0.67584   0.65681   0.75102   0.00000  Uiso   1.00
N88    N     0.03687   0.65998   0.00311   0.00000  Uiso   1.00
N89    N     0.54120   0.91858   0.05324   0.00000  Uiso   1.00
N90    N     0.60119   0.56765   0.67193   0.00000  Uiso   1.00
N91    N     0.96221   0.57082   0.92402   0.00000  Uiso   1.00
N92    N     0.46655   0.82942   0.97415   0.00000  Uiso   1.00
C93    C     0.75783   0.24702   0.77614   0.00000  Uiso   1.00
C94    C     0.71698   0.29531   0.88769   0.00000  Uiso   1.00
C95    C     0.72423   0.28625   0.02553   0.00000  Uiso   1.00
C96    C     0.68205   0.33622   0.11118   0.00000  Uiso   1.00
C97    C     0.62591   0.40255   0.29207   0.00000  Uiso   1.00
C98    C     0.81649   0.29445   0.68157   0.00000  Uiso   1.00
C99    C     0.90740   0.28465   0.64611   0.00000  Uiso   1.00
C100   C     0.94898   0.33389   0.55824   0.00000  Uiso   1.00
C101   C     0.04731   0.39884   0.41905   0.00000  Uiso   1.00
C102   C     0.67988   0.22317   0.69541   0.00000  Uiso   1.00
C103   C     0.65593   0.15345   0.67155   0.00000  Uiso   1.00
C104   C     0.58251   0.14268   0.59530   0.00000  Uiso   1.00
C105   C     0.46873   0.09698   0.47760   0.00000  Uiso   1.00
C106   C     0.67004   0.35187   0.68313   0.00000  Uiso   1.00
C107   C     0.66930   0.35226   0.83716   0.00000  Uiso   1.00
C108   C     0.62710   0.40225   0.92263   0.00000  Uiso   1.00
C109   C     0.63428   0.39326   0.06057   0.00000  Uiso   1.00
C110   C     0.76881   0.35139   0.63105   0.00000  Uiso   1.00
C111   C     0.81027   0.40065   0.54320   0.00000  Uiso   1.00
C112   C     0.90121   0.39094   0.50762   0.00000  Uiso   1.00
C113   C     0.63219   0.28012   0.64489   0.00000  Uiso   1.00
C114   C     0.55880   0.26946   0.56865   0.00000  Uiso   1.00
C115   C     0.53474   0.19973   0.54468   0.00000  Uiso   1.00
H116   H     0.79496   0.20269   0.81546   0.00000  Uiso   1.00
H117   H     0.76114   0.24218   0.06459   0.00000  Uiso   1.00
H118   H     0.94428   0.24057   0.68521   0.00000  Uiso   1.00
H119   H     0.69285   0.10940   0.71066   0.00000  Uiso   1.00
H120   H     0.70265   0.31108   0.31851   0.00000  Uiso   1.00
H121   H     0.08879   0.30769   0.51854   0.00000  Uiso   1.00
H122   H     0.55860   0.03108   0.57219   0.00000  Uiso   1.00
H123   H     0.63292   0.39621   0.64379   0.00000  Uiso   1.00
H124   H     0.59020   0.44631   0.88350   0.00000  Uiso   1.00
H125   H     0.77334   0.44471   0.50412   0.00000  Uiso   1.00
H126   H     0.52191   0.31354   0.52957   0.00000  Uiso   1.00
H127   H     0.56391   0.47677   0.17153   0.00000  Uiso   1.00
H128   H     0.95006   0.47337   0.37155   0.00000  Uiso   1.00
H129   H     0.41987   0.19677   0.42521   0.00000  Uiso   1.00
O130   O     0.60813   0.42341   0.40580   0.00000  Uiso   1.00
O131   O     0.11473   0.41894   0.35625   0.00000  Uiso   1.00
O132   O     0.41913   0.05605   0.42665   0.00000  Uiso   1.00
N133   N     0.67584   0.34319   0.25102   0.00000  Uiso   1.00
N134   N     0.03687   0.34002   0.50311   0.00000  Uiso   1.00
N135   N     0.54120   0.08142   0.55324   0.00000  Uiso   1.00
N136   N     0.60119   0.43235   0.17193   0.00000  Uiso   1.00
N137   N     0.96221   0.42918   0.42402   0.00000  Uiso   1.00
N138   N     0.46655   0.17058   0.47415   0.00000  Uiso   1.00
C139   C     0.24217   0.24702   0.72386   0.00000  Uiso   1.00
C140   C     0.28302   0.29531   0.61231   0.00000  Uiso   1.00
C141   C     0.27577   0.28625   0.47447   0.00000  Uiso   1.00
C142   C     0.31795   0.33622   0.38882   0.00000  Uiso   1.00
C143   C     0.37409   0.40255   0.20793   0.00000  Uiso   1.00
C144   C     0.18351   0.29445   0.81843   0.00000  Uiso   1.00
C145   C     0.09260   0.28465   0.85389   0.00000  Uiso   1.00
C146   C     0.05102   0.33389   0.94176   0.00000  Uiso   1.00
C147   C     0.95269   0.39884   0.08095   0.00000  Uiso   1.00
C148   C     0.32012   0.22317   0.80459   0.00000  Uiso   1.00
C149   C     0.34407   0.15345   0.82845   0.00000  Uiso   1.00
C150   C     0.41749   0.14268   0.90470   0.00000  Uiso   1.00
C151   C     0.53127   0.09698   0.02240   0.00000  Uiso   1.00
C152   C     0.32996   0.35187   0.81687   0.00000  Uiso   1.00
C153   C     0.33070   0.35226   0.66284   0.00000  Uiso   1.00
C154   C     0.37290   0.40225   0.57737   0.00000  Uiso   1.00
C155   C     0.36572   0.39326   0.43943   0.00000  Uiso   1.00
C156   C     0.23119   0.35139   0.86895   0.00000  Uiso   1.00
C157   C     0.18973   0.40065   0.95680   0.00000  Uiso   1.00
C158   C     0.09879   0.39094   0.99238   0.00000  Uiso   1.00
C159   C     0.36781   0.28012   0.85511   0.00000  Uiso   1.00
C160   C     0.44120   0.26946   0.93135   0.00000  Uiso   1.00
C161   C     0.46526   0.19973   0.95532   0.00000  Uiso   1.00
H162   H     0.20504   0.20269   0.68454   0.00000  Uiso   1.00
H163   H     0.23886   0.24218   0.43541   0.00000  Uiso   1.00
H164   H     0.05572   0.24057   0.81479   0.00000  Uiso   1.00
H165   H     0.30715   0.10940   0.78934   0.00000  Uiso   1.00
H166   H     0.29735   0.31108   0.18149   0.00000  Uiso   1.00
H167   H     0.91121   0.30769   0.98146   0.00000  Uiso   1.00
H168   H     0.44140   0.03108   0.92781   0.00000  Uiso   1.00
H169   H     0.36708   0.39621   0.85621   0.00000  Uiso   1.00
H170   H     0.40980   0.44631   0.61650   0.00000  Uiso   1.00
H171   H     0.22666   0.44471   0.99588   0.00000  Uiso   1.00
H172   H     0.47809   0.31354   0.97043   0.00000  Uiso   1.00
H173   H     0.43609   0.47677   0.32847   0.00000  Uiso   1.00
H174   H     0.04994   0.47337   0.12845   0.00000  Uiso   1.00
H175   H     0.58013   0.19677   0.07479   0.00000  Uiso   1.00
O176   O     0.39187   0.42341   0.09420   0.00000  Uiso   1.00
O177   O     0.88527   0.41894   0.14375   0.00000  Uiso   1.00
O178   O     0.58087   0.05605   0.07335   0.00000  Uiso   1.00
N179   N     0.32416   0.34319   0.24898   0.00000  Uiso   1.00
N180   N     0.96313   0.34002   0.99689   0.00000  Uiso   1.00
N181   N     0.45880   0.08142   0.94676   0.00000  Uiso   1.00
N182   N     0.39881   0.43235   0.32807   0.00000  Uiso   1.00
N183   N     0.03779   0.42918   0.07598   0.00000  Uiso   1.00
N184   N     0.53345   0.17058   0.02585   0.00000  Uiso   1.00
