data_job_01809
_audit_creation_date              2018-12-19
_audit_creation_method            'Materials Studio'
_symmetry_space_group_name_H-M    'P1'
_symmetry_Int_Tables_number       1
_symmetry_cell_setting            triclinic
loop_
_symmetry_equiv_pos_as_xyz
  x,y,z
_cell_length_a                    21.2479
_cell_length_b                    15.9163
_cell_length_c                    14.5587
_cell_angle_alpha                 90.0000
_cell_angle_beta                  90.0000
_cell_angle_gamma                 90.0000
loop_
_atom_site_label
_atom_site_type_symbol
_atom_site_fract_x
_atom_site_fract_y
_atom_site_fract_z
_atom_site_U_iso_or_equiv
_atom_site_adp_type
_atom_site_occupancy
C1     C     0.40994   0.77089   0.52908   0.00000  Uiso   1.00
C2     C     0.36778   0.80740   0.45430   0.00000  Uiso   1.00
C3     C     0.31575   0.85845   0.46859   0.00000  Uiso   1.00
C4     C     0.28336   0.88536   0.39117   0.00000  Uiso   1.00
C5     C     0.21499   0.94557   0.28851   0.00000  Uiso   1.00
C6     C     0.40944   0.67598   0.51482   0.00000  Uiso   1.00
C7     C     0.39245   0.61654   0.58001   0.00000  Uiso   1.00
C8     C     0.39513   0.53281   0.55353   0.00000  Uiso   1.00
C9     C     0.39148   0.38898   0.54486   0.00000  Uiso   1.00
C10    C     0.47658   0.79982   0.50648   0.00000  Uiso   1.00
C11    C     0.51605   0.84449   0.56466   0.00000  Uiso   1.00
C12    C     0.57527   0.86501   0.53117   0.00000  Uiso   1.00
C13    C     0.67586   0.91346   0.50955   0.00000  Uiso   1.00
C14    C     0.44495   0.72788   0.36616   0.00000  Uiso   1.00
C15    C     0.38680   0.78404   0.36581   0.00000  Uiso   1.00
C16    C     0.35448   0.81087   0.28834   0.00000  Uiso   1.00
C17    C     0.30241   0.86196   0.30252   0.00000  Uiso   1.00
C18    C     0.42846   0.65261   0.42634   0.00000  Uiso   1.00
C19    C     0.43117   0.56896   0.39976   0.00000  Uiso   1.00
C20    C     0.41418   0.50940   0.46488   0.00000  Uiso   1.00
C21    C     0.49560   0.77646   0.41799   0.00000  Uiso   1.00
C22    C     0.55477   0.79691   0.38441   0.00000  Uiso   1.00
C23    C     0.59432   0.84160   0.44252   0.00000  Uiso   1.00
H24    H     0.39514   0.78907   0.59798   0.00000  Uiso   1.00
H25    H     0.30105   0.87651   0.53709   0.00000  Uiso   1.00
H26    H     0.37774   0.63463   0.64849   0.00000  Uiso   1.00
H27    H     0.50132   0.86255   0.63314   0.00000  Uiso   1.00
H28    H     0.20511   0.96313   0.43055   0.00000  Uiso   1.00
H29    H     0.36683   0.45311   0.66546   0.00000  Uiso   1.00
H30    H     0.62742   0.93372   0.63309   0.00000  Uiso   1.00
H31    H     0.45975   0.70970   0.29727   0.00000  Uiso   1.00
H32    H     0.36921   0.79279   0.21987   0.00000  Uiso   1.00
H33    H     0.44589   0.55090   0.33127   0.00000  Uiso   1.00
H34    H     0.56947   0.77882   0.31592   0.00000  Uiso   1.00
H35    H     0.26042   0.89517   0.17309   0.00000  Uiso   1.00
H36    H     0.42215   0.38515   0.40800   0.00000  Uiso   1.00
H37    H     0.68273   0.86576   0.37563   0.00000  Uiso   1.00
O38    O     0.17202   0.98522   0.25633   0.00000  Uiso   1.00
O39    O     0.38421   0.31609   0.56453   0.00000  Uiso   1.00
O40    O     0.72609   0.94665   0.52206   0.00000  Uiso   1.00
N41    N     0.23056   0.93575   0.38058   0.00000  Uiso   1.00
N42    N     0.38175   0.45891   0.60020   0.00000  Uiso   1.00
N43    N     0.62538   0.90822   0.56995   0.00000  Uiso   1.00
N44    N     0.26033   0.89918   0.24204   0.00000  Uiso   1.00
N45    N     0.41152   0.42234   0.46166   0.00000  Uiso   1.00
N46    N     0.65515   0.87165   0.43141   0.00000  Uiso   1.00
C47    C     0.90994   0.27089   0.52908   0.00000  Uiso   1.00
C48    C     0.86778   0.30740   0.45430   0.00000  Uiso   1.00
C49    C     0.81575   0.35845   0.46859   0.00000  Uiso   1.00
C50    C     0.78336   0.38536   0.39117   0.00000  Uiso   1.00
C51    C     0.71499   0.44557   0.28851   0.00000  Uiso   1.00
C52    C     0.90944   0.17598   0.51482   0.00000  Uiso   1.00
C53    C     0.89245   0.11654   0.58001   0.00000  Uiso   1.00
C54    C     0.89513   0.03281   0.55353   0.00000  Uiso   1.00
C55    C     0.89148   0.88898   0.54486   0.00000  Uiso   1.00
C56    C     0.97658   0.29982   0.50648   0.00000  Uiso   1.00
C57    C     0.01605   0.34449   0.56466   0.00000  Uiso   1.00
C58    C     0.07527   0.36501   0.53117   0.00000  Uiso   1.00
C59    C     0.17586   0.41346   0.50955   0.00000  Uiso   1.00
C60    C     0.94495   0.22788   0.36616   0.00000  Uiso   1.00
C61    C     0.88680   0.28404   0.36581   0.00000  Uiso   1.00
C62    C     0.85448   0.31087   0.28834   0.00000  Uiso   1.00
C63    C     0.80241   0.36196   0.30252   0.00000  Uiso   1.00
C64    C     0.92846   0.15261   0.42634   0.00000  Uiso   1.00
C65    C     0.93117   0.06896   0.39976   0.00000  Uiso   1.00
C66    C     0.91418   0.00940   0.46488   0.00000  Uiso   1.00
C67    C     0.99560   0.27646   0.41799   0.00000  Uiso   1.00
C68    C     0.05477   0.29691   0.38441   0.00000  Uiso   1.00
C69    C     0.09432   0.34160   0.44252   0.00000  Uiso   1.00
H70    H     0.89514   0.28907   0.59798   0.00000  Uiso   1.00
H71    H     0.80105   0.37651   0.53709   0.00000  Uiso   1.00
H72    H     0.87774   0.13463   0.64849   0.00000  Uiso   1.00
H73    H     0.00132   0.36255   0.63314   0.00000  Uiso   1.00
H74    H     0.70511   0.46313   0.43055   0.00000  Uiso   1.00
H75    H     0.86683   0.95311   0.66546   0.00000  Uiso   1.00
H76    H     0.12742   0.43372   0.63309   0.00000  Uiso   1.00
H77    H     0.95975   0.20970   0.29727   0.00000  Uiso   1.00
H78    H     0.86921   0.29279   0.21987   0.00000  Uiso   1.00
H79    H     0.94589   0.05090   0.33127   0.00000  Uiso   1.00
H80    H     0.06947   0.27882   0.31592   0.00000  Uiso   1.00
H81    H     0.76042   0.39517   0.17309   0.00000  Uiso   1.00
H82    H     0.92215   0.88515   0.40800   0.00000  Uiso   1.00
H83    H     0.18273   0.36576   0.37563   0.00000  Uiso   1.00
O84    O     0.67202   0.48522   0.25633   0.00000  Uiso   1.00
O85    O     0.88421   0.81609   0.56453   0.00000  Uiso   1.00
O86    O     0.22609   0.44665   0.52206   0.00000  Uiso   1.00
N87    N     0.73056   0.43575   0.38058   0.00000  Uiso   1.00
N88    N     0.88175   0.95891   0.60020   0.00000  Uiso   1.00
N89    N     0.12538   0.40822   0.56995   0.00000  Uiso   1.00
N90    N     0.76033   0.39918   0.24204   0.00000  Uiso   1.00
N91    N     0.91152   0.92234   0.46166   0.00000  Uiso   1.00
N92    N     0.15515   0.37165   0.43141   0.00000  Uiso   1.00
C93    C     0.59006   0.22911   0.52908   0.00000  Uiso   1.00
C94    C     0.63222   0.19260   0.45430   0.00000  Uiso   1.00
C95    C     0.68425   0.14155   0.46859   0.00000  Uiso   1.00
C96    C     0.71664   0.11464   0.39117   0.00000  Uiso   1.00
C97    C     0.78501   0.05443   0.28851   0.00000  Uiso   1.00
C98    C     0.59056   0.32402   0.51482   0.00000  Uiso   1.00
C99    C     0.60755   0.38346   0.58001   0.00000  Uiso   1.00
C100   C     0.60487   0.46719   0.55353   0.00000  Uiso   1.00
C101   C     0.60852   0.61102   0.54486   0.00000  Uiso   1.00
C102   C     0.52342   0.20018   0.50648   0.00000  Uiso   1.00
C103   C     0.48395   0.15551   0.56466   0.00000  Uiso   1.00
C104   C     0.42473   0.13499   0.53117   0.00000  Uiso   1.00
C105   C     0.32414   0.08654   0.50955   0.00000  Uiso   1.00
C106   C     0.55505   0.27212   0.36616   0.00000  Uiso   1.00
C107   C     0.61320   0.21596   0.36581   0.00000  Uiso   1.00
C108   C     0.64552   0.18913   0.28834   0.00000  Uiso   1.00
C109   C     0.69759   0.13804   0.30252   0.00000  Uiso   1.00
C110   C     0.57154   0.34739   0.42634   0.00000  Uiso   1.00
C111   C     0.56883   0.43104   0.39976   0.00000  Uiso   1.00
C112   C     0.58582   0.49060   0.46488   0.00000  Uiso   1.00
C113   C     0.50440   0.22354   0.41799   0.00000  Uiso   1.00
C114   C     0.44523   0.20309   0.38441   0.00000  Uiso   1.00
C115   C     0.40568   0.15840   0.44252   0.00000  Uiso   1.00
H116   H     0.60486   0.21093   0.59798   0.00000  Uiso   1.00
H117   H     0.69895   0.12349   0.53709   0.00000  Uiso   1.00
H118   H     0.62226   0.36537   0.64849   0.00000  Uiso   1.00
H119   H     0.49868   0.13745   0.63314   0.00000  Uiso   1.00
H120   H     0.79489   0.03687   0.43055   0.00000  Uiso   1.00
H121   H     0.63317   0.54689   0.66546   0.00000  Uiso   1.00
H122   H     0.37258   0.06628   0.63309   0.00000  Uiso   1.00
H123   H     0.54025   0.29030   0.29727   0.00000  Uiso   1.00
H124   H     0.63079   0.20721   0.21987   0.00000  Uiso   1.00
H125   H     0.55411   0.44910   0.33127   0.00000  Uiso   1.00
H126   H     0.43053   0.22118   0.31592   0.00000  Uiso   1.00
H127   H     0.73958   0.10483   0.17309   0.00000  Uiso   1.00
H128   H     0.57785   0.61485   0.40800   0.00000  Uiso   1.00
H129   H     0.31727   0.13424   0.37563   0.00000  Uiso   1.00
O130   O     0.82798   0.01478   0.25633   0.00000  Uiso   1.00
O131   O     0.61579   0.68391   0.56453   0.00000  Uiso   1.00
O132   O     0.27391   0.05335   0.52206   0.00000  Uiso   1.00
N133   N     0.76944   0.06425   0.38058   0.00000  Uiso   1.00
N134   N     0.61825   0.54109   0.60020   0.00000  Uiso   1.00
N135   N     0.37462   0.09178   0.56995   0.00000  Uiso   1.00
N136   N     0.73967   0.10082   0.24204   0.00000  Uiso   1.00
N137   N     0.58848   0.57766   0.46166   0.00000  Uiso   1.00
N138   N     0.34485   0.12835   0.43141   0.00000  Uiso   1.00
C139   C     0.09006   0.72911   0.52908   0.00000  Uiso   1.00
C140   C     0.13222   0.69260   0.45430   0.00000  Uiso   1.00
C141   C     0.18425   0.64155   0.46859   0.00000  Uiso   1.00
C142   C     0.21664   0.61464   0.39117   0.00000  Uiso   1.00
C143   C     0.28501   0.55443   0.28851   0.00000  Uiso   1.00
C144   C     0.09056   0.82402   0.51482   0.00000  Uiso   1.00
C145   C     0.10755   0.88346   0.58001   0.00000  Uiso   1.00
C146   C     0.10487   0.96719   0.55353   0.00000  Uiso   1.00
C147   C     0.10852   0.11102   0.54486   0.00000  Uiso   1.00
C148   C     0.02342   0.70018   0.50648   0.00000  Uiso   1.00
C149   C     0.98395   0.65551   0.56466   0.00000  Uiso   1.00
C150   C     0.92473   0.63499   0.53117   0.00000  Uiso   1.00
C151   C     0.82414   0.58654   0.50955   0.00000  Uiso   1.00
C152   C     0.05505   0.77212   0.36616   0.00000  Uiso   1.00
C153   C     0.11320   0.71596   0.36581   0.00000  Uiso   1.00
C154   C     0.14552   0.68913   0.28834   0.00000  Uiso   1.00
C155   C     0.19759   0.63804   0.30252   0.00000  Uiso   1.00
C156   C     0.07154   0.84739   0.42634   0.00000  Uiso   1.00
C157   C     0.06883   0.93104   0.39976   0.00000  Uiso   1.00
C158   C     0.08582   0.99060   0.46488   0.00000  Uiso   1.00
C159   C     0.00440   0.72354   0.41799   0.00000  Uiso   1.00
C160   C     0.94523   0.70309   0.38441   0.00000  Uiso   1.00
C161   C     0.90568   0.65840   0.44252   0.00000  Uiso   1.00
H162   H     0.10486   0.71093   0.59798   0.00000  Uiso   1.00
H163   H     0.19895   0.62349   0.53709   0.00000  Uiso   1.00
H164   H     0.12226   0.86537   0.64849   0.00000  Uiso   1.00
H165   H     0.99868   0.63745   0.63314   0.00000  Uiso   1.00
H166   H     0.29489   0.53687   0.43055   0.00000  Uiso   1.00
H167   H     0.13317   0.04689   0.66546   0.00000  Uiso   1.00
H168   H     0.87258   0.56628   0.63309   0.00000  Uiso   1.00
H169   H     0.04025   0.79030   0.29727   0.00000  Uiso   1.00
H170   H     0.13079   0.70721   0.21987   0.00000  Uiso   1.00
H171   H     0.05411   0.94910   0.33127   0.00000  Uiso   1.00
H172   H     0.93053   0.72118   0.31592   0.00000  Uiso   1.00
H173   H     0.23958   0.60483   0.17309   0.00000  Uiso   1.00
H174   H     0.07785   0.11485   0.40800   0.00000  Uiso   1.00
H175   H     0.81727   0.63424   0.37563   0.00000  Uiso   1.00
O176   O     0.32798   0.51478   0.25633   0.00000  Uiso   1.00
O177   O     0.11579   0.18391   0.56453   0.00000  Uiso   1.00
O178   O     0.77391   0.55335   0.52206   0.00000  Uiso   1.00
N179   N     0.26944   0.56425   0.38058   0.00000  Uiso   1.00
N180   N     0.11825   0.04109   0.60020   0.00000  Uiso   1.00
N181   N     0.87462   0.59178   0.56995   0.00000  Uiso   1.00
N182   N     0.23967   0.60082   0.24204   0.00000  Uiso   1.00
N183   N     0.08848   0.07766   0.46166   0.00000  Uiso   1.00
N184   N     0.84485   0.62835   0.43141   0.00000  Uiso   1.00
C185   C     0.40994   0.22911   0.02908   0.00000  Uiso   1.00
C186   C     0.36778   0.19260   0.95430   0.00000  Uiso   1.00
C187   C     0.31575   0.14155   0.96859   0.00000  Uiso   1.00
C188   C     0.28336   0.11464   0.89117   0.00000  Uiso   1.00
C189   C     0.21499   0.05443   0.78851   0.00000  Uiso   1.00
C190   C     0.40944   0.32402   0.01482   0.00000  Uiso   1.00
C191   C     0.39245   0.38346   0.08001   0.00000  Uiso   1.00
C192   C     0.39513   0.46719   0.05353   0.00000  Uiso   1.00
C193   C     0.39148   0.61102   0.04486   0.00000  Uiso   1.00
C194   C     0.47658   0.20018   0.00648   0.00000  Uiso   1.00
C195   C     0.51605   0.15551   0.06466   0.00000  Uiso   1.00
C196   C     0.57527   0.13499   0.03117   0.00000  Uiso   1.00
C197   C     0.67586   0.08654   0.00955   0.00000  Uiso   1.00
C198   C     0.44495   0.27212   0.86616   0.00000  Uiso   1.00
C199   C     0.38680   0.21596   0.86581   0.00000  Uiso   1.00
C200   C     0.35448   0.18913   0.78834   0.00000  Uiso   1.00
C201   C     0.30241   0.13804   0.80252   0.00000  Uiso   1.00
C202   C     0.42846   0.34739   0.92634   0.00000  Uiso   1.00
C203   C     0.43117   0.43104   0.89976   0.00000  Uiso   1.00
C204   C     0.41418   0.49060   0.96488   0.00000  Uiso   1.00
C205   C     0.49560   0.22354   0.91799   0.00000  Uiso   1.00
C206   C     0.55477   0.20309   0.88441   0.00000  Uiso   1.00
C207   C     0.59432   0.15840   0.94252   0.00000  Uiso   1.00
H208   H     0.39514   0.21093   0.09798   0.00000  Uiso   1.00
H209   H     0.30105   0.12349   0.03709   0.00000  Uiso   1.00
H210   H     0.37774   0.36537   0.14849   0.00000  Uiso   1.00
H211   H     0.50132   0.13745   0.13314   0.00000  Uiso   1.00
H212   H     0.20511   0.03687   0.93055   0.00000  Uiso   1.00
H213   H     0.36683   0.54689   0.16546   0.00000  Uiso   1.00
H214   H     0.62742   0.06628   0.13309   0.00000  Uiso   1.00
H215   H     0.45975   0.29030   0.79727   0.00000  Uiso   1.00
H216   H     0.36921   0.20721   0.71987   0.00000  Uiso   1.00
H217   H     0.44589   0.44910   0.83127   0.00000  Uiso   1.00
H218   H     0.56947   0.22118   0.81592   0.00000  Uiso   1.00
H219   H     0.26042   0.10483   0.67309   0.00000  Uiso   1.00
H220   H     0.42215   0.61485   0.90800   0.00000  Uiso   1.00
H221   H     0.68273   0.13424   0.87563   0.00000  Uiso   1.00
O222   O     0.17202   0.01478   0.75633   0.00000  Uiso   1.00
O223   O     0.38421   0.68391   0.06453   0.00000  Uiso   1.00
O224   O     0.72609   0.05335   0.02206   0.00000  Uiso   1.00
N225   N     0.23056   0.06425   0.88058   0.00000  Uiso   1.00
N226   N     0.38175   0.54109   0.10020   0.00000  Uiso   1.00
N227   N     0.62538   0.09178   0.06995   0.00000  Uiso   1.00
N228   N     0.26033   0.10082   0.74204   0.00000  Uiso   1.00
N229   N     0.41152   0.57766   0.96166   0.00000  Uiso   1.00
N230   N     0.65515   0.12835   0.93141   0.00000  Uiso   1.00
C231   C     0.90994   0.72911   0.02908   0.00000  Uiso   1.00
C232   C     0.86778   0.69260   0.95430   0.00000  Uiso   1.00
C233   C     0.81575   0.64155   0.96859   0.00000  Uiso   1.00
C234   C     0.78336   0.61464   0.89117   0.00000  Uiso   1.00
C235   C     0.71499   0.55443   0.78851   0.00000  Uiso   1.00
C236   C     0.90944   0.82402   0.01482   0.00000  Uiso   1.00
C237   C     0.89245   0.88346   0.08001   0.00000  Uiso   1.00
C238   C     0.89513   0.96719   0.05353   0.00000  Uiso   1.00
C239   C     0.89148   0.11102   0.04486   0.00000  Uiso   1.00
C240   C     0.97658   0.70018   0.00648   0.00000  Uiso   1.00
C241   C     0.01605   0.65551   0.06466   0.00000  Uiso   1.00
C242   C     0.07527   0.63499   0.03117   0.00000  Uiso   1.00
C243   C     0.17586   0.58654   0.00955   0.00000  Uiso   1.00
C244   C     0.94495   0.77212   0.86616   0.00000  Uiso   1.00
C245   C     0.88680   0.71596   0.86581   0.00000  Uiso   1.00
C246   C     0.85448   0.68913   0.78834   0.00000  Uiso   1.00
C247   C     0.80241   0.63804   0.80252   0.00000  Uiso   1.00
C248   C     0.92846   0.84739   0.92634   0.00000  Uiso   1.00
C249   C     0.93117   0.93104   0.89976   0.00000  Uiso   1.00
C250   C     0.91418   0.99060   0.96488   0.00000  Uiso   1.00
C251   C     0.99560   0.72354   0.91799   0.00000  Uiso   1.00
C252   C     0.05477   0.70309   0.88441   0.00000  Uiso   1.00
C253   C     0.09432   0.65840   0.94252   0.00000  Uiso   1.00
H254   H     0.89514   0.71093   0.09798   0.00000  Uiso   1.00
H255   H     0.80105   0.62349   0.03709   0.00000  Uiso   1.00
H256   H     0.87774   0.86537   0.14849   0.00000  Uiso   1.00
H257   H     0.00132   0.63745   0.13314   0.00000  Uiso   1.00
H258   H     0.70511   0.53687   0.93055   0.00000  Uiso   1.00
H259   H     0.86683   0.04689   0.16546   0.00000  Uiso   1.00
H260   H     0.12742   0.56628   0.13309   0.00000  Uiso   1.00
H261   H     0.95975   0.79030   0.79727   0.00000  Uiso   1.00
H262   H     0.86921   0.70721   0.71987   0.00000  Uiso   1.00
H263   H     0.94589   0.94910   0.83127   0.00000  Uiso   1.00
H264   H     0.06947   0.72118   0.81592   0.00000  Uiso   1.00
H265   H     0.76042   0.60483   0.67309   0.00000  Uiso   1.00
H266   H     0.92215   0.11485   0.90800   0.00000  Uiso   1.00
H267   H     0.18273   0.63424   0.87563   0.00000  Uiso   1.00
O268   O     0.67202   0.51478   0.75633   0.00000  Uiso   1.00
O269   O     0.88421   0.18391   0.06453   0.00000  Uiso   1.00
O270   O     0.22609   0.55335   0.02206   0.00000  Uiso   1.00
N271   N     0.73056   0.56425   0.88058   0.00000  Uiso   1.00
N272   N     0.88175   0.04109   0.10020   0.00000  Uiso   1.00
N273   N     0.12538   0.59178   0.06995   0.00000  Uiso   1.00
N274   N     0.76033   0.60082   0.74204   0.00000  Uiso   1.00
N275   N     0.91152   0.07766   0.96166   0.00000  Uiso   1.00
N276   N     0.15515   0.62835   0.93141   0.00000  Uiso   1.00
C277   C     0.59006   0.77089   0.02908   0.00000  Uiso   1.00
C278   C     0.63222   0.80740   0.95430   0.00000  Uiso   1.00
C279   C     0.68425   0.85845   0.96859   0.00000  Uiso   1.00
C280   C     0.71664   0.88536   0.89117   0.00000  Uiso   1.00
C281   C     0.78501   0.94557   0.78851   0.00000  Uiso   1.00
C282   C     0.59056   0.67598   0.01482   0.00000  Uiso   1.00
C283   C     0.60755   0.61654   0.08001   0.00000  Uiso   1.00
C284   C     0.60487   0.53281   0.05353   0.00000  Uiso   1.00
C285   C     0.60852   0.38898   0.04486   0.00000  Uiso   1.00
C286   C     0.52342   0.79982   0.00648   0.00000  Uiso   1.00
C287   C     0.48395   0.84449   0.06466   0.00000  Uiso   1.00
C288   C     0.42473   0.86501   0.03117   0.00000  Uiso   1.00
C289   C     0.32414   0.91346   0.00955   0.00000  Uiso   1.00
C290   C     0.55505   0.72788   0.86616   0.00000  Uiso   1.00
C291   C     0.61320   0.78404   0.86581   0.00000  Uiso   1.00
C292   C     0.64552   0.81087   0.78834   0.00000  Uiso   1.00
C293   C     0.69759   0.86196   0.80252   0.00000  Uiso   1.00
C294   C     0.57154   0.65261   0.92634   0.00000  Uiso   1.00
C295   C     0.56883   0.56896   0.89976   0.00000  Uiso   1.00
C296   C     0.58582   0.50940   0.96488   0.00000  Uiso   1.00
C297   C     0.50440   0.77646   0.91799   0.00000  Uiso   1.00
C298   C     0.44523   0.79691   0.88441   0.00000  Uiso   1.00
C299   C     0.40568   0.84160   0.94252   0.00000  Uiso   1.00
H300   H     0.60486   0.78907   0.09798   0.00000  Uiso   1.00
H301   H     0.69895   0.87651   0.03709   0.00000  Uiso   1.00
H302   H     0.62226   0.63463   0.14849   0.00000  Uiso   1.00
H303   H     0.49868   0.86255   0.13314   0.00000  Uiso   1.00
H304   H     0.79489   0.96313   0.93055   0.00000  Uiso   1.00
H305   H     0.63317   0.45311   0.16546   0.00000  Uiso   1.00
H306   H     0.37258   0.93372   0.13309   0.00000  Uiso   1.00
H307   H     0.54025   0.70970   0.79727   0.00000  Uiso   1.00
H308   H     0.63079   0.79279   0.71987   0.00000  Uiso   1.00
H309   H     0.55411   0.55090   0.83127   0.00000  Uiso   1.00
H310   H     0.43053   0.77882   0.81592   0.00000  Uiso   1.00
H311   H     0.73958   0.89517   0.67309   0.00000  Uiso   1.00
H312   H     0.57785   0.38515   0.90800   0.00000  Uiso   1.00
H313   H     0.31727   0.86576   0.87563   0.00000  Uiso   1.00
O314   O     0.82798   0.98522   0.75633   0.00000  Uiso   1.00
O315   O     0.61579   0.31609   0.06453   0.00000  Uiso   1.00
O316   O     0.27391   0.94665   0.02206   0.00000  Uiso   1.00
N317   N     0.76944   0.93575   0.88058   0.00000  Uiso   1.00
N318   N     0.61825   0.45891   0.10020   0.00000  Uiso   1.00
N319   N     0.37462   0.90822   0.06995   0.00000  Uiso   1.00
N320   N     0.73967   0.89918   0.74204   0.00000  Uiso   1.00
N321   N     0.58848   0.42234   0.96166   0.00000  Uiso   1.00
N322   N     0.34485   0.87165   0.93141   0.00000  Uiso   1.00
C323   C     0.09006   0.27089   0.02908   0.00000  Uiso   1.00
C324   C     0.13222   0.30740   0.95430   0.00000  Uiso   1.00
C325   C     0.18425   0.35845   0.96859   0.00000  Uiso   1.00
C326   C     0.21664   0.38536   0.89117   0.00000  Uiso   1.00
C327   C     0.28501   0.44557   0.78851   0.00000  Uiso   1.00
C328   C     0.09056   0.17598   0.01482   0.00000  Uiso   1.00
C329   C     0.10755   0.11654   0.08001   0.00000  Uiso   1.00
C330   C     0.10487   0.03281   0.05353   0.00000  Uiso   1.00
C331   C     0.10852   0.88898   0.04486   0.00000  Uiso   1.00
C332   C     0.02342   0.29982   0.00648   0.00000  Uiso   1.00
C333   C     0.98395   0.34449   0.06466   0.00000  Uiso   1.00
C334   C     0.92473   0.36501   0.03117   0.00000  Uiso   1.00
C335   C     0.82414   0.41346   0.00955   0.00000  Uiso   1.00
C336   C     0.05505   0.22788   0.86616   0.00000  Uiso   1.00
C337   C     0.11320   0.28404   0.86581   0.00000  Uiso   1.00
C338   C     0.14552   0.31087   0.78834   0.00000  Uiso   1.00
C339   C     0.19759   0.36196   0.80252   0.00000  Uiso   1.00
C340   C     0.07154   0.15261   0.92634   0.00000  Uiso   1.00
C341   C     0.06883   0.06896   0.89976   0.00000  Uiso   1.00
C342   C     0.08582   0.00940   0.96488   0.00000  Uiso   1.00
C343   C     0.00440   0.27646   0.91799   0.00000  Uiso   1.00
C344   C     0.94523   0.29691   0.88441   0.00000  Uiso   1.00
C345   C     0.90568   0.34160   0.94252   0.00000  Uiso   1.00
H346   H     0.10486   0.28907   0.09798   0.00000  Uiso   1.00
H347   H     0.19895   0.37651   0.03709   0.00000  Uiso   1.00
H348   H     0.12226   0.13463   0.14849   0.00000  Uiso   1.00
H349   H     0.99868   0.36255   0.13314   0.00000  Uiso   1.00
H350   H     0.29489   0.46313   0.93055   0.00000  Uiso   1.00
H351   H     0.13317   0.95311   0.16546   0.00000  Uiso   1.00
H352   H     0.87258   0.43372   0.13309   0.00000  Uiso   1.00
H353   H     0.04025   0.20970   0.79727   0.00000  Uiso   1.00
H354   H     0.13079   0.29279   0.71987   0.00000  Uiso   1.00
H355   H     0.05411   0.05090   0.83127   0.00000  Uiso   1.00
H356   H     0.93053   0.27882   0.81592   0.00000  Uiso   1.00
H357   H     0.23958   0.39517   0.67309   0.00000  Uiso   1.00
H358   H     0.07785   0.88515   0.90800   0.00000  Uiso   1.00
H359   H     0.81727   0.36576   0.87563   0.00000  Uiso   1.00
O360   O     0.32798   0.48522   0.75633   0.00000  Uiso   1.00
O361   O     0.11579   0.81609   0.06453   0.00000  Uiso   1.00
O362   O     0.77391   0.44665   0.02206   0.00000  Uiso   1.00
N363   N     0.26944   0.43575   0.88058   0.00000  Uiso   1.00
N364   N     0.11825   0.95891   0.10020   0.00000  Uiso   1.00
N365   N     0.87462   0.40822   0.06995   0.00000  Uiso   1.00
N366   N     0.23967   0.39918   0.74204   0.00000  Uiso   1.00
N367   N     0.08848   0.92234   0.96166   0.00000  Uiso   1.00
N368   N     0.84485   0.37165   0.93141   0.00000  Uiso   1.00
