data_job_03897
_audit_creation_date              2018-12-19
_audit_creation_method            'Materials Studio'
_symmetry_space_group_name_H-M    'P1'
_symmetry_Int_Tables_number       1
_symmetry_cell_setting            triclinic
loop_
_symmetry_equiv_pos_as_xyz
  x,y,z
_cell_length_a                    15.0540
_cell_length_b                    15.0540
_cell_length_c                    27.2059
_cell_angle_alpha                 90.0000
_cell_angle_beta                  90.0000
_cell_angle_gamma                 90.0000
loop_
_atom_site_label
_atom_site_type_symbol
_atom_site_fract_x
_atom_site_fract_y
_atom_site_fract_z
_atom_site_U_iso_or_equiv
_atom_site_adp_type
_atom_site_occupancy
C1     C     0.78944   0.75041   0.40421   0.00000  Uiso   1.00
C2     C     0.83537   0.72598   0.35612   0.00000  Uiso   1.00
C3     C     0.92229   0.74671   0.34359   0.00000  Uiso   1.00
C4     C     0.95190   0.71841   0.29786   0.00000  Uiso   1.00
C5     C     0.03162   0.68770   0.22804   0.00000  Uiso   1.00
C6     C     0.70640   0.80234   0.38990   0.00000  Uiso   1.00
C7     C     0.68489   0.88727   0.40578   0.00000  Uiso   1.00
C8     C     0.60592   0.92324   0.38849   0.00000  Uiso   1.00
C9     C     0.48538   0.01106   0.37114   0.00000  Uiso   1.00
C10    C     0.75666   0.66323   0.42624   0.00000  Uiso   1.00
C11    C     0.77738   0.63121   0.47268   0.00000  Uiso   1.00
C12    C     0.74070   0.55008   0.48600   0.00000  Uiso   1.00
C13    C     0.69820   0.42192   0.52508   0.00000  Uiso   1.00
C14    C     0.68745   0.66329   0.34529   0.00000  Uiso   1.00
C15    C     0.77997   0.67865   0.32412   0.00000  Uiso   1.00
C16    C     0.80945   0.65031   0.27840   0.00000  Uiso   1.00
C17    C     0.89640   0.67100   0.26580   0.00000  Uiso   1.00
C18    C     0.65100   0.75502   0.35790   0.00000  Uiso   1.00
C19    C     0.57204   0.79087   0.34059   0.00000  Uiso   1.00
C20    C     0.55041   0.87583   0.35643   0.00000  Uiso   1.00
C21    C     0.70126   0.61591   0.39424   0.00000  Uiso   1.00
C22    C     0.66453   0.53481   0.40749   0.00000  Uiso   1.00
C23    C     0.68520   0.50267   0.45394   0.00000  Uiso   1.00
H24    H     0.83257   0.78726   0.42913   0.00000  Uiso   1.00
H25    H     0.96514   0.78334   0.36836   0.00000  Uiso   1.00
H26    H     0.72777   0.92387   0.43055   0.00000  Uiso   1.00
H27    H     0.82025   0.66785   0.49744   0.00000  Uiso   1.00
H28    H     0.08768   0.75815   0.28687   0.00000  Uiso   1.00
H29    H     0.58715   0.05445   0.41800   0.00000  Uiso   1.00
H30    H     0.78217   0.51459   0.55906   0.00000  Uiso   1.00
H31    H     0.64431   0.62645   0.32037   0.00000  Uiso   1.00
H32    H     0.76656   0.61369   0.25364   0.00000  Uiso   1.00
H33    H     0.52918   0.75423   0.31582   0.00000  Uiso   1.00
H34    H     0.62167   0.49821   0.38272   0.00000  Uiso   1.00
H35    H     0.92650   0.62046   0.19375   0.00000  Uiso   1.00
H36    H     0.42597   0.91677   0.32489   0.00000  Uiso   1.00
H37    H     0.62099   0.37690   0.46595   0.00000  Uiso   1.00
O38    O     0.09090   0.68385   0.19837   0.00000  Uiso   1.00
O39    O     0.43421   0.07258   0.37041   0.00000  Uiso   1.00
O40    O     0.69007   0.36429   0.55548   0.00000  Uiso   1.00
N41    N     0.03298   0.72748   0.27412   0.00000  Uiso   1.00
N42    N     0.56502   0.00451   0.39671   0.00000  Uiso   1.00
N43    N     0.74732   0.49980   0.52860   0.00000  Uiso   1.00
N44    N     0.94625   0.65339   0.22401   0.00000  Uiso   1.00
N45    N     0.47829   0.93042   0.34661   0.00000  Uiso   1.00
N46    N     0.66059   0.42571   0.47849   0.00000  Uiso   1.00
C47    C     0.21056   0.24959   0.90421   0.00000  Uiso   1.00
C48    C     0.16463   0.27402   0.85612   0.00000  Uiso   1.00
C49    C     0.07771   0.25329   0.84359   0.00000  Uiso   1.00
C50    C     0.04810   0.28159   0.79786   0.00000  Uiso   1.00
C51    C     0.96838   0.31230   0.72804   0.00000  Uiso   1.00
C52    C     0.29360   0.19766   0.88990   0.00000  Uiso   1.00
C53    C     0.31511   0.11273   0.90578   0.00000  Uiso   1.00
C54    C     0.39408   0.07676   0.88849   0.00000  Uiso   1.00
C55    C     0.51462   0.98894   0.87114   0.00000  Uiso   1.00
C56    C     0.24334   0.33677   0.92624   0.00000  Uiso   1.00
C57    C     0.22262   0.36879   0.97268   0.00000  Uiso   1.00
C58    C     0.25930   0.44992   0.98600   0.00000  Uiso   1.00
C59    C     0.30180   0.57808   0.02508   0.00000  Uiso   1.00
C60    C     0.31255   0.33671   0.84529   0.00000  Uiso   1.00
C61    C     0.22003   0.32135   0.82412   0.00000  Uiso   1.00
C62    C     0.19055   0.34969   0.77840   0.00000  Uiso   1.00
C63    C     0.10360   0.32900   0.76580   0.00000  Uiso   1.00
C64    C     0.34900   0.24498   0.85790   0.00000  Uiso   1.00
C65    C     0.42796   0.20913   0.84059   0.00000  Uiso   1.00
C66    C     0.44959   0.12417   0.85643   0.00000  Uiso   1.00
C67    C     0.29874   0.38409   0.89424   0.00000  Uiso   1.00
C68    C     0.33547   0.46519   0.90749   0.00000  Uiso   1.00
C69    C     0.31480   0.49733   0.95394   0.00000  Uiso   1.00
H70    H     0.16743   0.21274   0.92913   0.00000  Uiso   1.00
H71    H     0.03486   0.21666   0.86836   0.00000  Uiso   1.00
H72    H     0.27223   0.07613   0.93055   0.00000  Uiso   1.00
H73    H     0.17975   0.33215   0.99744   0.00000  Uiso   1.00
H74    H     0.91232   0.24185   0.78687   0.00000  Uiso   1.00
H75    H     0.41285   0.94555   0.91800   0.00000  Uiso   1.00
H76    H     0.21783   0.48541   0.05906   0.00000  Uiso   1.00
H77    H     0.35569   0.37355   0.82037   0.00000  Uiso   1.00
H78    H     0.23344   0.38631   0.75364   0.00000  Uiso   1.00
H79    H     0.47082   0.24577   0.81582   0.00000  Uiso   1.00
H80    H     0.37833   0.50179   0.88272   0.00000  Uiso   1.00
H81    H     0.07350   0.37954   0.69375   0.00000  Uiso   1.00
H82    H     0.57403   0.08323   0.82489   0.00000  Uiso   1.00
H83    H     0.37901   0.62310   0.96595   0.00000  Uiso   1.00
O84    O     0.90910   0.31615   0.69837   0.00000  Uiso   1.00
O85    O     0.56579   0.92742   0.87041   0.00000  Uiso   1.00
O86    O     0.30993   0.63571   0.05548   0.00000  Uiso   1.00
N87    N     0.96702   0.27252   0.77412   0.00000  Uiso   1.00
N88    N     0.43498   0.99549   0.89671   0.00000  Uiso   1.00
N89    N     0.25268   0.50020   0.02860   0.00000  Uiso   1.00
N90    N     0.05375   0.34661   0.72401   0.00000  Uiso   1.00
N91    N     0.52171   0.06958   0.84661   0.00000  Uiso   1.00
N92    N     0.33941   0.57429   0.97849   0.00000  Uiso   1.00
C93    C     0.74959   0.28944   0.15421   0.00000  Uiso   1.00
C94    C     0.77402   0.33537   0.10612   0.00000  Uiso   1.00
C95    C     0.75329   0.42229   0.09359   0.00000  Uiso   1.00
C96    C     0.78159   0.45190   0.04786   0.00000  Uiso   1.00
C97    C     0.81230   0.53162   0.97804   0.00000  Uiso   1.00
C98    C     0.69766   0.20640   0.13990   0.00000  Uiso   1.00
C99    C     0.61273   0.18489   0.15578   0.00000  Uiso   1.00
C100   C     0.57676   0.10592   0.13849   0.00000  Uiso   1.00
C101   C     0.48894   0.98538   0.12114   0.00000  Uiso   1.00
C102   C     0.83677   0.25666   0.17624   0.00000  Uiso   1.00
C103   C     0.86879   0.27738   0.22268   0.00000  Uiso   1.00
C104   C     0.94992   0.24070   0.23600   0.00000  Uiso   1.00
C105   C     0.07808   0.19820   0.27508   0.00000  Uiso   1.00
C106   C     0.83671   0.18745   0.09529   0.00000  Uiso   1.00
C107   C     0.82135   0.27997   0.07412   0.00000  Uiso   1.00
C108   C     0.84969   0.30945   0.02840   0.00000  Uiso   1.00
C109   C     0.82900   0.39640   0.01580   0.00000  Uiso   1.00
C110   C     0.74498   0.15100   0.10790   0.00000  Uiso   1.00
C111   C     0.70913   0.07204   0.09059   0.00000  Uiso   1.00
C112   C     0.62417   0.05041   0.10643   0.00000  Uiso   1.00
C113   C     0.88409   0.20126   0.14424   0.00000  Uiso   1.00
C114   C     0.96519   0.16453   0.15749   0.00000  Uiso   1.00
C115   C     0.99733   0.18520   0.20394   0.00000  Uiso   1.00
H116   H     0.71274   0.33257   0.17913   0.00000  Uiso   1.00
H117   H     0.71666   0.46514   0.11836   0.00000  Uiso   1.00
H118   H     0.57613   0.22777   0.18055   0.00000  Uiso   1.00
H119   H     0.83215   0.32025   0.24744   0.00000  Uiso   1.00
H120   H     0.74185   0.58768   0.03687   0.00000  Uiso   1.00
H121   H     0.44555   0.08715   0.16800   0.00000  Uiso   1.00
H122   H     0.98541   0.28217   0.30906   0.00000  Uiso   1.00
H123   H     0.87355   0.14431   0.07037   0.00000  Uiso   1.00
H124   H     0.88631   0.26656   0.00364   0.00000  Uiso   1.00
H125   H     0.74577   0.02918   0.06582   0.00000  Uiso   1.00
H126   H     0.00179   0.12167   0.13272   0.00000  Uiso   1.00
H127   H     0.87954   0.42650   0.94375   0.00000  Uiso   1.00
H128   H     0.58323   0.92597   0.07489   0.00000  Uiso   1.00
H129   H     0.12310   0.12099   0.21595   0.00000  Uiso   1.00
O130   O     0.81615   0.59090   0.94837   0.00000  Uiso   1.00
O131   O     0.42742   0.93421   0.12041   0.00000  Uiso   1.00
O132   O     0.13571   0.19007   0.30548   0.00000  Uiso   1.00
N133   N     0.77252   0.53298   0.02412   0.00000  Uiso   1.00
N134   N     0.49549   0.06502   0.14671   0.00000  Uiso   1.00
N135   N     0.00020   0.24732   0.27860   0.00000  Uiso   1.00
N136   N     0.84661   0.44625   0.97401   0.00000  Uiso   1.00
N137   N     0.56958   0.97829   0.09661   0.00000  Uiso   1.00
N138   N     0.07429   0.16059   0.22849   0.00000  Uiso   1.00
C139   C     0.25041   0.71056   0.65421   0.00000  Uiso   1.00
C140   C     0.22598   0.66463   0.60612   0.00000  Uiso   1.00
C141   C     0.24671   0.57771   0.59359   0.00000  Uiso   1.00
C142   C     0.21841   0.54810   0.54786   0.00000  Uiso   1.00
C143   C     0.18770   0.46838   0.47804   0.00000  Uiso   1.00
C144   C     0.30234   0.79360   0.63990   0.00000  Uiso   1.00
C145   C     0.38727   0.81511   0.65578   0.00000  Uiso   1.00
C146   C     0.42324   0.89408   0.63849   0.00000  Uiso   1.00
C147   C     0.51106   0.01462   0.62114   0.00000  Uiso   1.00
C148   C     0.16323   0.74334   0.67624   0.00000  Uiso   1.00
C149   C     0.13121   0.72262   0.72268   0.00000  Uiso   1.00
C150   C     0.05008   0.75930   0.73600   0.00000  Uiso   1.00
C151   C     0.92192   0.80180   0.77508   0.00000  Uiso   1.00
C152   C     0.16329   0.81255   0.59529   0.00000  Uiso   1.00
C153   C     0.17865   0.72003   0.57412   0.00000  Uiso   1.00
C154   C     0.15031   0.69055   0.52840   0.00000  Uiso   1.00
C155   C     0.17100   0.60360   0.51580   0.00000  Uiso   1.00
C156   C     0.25502   0.84900   0.60790   0.00000  Uiso   1.00
C157   C     0.29087   0.92796   0.59059   0.00000  Uiso   1.00
C158   C     0.37583   0.94959   0.60643   0.00000  Uiso   1.00
C159   C     0.11591   0.79874   0.64424   0.00000  Uiso   1.00
C160   C     0.03481   0.83547   0.65749   0.00000  Uiso   1.00
C161   C     0.00267   0.81480   0.70394   0.00000  Uiso   1.00
H162   H     0.28726   0.66743   0.67913   0.00000  Uiso   1.00
H163   H     0.28334   0.53486   0.61836   0.00000  Uiso   1.00
H164   H     0.42387   0.77223   0.68055   0.00000  Uiso   1.00
H165   H     0.16785   0.67975   0.74744   0.00000  Uiso   1.00
H166   H     0.25815   0.41232   0.53687   0.00000  Uiso   1.00
H167   H     0.55445   0.91285   0.66800   0.00000  Uiso   1.00
H168   H     0.01459   0.71783   0.80906   0.00000  Uiso   1.00
H169   H     0.12645   0.85569   0.57037   0.00000  Uiso   1.00
H170   H     0.11369   0.73344   0.50364   0.00000  Uiso   1.00
H171   H     0.25423   0.97082   0.56582   0.00000  Uiso   1.00
H172   H     0.99821   0.87833   0.63272   0.00000  Uiso   1.00
H173   H     0.12046   0.57350   0.44375   0.00000  Uiso   1.00
H174   H     0.41677   0.07403   0.57489   0.00000  Uiso   1.00
H175   H     0.87690   0.87901   0.71595   0.00000  Uiso   1.00
O176   O     0.18385   0.40910   0.44837   0.00000  Uiso   1.00
O177   O     0.57258   0.06579   0.62041   0.00000  Uiso   1.00
O178   O     0.86429   0.80993   0.80548   0.00000  Uiso   1.00
N179   N     0.22748   0.46702   0.52412   0.00000  Uiso   1.00
N180   N     0.50451   0.93498   0.64671   0.00000  Uiso   1.00
N181   N     0.99980   0.75268   0.77860   0.00000  Uiso   1.00
N182   N     0.15339   0.55375   0.47401   0.00000  Uiso   1.00
N183   N     0.43042   0.02171   0.59661   0.00000  Uiso   1.00
N184   N     0.92571   0.83941   0.72849   0.00000  Uiso   1.00
C185   C     0.71056   0.25041   0.34579   0.00000  Uiso   1.00
C186   C     0.66463   0.22598   0.39388   0.00000  Uiso   1.00
C187   C     0.57771   0.24671   0.40641   0.00000  Uiso   1.00
C188   C     0.54810   0.21841   0.45214   0.00000  Uiso   1.00
C189   C     0.46838   0.18770   0.52196   0.00000  Uiso   1.00
C190   C     0.79360   0.30234   0.36010   0.00000  Uiso   1.00
C191   C     0.81511   0.38727   0.34422   0.00000  Uiso   1.00
C192   C     0.89408   0.42324   0.36151   0.00000  Uiso   1.00
C193   C     0.01462   0.51106   0.37886   0.00000  Uiso   1.00
C194   C     0.74334   0.16323   0.32376   0.00000  Uiso   1.00
C195   C     0.72262   0.13121   0.27732   0.00000  Uiso   1.00
C196   C     0.75930   0.05008   0.26400   0.00000  Uiso   1.00
C197   C     0.80180   0.92192   0.22492   0.00000  Uiso   1.00
C198   C     0.81255   0.16329   0.40471   0.00000  Uiso   1.00
C199   C     0.72003   0.17865   0.42588   0.00000  Uiso   1.00
C200   C     0.69055   0.15031   0.47160   0.00000  Uiso   1.00
C201   C     0.60360   0.17100   0.48420   0.00000  Uiso   1.00
C202   C     0.84900   0.25502   0.39210   0.00000  Uiso   1.00
C203   C     0.92796   0.29087   0.40941   0.00000  Uiso   1.00
C204   C     0.94959   0.37583   0.39357   0.00000  Uiso   1.00
C205   C     0.79874   0.11591   0.35576   0.00000  Uiso   1.00
C206   C     0.83547   0.03481   0.34251   0.00000  Uiso   1.00
C207   C     0.81480   0.00267   0.29606   0.00000  Uiso   1.00
H208   H     0.66743   0.28726   0.32087   0.00000  Uiso   1.00
H209   H     0.53486   0.28334   0.38164   0.00000  Uiso   1.00
H210   H     0.77223   0.42387   0.31945   0.00000  Uiso   1.00
H211   H     0.67975   0.16785   0.25256   0.00000  Uiso   1.00
H212   H     0.41232   0.25815   0.46313   0.00000  Uiso   1.00
H213   H     0.91285   0.55445   0.33200   0.00000  Uiso   1.00
H214   H     0.71783   0.01459   0.19094   0.00000  Uiso   1.00
H215   H     0.85569   0.12645   0.42963   0.00000  Uiso   1.00
H216   H     0.73344   0.11369   0.49636   0.00000  Uiso   1.00
H217   H     0.97082   0.25423   0.43418   0.00000  Uiso   1.00
H218   H     0.87833   0.99821   0.36728   0.00000  Uiso   1.00
H219   H     0.57350   0.12046   0.55625   0.00000  Uiso   1.00
H220   H     0.07403   0.41677   0.42511   0.00000  Uiso   1.00
H221   H     0.87901   0.87690   0.28405   0.00000  Uiso   1.00
O222   O     0.40910   0.18385   0.55163   0.00000  Uiso   1.00
O223   O     0.06579   0.57258   0.37959   0.00000  Uiso   1.00
O224   O     0.80993   0.86429   0.19452   0.00000  Uiso   1.00
N225   N     0.46702   0.22748   0.47588   0.00000  Uiso   1.00
N226   N     0.93498   0.50451   0.35329   0.00000  Uiso   1.00
N227   N     0.75268   0.99980   0.22140   0.00000  Uiso   1.00
N228   N     0.55375   0.15339   0.52599   0.00000  Uiso   1.00
N229   N     0.02171   0.43042   0.40339   0.00000  Uiso   1.00
N230   N     0.83941   0.92571   0.27151   0.00000  Uiso   1.00
C231   C     0.28944   0.74959   0.84579   0.00000  Uiso   1.00
C232   C     0.33537   0.77402   0.89388   0.00000  Uiso   1.00
C233   C     0.42229   0.75329   0.90641   0.00000  Uiso   1.00
C234   C     0.45190   0.78159   0.95214   0.00000  Uiso   1.00
C235   C     0.53162   0.81230   0.02196   0.00000  Uiso   1.00
C236   C     0.20640   0.69766   0.86010   0.00000  Uiso   1.00
C237   C     0.18489   0.61273   0.84422   0.00000  Uiso   1.00
C238   C     0.10592   0.57676   0.86151   0.00000  Uiso   1.00
C239   C     0.98538   0.48894   0.87886   0.00000  Uiso   1.00
C240   C     0.25666   0.83677   0.82376   0.00000  Uiso   1.00
C241   C     0.27738   0.86879   0.77732   0.00000  Uiso   1.00
C242   C     0.24070   0.94992   0.76400   0.00000  Uiso   1.00
C243   C     0.19820   0.07808   0.72492   0.00000  Uiso   1.00
C244   C     0.18745   0.83671   0.90471   0.00000  Uiso   1.00
C245   C     0.27997   0.82135   0.92588   0.00000  Uiso   1.00
C246   C     0.30945   0.84969   0.97160   0.00000  Uiso   1.00
C247   C     0.39640   0.82900   0.98420   0.00000  Uiso   1.00
C248   C     0.15100   0.74498   0.89210   0.00000  Uiso   1.00
C249   C     0.07204   0.70913   0.90941   0.00000  Uiso   1.00
C250   C     0.05041   0.62417   0.89357   0.00000  Uiso   1.00
C251   C     0.20126   0.88409   0.85576   0.00000  Uiso   1.00
C252   C     0.16453   0.96519   0.84251   0.00000  Uiso   1.00
C253   C     0.18520   0.99733   0.79606   0.00000  Uiso   1.00
H254   H     0.33257   0.71274   0.82087   0.00000  Uiso   1.00
H255   H     0.46514   0.71666   0.88164   0.00000  Uiso   1.00
H256   H     0.22777   0.57613   0.81945   0.00000  Uiso   1.00
H257   H     0.32025   0.83215   0.75256   0.00000  Uiso   1.00
H258   H     0.58768   0.74185   0.96313   0.00000  Uiso   1.00
H259   H     0.08715   0.44555   0.83200   0.00000  Uiso   1.00
H260   H     0.28217   0.98541   0.69094   0.00000  Uiso   1.00
H261   H     0.14431   0.87355   0.92963   0.00000  Uiso   1.00
H262   H     0.26656   0.88631   0.99636   0.00000  Uiso   1.00
H263   H     0.02918   0.74577   0.93418   0.00000  Uiso   1.00
H264   H     0.12167   0.00179   0.86728   0.00000  Uiso   1.00
H265   H     0.42650   0.87954   0.05625   0.00000  Uiso   1.00
H266   H     0.92597   0.58323   0.92511   0.00000  Uiso   1.00
H267   H     0.12099   0.12310   0.78405   0.00000  Uiso   1.00
O268   O     0.59090   0.81615   0.05163   0.00000  Uiso   1.00
O269   O     0.93421   0.42742   0.87959   0.00000  Uiso   1.00
O270   O     0.19007   0.13571   0.69452   0.00000  Uiso   1.00
N271   N     0.53298   0.77252   0.97588   0.00000  Uiso   1.00
N272   N     0.06502   0.49549   0.85329   0.00000  Uiso   1.00
N273   N     0.24732   0.00020   0.72140   0.00000  Uiso   1.00
N274   N     0.44625   0.84661   0.02599   0.00000  Uiso   1.00
N275   N     0.97829   0.56958   0.90339   0.00000  Uiso   1.00
N276   N     0.16059   0.07429   0.77151   0.00000  Uiso   1.00
C277   C     0.75041   0.78944   0.59579   0.00000  Uiso   1.00
C278   C     0.72598   0.83537   0.64388   0.00000  Uiso   1.00
C279   C     0.74671   0.92229   0.65641   0.00000  Uiso   1.00
C280   C     0.71841   0.95190   0.70214   0.00000  Uiso   1.00
C281   C     0.68770   0.03162   0.77196   0.00000  Uiso   1.00
C282   C     0.80234   0.70640   0.61010   0.00000  Uiso   1.00
C283   C     0.88727   0.68489   0.59422   0.00000  Uiso   1.00
C284   C     0.92324   0.60592   0.61151   0.00000  Uiso   1.00
C285   C     0.01106   0.48538   0.62886   0.00000  Uiso   1.00
C286   C     0.66323   0.75666   0.57376   0.00000  Uiso   1.00
C287   C     0.63121   0.77738   0.52732   0.00000  Uiso   1.00
C288   C     0.55008   0.74070   0.51400   0.00000  Uiso   1.00
C289   C     0.42192   0.69820   0.47492   0.00000  Uiso   1.00
C290   C     0.66329   0.68745   0.65471   0.00000  Uiso   1.00
C291   C     0.67865   0.77997   0.67588   0.00000  Uiso   1.00
C292   C     0.65031   0.80945   0.72160   0.00000  Uiso   1.00
C293   C     0.67100   0.89640   0.73420   0.00000  Uiso   1.00
C294   C     0.75502   0.65100   0.64210   0.00000  Uiso   1.00
C295   C     0.79087   0.57204   0.65941   0.00000  Uiso   1.00
C296   C     0.87583   0.55041   0.64357   0.00000  Uiso   1.00
C297   C     0.61591   0.70126   0.60576   0.00000  Uiso   1.00
C298   C     0.53481   0.66453   0.59251   0.00000  Uiso   1.00
C299   C     0.50267   0.68520   0.54606   0.00000  Uiso   1.00
H300   H     0.78726   0.83257   0.57087   0.00000  Uiso   1.00
H301   H     0.78334   0.96514   0.63164   0.00000  Uiso   1.00
H302   H     0.92387   0.72777   0.56945   0.00000  Uiso   1.00
H303   H     0.66785   0.82025   0.50256   0.00000  Uiso   1.00
H304   H     0.75815   0.08768   0.71313   0.00000  Uiso   1.00
H305   H     0.05445   0.58715   0.58200   0.00000  Uiso   1.00
H306   H     0.51459   0.78217   0.44094   0.00000  Uiso   1.00
H307   H     0.62645   0.64431   0.67963   0.00000  Uiso   1.00
H308   H     0.61369   0.76656   0.74636   0.00000  Uiso   1.00
H309   H     0.75423   0.52918   0.68418   0.00000  Uiso   1.00
H310   H     0.49821   0.62167   0.61728   0.00000  Uiso   1.00
H311   H     0.62046   0.92650   0.80625   0.00000  Uiso   1.00
H312   H     0.91677   0.42597   0.67511   0.00000  Uiso   1.00
H313   H     0.37690   0.62099   0.53405   0.00000  Uiso   1.00
O314   O     0.68385   0.09090   0.80163   0.00000  Uiso   1.00
O315   O     0.07258   0.43421   0.62959   0.00000  Uiso   1.00
O316   O     0.36429   0.69007   0.44452   0.00000  Uiso   1.00
N317   N     0.72748   0.03298   0.72588   0.00000  Uiso   1.00
N318   N     0.00451   0.56502   0.60329   0.00000  Uiso   1.00
N319   N     0.49980   0.74732   0.47140   0.00000  Uiso   1.00
N320   N     0.65339   0.94625   0.77599   0.00000  Uiso   1.00
N321   N     0.93042   0.47829   0.65339   0.00000  Uiso   1.00
N322   N     0.42571   0.66059   0.52151   0.00000  Uiso   1.00
C323   C     0.24959   0.21056   0.09579   0.00000  Uiso   1.00
C324   C     0.27402   0.16463   0.14388   0.00000  Uiso   1.00
C325   C     0.25329   0.07771   0.15641   0.00000  Uiso   1.00
C326   C     0.28159   0.04810   0.20214   0.00000  Uiso   1.00
C327   C     0.31230   0.96838   0.27196   0.00000  Uiso   1.00
C328   C     0.19766   0.29360   0.11010   0.00000  Uiso   1.00
C329   C     0.11273   0.31511   0.09422   0.00000  Uiso   1.00
C330   C     0.07676   0.39408   0.11151   0.00000  Uiso   1.00
C331   C     0.98894   0.51462   0.12886   0.00000  Uiso   1.00
C332   C     0.33677   0.24334   0.07376   0.00000  Uiso   1.00
C333   C     0.36879   0.22262   0.02732   0.00000  Uiso   1.00
C334   C     0.44992   0.25930   0.01400   0.00000  Uiso   1.00
C335   C     0.57808   0.30180   0.97492   0.00000  Uiso   1.00
C336   C     0.33671   0.31255   0.15471   0.00000  Uiso   1.00
C337   C     0.32135   0.22003   0.17588   0.00000  Uiso   1.00
C338   C     0.34969   0.19055   0.22160   0.00000  Uiso   1.00
C339   C     0.32900   0.10360   0.23420   0.00000  Uiso   1.00
C340   C     0.24498   0.34900   0.14210   0.00000  Uiso   1.00
C341   C     0.20913   0.42796   0.15941   0.00000  Uiso   1.00
C342   C     0.12417   0.44959   0.14357   0.00000  Uiso   1.00
C343   C     0.38409   0.29874   0.10576   0.00000  Uiso   1.00
C344   C     0.46519   0.33547   0.09251   0.00000  Uiso   1.00
C345   C     0.49733   0.31480   0.04606   0.00000  Uiso   1.00
H346   H     0.21274   0.16743   0.07087   0.00000  Uiso   1.00
H347   H     0.21666   0.03486   0.13164   0.00000  Uiso   1.00
H348   H     0.07613   0.27223   0.06945   0.00000  Uiso   1.00
H349   H     0.33215   0.17975   0.00256   0.00000  Uiso   1.00
H350   H     0.24185   0.91232   0.21313   0.00000  Uiso   1.00
H351   H     0.94555   0.41285   0.08200   0.00000  Uiso   1.00
H352   H     0.48541   0.21783   0.94094   0.00000  Uiso   1.00
H353   H     0.37355   0.35569   0.17963   0.00000  Uiso   1.00
H354   H     0.38631   0.23344   0.24636   0.00000  Uiso   1.00
H355   H     0.24577   0.47082   0.18418   0.00000  Uiso   1.00
H356   H     0.50179   0.37833   0.11728   0.00000  Uiso   1.00
H357   H     0.37954   0.07350   0.30625   0.00000  Uiso   1.00
H358   H     0.08323   0.57403   0.17511   0.00000  Uiso   1.00
H359   H     0.62310   0.37901   0.03405   0.00000  Uiso   1.00
O360   O     0.31615   0.90910   0.30163   0.00000  Uiso   1.00
O361   O     0.92742   0.56579   0.12959   0.00000  Uiso   1.00
O362   O     0.63571   0.30993   0.94452   0.00000  Uiso   1.00
N363   N     0.27252   0.96702   0.22588   0.00000  Uiso   1.00
N364   N     0.99549   0.43498   0.10329   0.00000  Uiso   1.00
N365   N     0.50020   0.25268   0.97140   0.00000  Uiso   1.00
N366   N     0.34661   0.05375   0.27599   0.00000  Uiso   1.00
N367   N     0.06958   0.52171   0.15339   0.00000  Uiso   1.00
N368   N     0.57429   0.33941   0.02151   0.00000  Uiso   1.00
