data_job_06696
_audit_creation_date              2018-12-19
_audit_creation_method            'Materials Studio'
_symmetry_space_group_name_H-M    'P1'
_symmetry_Int_Tables_number       1
_symmetry_cell_setting            triclinic
loop_
_symmetry_equiv_pos_as_xyz
  x,y,z
_cell_length_a                    20.1365
_cell_length_b                    20.4380
_cell_length_c                    22.9420
_cell_angle_alpha                 67.5800
_cell_angle_beta                  97.5729
_cell_angle_gamma                 110.9575
loop_
_atom_site_label
_atom_site_type_symbol
_atom_site_fract_x
_atom_site_fract_y
_atom_site_fract_z
_atom_site_U_iso_or_equiv
_atom_site_adp_type
_atom_site_occupancy
C1     C     0.80176   0.28158   0.16251   0.00000  Uiso   1.00
C2     C     0.86973   0.34738   0.13641   0.00000  Uiso   1.00
C3     C     0.92942   0.34333   0.11580   0.00000  Uiso   1.00
C4     C     0.98618   0.40984   0.09359   0.00000  Uiso   1.00
C5     C     0.09219   0.50164   0.05334   0.00000  Uiso   1.00
C6     C     0.79042   0.27972   0.22762   0.00000  Uiso   1.00
C7     C     0.78341   0.21878   0.28370   0.00000  Uiso   1.00
C8     C     0.77339   0.22834   0.33827   0.00000  Uiso   1.00
C9     C     0.75621   0.21508   0.43961   0.00000  Uiso   1.00
C10    C     0.74146   0.30354   0.12158   0.00000  Uiso   1.00
C11    C     0.69327   0.26263   0.08851   0.00000  Uiso   1.00
C12    C     0.64201   0.29224   0.05381   0.00000  Uiso   1.00
C13    C     0.54881   0.31597   0.99051   0.00000  Uiso   1.00
C14    C     0.79641   0.40692   0.15972   0.00000  Uiso   1.00
C15    C     0.86682   0.41545   0.13490   0.00000  Uiso   1.00
C16    C     0.92350   0.48199   0.11271   0.00000  Uiso   1.00
C17    C     0.98327   0.47804   0.09207   0.00000  Uiso   1.00
C18    C     0.78751   0.34779   0.22611   0.00000  Uiso   1.00
C19    C     0.77749   0.35744   0.28061   0.00000  Uiso   1.00
C20    C     0.77048   0.29654   0.33675   0.00000  Uiso   1.00
C21    C     0.73855   0.37162   0.12006   0.00000  Uiso   1.00
C22    C     0.68735   0.40130   0.08542   0.00000  Uiso   1.00
C23    C     0.63910   0.36044   0.05230   0.00000  Uiso   1.00
H24    H     0.80402   0.22858   0.16369   0.00000  Uiso   1.00
H25    H     0.93165   0.29063   0.11699   0.00000  Uiso   1.00
H26    H     0.78566   0.16610   0.28485   0.00000  Uiso   1.00
H27    H     0.69553   0.20995   0.08969   0.00000  Uiso   1.00
H28    H     0.07189   0.38944   0.06456   0.00000  Uiso   1.00
H29    H     0.76402   0.12685   0.41851   0.00000  Uiso   1.00
H30    H     0.57397   0.21931   0.00698   0.00000  Uiso   1.00
H31    H     0.79414   0.45992   0.15854   0.00000  Uiso   1.00
H32    H     0.92124   0.53467   0.11155   0.00000  Uiso   1.00
H33    H     0.77524   0.41013   0.27942   0.00000  Uiso   1.00
H34    H     0.68512   0.45398   0.08426   0.00000  Uiso   1.00
H35    H     0.06344   0.58751   0.06015   0.00000  Uiso   1.00
H36    H     0.75557   0.32491   0.41410   0.00000  Uiso   1.00
H37    H     0.56552   0.41738   0.00257   0.00000  Uiso   1.00
O38    O     0.15146   0.53347   0.03156   0.00000  Uiso   1.00
O39    O     0.74754   0.18895   0.49592   0.00000  Uiso   1.00
O40    O     0.49820   0.31026   0.95600   0.00000  Uiso   1.00
N41    N     0.05246   0.42580   0.06996   0.00000  Uiso   1.00
N42    N     0.76463   0.18030   0.40088   0.00000  Uiso   1.00
N43    N     0.58694   0.26673   0.01615   0.00000  Uiso   1.00
N44    N     0.04791   0.53238   0.06758   0.00000  Uiso   1.00
N45    N     0.76008   0.28688   0.39851   0.00000  Uiso   1.00
N46    N     0.58239   0.37331   0.01378   0.00000  Uiso   1.00
C47    C     0.46271   0.59777   0.18962   0.00000  Uiso   1.00
C48    C     0.51386   0.65173   0.21950   0.00000  Uiso   1.00
C49    C     0.58110   0.70089   0.19691   0.00000  Uiso   1.00
C50    C     0.61963   0.74560   0.23103   0.00000  Uiso   1.00
C51    C     0.70330   0.83002   0.26913   0.00000  Uiso   1.00
C52    C     0.44514   0.51972   0.24079   0.00000  Uiso   1.00
C53    C     0.45458   0.45788   0.23609   0.00000  Uiso   1.00
C54    C     0.43525   0.39146   0.28811   0.00000  Uiso   1.00
C55    C     0.41217   0.27091   0.35924   0.00000  Uiso   1.00
C56    C     0.39408   0.61636   0.17761   0.00000  Uiso   1.00
C57    C     0.36058   0.63576   0.11979   0.00000  Uiso   1.00
C58    C     0.29825   0.65068   0.11863   0.00000  Uiso   1.00
C59    C     0.19589   0.68019   0.09166   0.00000  Uiso   1.00
C60    C     0.41156   0.58974   0.29037   0.00000  Uiso   1.00
C61    C     0.48608   0.64737   0.27423   0.00000  Uiso   1.00
C62    C     0.52452   0.69201   0.30838   0.00000  Uiso   1.00
C63    C     0.59180   0.74123   0.28585   0.00000  Uiso   1.00
C64    C     0.41736   0.51535   0.29551   0.00000  Uiso   1.00
C65    C     0.39800   0.44900   0.34756   0.00000  Uiso   1.00
C66    C     0.40742   0.38709   0.34294   0.00000  Uiso   1.00
C67    C     0.36630   0.61200   0.23233   0.00000  Uiso   1.00
C68    C     0.30400   0.62689   0.23126   0.00000  Uiso   1.00
C69    C     0.27042   0.64631   0.17345   0.00000  Uiso   1.00
H70    H     0.48433   0.60116   0.14701   0.00000  Uiso   1.00
H71    H     0.60258   0.70424   0.15456   0.00000  Uiso   1.00
H72    H     0.47607   0.46127   0.19373   0.00000  Uiso   1.00
H73    H     0.38209   0.63913   0.07745   0.00000  Uiso   1.00
H74    H     0.72144   0.81659   0.18708   0.00000  Uiso   1.00
H75    H     0.45468   0.30427   0.26966   0.00000  Uiso   1.00
H76    H     0.25649   0.67931   0.02446   0.00000  Uiso   1.00
H77    H     0.38993   0.58635   0.33298   0.00000  Uiso   1.00
H78    H     0.50300   0.68863   0.35073   0.00000  Uiso   1.00
H79    H     0.37650   0.44565   0.38990   0.00000  Uiso   1.00
H80    H     0.28252   0.62351   0.27362   0.00000  Uiso   1.00
H81    H     0.64062   0.80391   0.34630   0.00000  Uiso   1.00
H82    H     0.37386   0.29158   0.42887   0.00000  Uiso   1.00
H83    H     0.17567   0.66663   0.18368   0.00000  Uiso   1.00
O84    O     0.75713   0.87778   0.27503   0.00000  Uiso   1.00
O85    O     0.40713   0.20563   0.38335   0.00000  Uiso   1.00
O86    O     0.14712   0.69768   0.06166   0.00000  Uiso   1.00
N87    N     0.68690   0.79958   0.22211   0.00000  Uiso   1.00
N88    N     0.43750   0.32059   0.29931   0.00000  Uiso   1.00
N89    N     0.25220   0.67120   0.07008   0.00000  Uiso   1.00
N90    N     0.64341   0.79276   0.30778   0.00000  Uiso   1.00
N91    N     0.39401   0.31377   0.38499   0.00000  Uiso   1.00
N92    N     0.20871   0.66438   0.15575   0.00000  Uiso   1.00
C93    C     0.64241   0.38334   0.71953   0.00000  Uiso   1.00
C94    C     0.67717   0.33506   0.70655   0.00000  Uiso   1.00
C95    C     0.74224   0.32731   0.72981   0.00000  Uiso   1.00
C96    C     0.76480   0.28052   0.71247   0.00000  Uiso   1.00
C97    C     0.82505   0.21131   0.69826   0.00000  Uiso   1.00
C98    C     0.62892   0.43685   0.65516   0.00000  Uiso   1.00
C99    C     0.65340   0.51468   0.63522   0.00000  Uiso   1.00
C100   C     0.63532   0.55358   0.57462   0.00000  Uiso   1.00
C101   C     0.62061   0.64240   0.48064   0.00000  Uiso   1.00
C102   C     0.56930   0.33061   0.74742   0.00000  Uiso   1.00
C103   C     0.54364   0.31912   0.80504   0.00000  Uiso   1.00
C104   C     0.47537   0.26858   0.82211   0.00000  Uiso   1.00
C105   C     0.36810   0.19245   0.87137   0.00000  Uiso   1.00
C106   C     0.56677   0.31402   0.64738   0.00000  Uiso   1.00
C107   C     0.63609   0.29741   0.66736   0.00000  Uiso   1.00
C108   C     0.65856   0.25062   0.64998   0.00000  Uiso   1.00
C109   C     0.72364   0.24280   0.67321   0.00000  Uiso   1.00
C110   C     0.58784   0.39920   0.61597   0.00000  Uiso   1.00
C111   C     0.56972   0.43799   0.55539   0.00000  Uiso   1.00
C112   C     0.59417   0.51586   0.53536   0.00000  Uiso   1.00
C113   C     0.52822   0.29295   0.70823   0.00000  Uiso   1.00
C114   C     0.45997   0.24243   0.72521   0.00000  Uiso   1.00
C115   C     0.43422   0.23087   0.78285   0.00000  Uiso   1.00
H116   H     0.67439   0.41265   0.75004   0.00000  Uiso   1.00
H117   H     0.77402   0.35646   0.76014   0.00000  Uiso   1.00
H118   H     0.68518   0.54380   0.66556   0.00000  Uiso   1.00
H119   H     0.57545   0.34827   0.83535   0.00000  Uiso   1.00
H120   H     0.86637   0.27758   0.75403   0.00000  Uiso   1.00
H121   H     0.67903   0.67260   0.55462   0.00000  Uiso   1.00
H122   H     0.44764   0.26028   0.91266   0.00000  Uiso   1.00
H123   H     0.53479   0.28471   0.61686   0.00000  Uiso   1.00
H124   H     0.62675   0.22149   0.61965   0.00000  Uiso   1.00
H125   H     0.53792   0.40883   0.52508   0.00000  Uiso   1.00
H126   H     0.42819   0.21330   0.69487   0.00000  Uiso   1.00
H127   H     0.74685   0.16803   0.64001   0.00000  Uiso   1.00
H128   H     0.55951   0.56306   0.44060   0.00000  Uiso   1.00
H129   H     0.32812   0.15074   0.79864   0.00000  Uiso   1.00
O130   O     0.86963   0.18355   0.70124   0.00000  Uiso   1.00
O131   O     0.62385   0.70180   0.43963   0.00000  Uiso   1.00
O132   O     0.32028   0.16085   0.90937   0.00000  Uiso   1.00
N133   N     0.82561   0.26046   0.72682   0.00000  Uiso   1.00
N134   N     0.65047   0.62978   0.54038   0.00000  Uiso   1.00
N135   N     0.43414   0.24432   0.87512   0.00000  Uiso   1.00
N136   N     0.76130   0.20151   0.66547   0.00000  Uiso   1.00
N137   N     0.58616   0.57084   0.47903   0.00000  Uiso   1.00
N138   N     0.36982   0.18537   0.81376   0.00000  Uiso   1.00
C139   C     0.28576   0.48772   0.70760   0.00000  Uiso   1.00
C140   C     0.33589   0.50320   0.76035   0.00000  Uiso   1.00
C141   C     0.38463   0.46727   0.79015   0.00000  Uiso   1.00
C142   C     0.42562   0.48950   0.83728   0.00000  Uiso   1.00
C143   C     0.50464   0.50503   0.91663   0.00000  Uiso   1.00
C144   C     0.30090   0.56282   0.65276   0.00000  Uiso   1.00
C145   C     0.32022   0.57701   0.59210   0.00000  Uiso   1.00
C146   C     0.33174   0.64942   0.54865   0.00000  Uiso   1.00
C147   C     0.35638   0.75750   0.46095   0.00000  Uiso   1.00
C148   C     0.21096   0.46797   0.73073   0.00000  Uiso   1.00
C149   C     0.15464   0.40241   0.73561   0.00000  Uiso   1.00
C150   C     0.09042   0.39497   0.75779   0.00000  Uiso   1.00
C151   C     0.97542   0.35578   0.79115   0.00000  Uiso   1.00
C152   C     0.27186   0.59109   0.73830   0.00000  Uiso   1.00
C153   C     0.32835   0.55936   0.77702   0.00000  Uiso   1.00
C154   C     0.36926   0.58164   0.82412   0.00000  Uiso   1.00
C155   C     0.41806   0.54574   0.85399   0.00000  Uiso   1.00
C156   C     0.29336   0.61897   0.66943   0.00000  Uiso   1.00
C157   C     0.30484   0.69138   0.62606   0.00000  Uiso   1.00
C158   C     0.32417   0.70567   0.56535   0.00000  Uiso   1.00
C159   C     0.20341   0.52412   0.74740   0.00000  Uiso   1.00
C160   C     0.13927   0.51678   0.76957   0.00000  Uiso   1.00
C161   C     0.08286   0.45123   0.77449   0.00000  Uiso   1.00
H162   H     0.29163   0.44401   0.69462   0.00000  Uiso   1.00
H163   H     0.39046   0.42382   0.77723   0.00000  Uiso   1.00
H164   H     0.32605   0.53354   0.57921   0.00000  Uiso   1.00
H165   H     0.16050   0.35897   0.72270   0.00000  Uiso   1.00
H166   H     0.49673   0.42623   0.87617   0.00000  Uiso   1.00
H167   H     0.36088   0.65757   0.45862   0.00000  Uiso   1.00
H168   H     0.01178   0.28946   0.76120   0.00000  Uiso   1.00
H169   H     0.26599   0.63481   0.75127   0.00000  Uiso   1.00
H170   H     0.36341   0.62510   0.83701   0.00000  Uiso   1.00
H171   H     0.29900   0.73482   0.63898   0.00000  Uiso   1.00
H172   H     0.13345   0.56025   0.78247   0.00000  Uiso   1.00
H173   H     0.47477   0.58959   0.92468   0.00000  Uiso   1.00
H174   H     0.33892   0.82093   0.50713   0.00000  Uiso   1.00
H175   H     0.98983   0.45282   0.80971   0.00000  Uiso   1.00
O176   O     0.55032   0.49810   0.95578   0.00000  Uiso   1.00
O177   O     0.37207   0.80160   0.40797   0.00000  Uiso   1.00
O178   O     0.91408   0.31864   0.80495   0.00000  Uiso   1.00
N179   N     0.47818   0.46600   0.87583   0.00000  Uiso   1.00
N180   N     0.35118   0.68229   0.48545   0.00000  Uiso   1.00
N181   N     0.02480   0.33815   0.76832   0.00000  Uiso   1.00
N182   N     0.46636   0.55390   0.90193   0.00000  Uiso   1.00
N183   N     0.33936   0.77019   0.51155   0.00000  Uiso   1.00
N184   N     0.01299   0.42605   0.79442   0.00000  Uiso   1.00
C185   C     0.06801   0.95880   0.71188   0.00000  Uiso   1.00
C186   C     0.09981   0.02989   0.65519   0.00000  Uiso   1.00
C187   C     0.17053   0.06075   0.63625   0.00000  Uiso   1.00
C188   C     0.18906   0.12601   0.58313   0.00000  Uiso   1.00
C189   C     0.24610   0.23134   0.50009   0.00000  Uiso   1.00
C190   C     0.00747   0.90671   0.68625   0.00000  Uiso   1.00
C191   C     0.00055   0.83400   0.69344   0.00000  Uiso   1.00
C192   C     0.94134   0.79556   0.66647   0.00000  Uiso   1.00
C193   C     0.85500   0.70963   0.63169   0.00000  Uiso   1.00
C194   C     0.03311   0.98161   0.75263   0.00000  Uiso   1.00
C195   C     0.04773   0.97186   0.81564   0.00000  Uiso   1.00
C196   C     0.01009   0.99648   0.84456   0.00000  Uiso   1.00
C197   C     0.96356   0.02684   0.91285   0.00000  Uiso   1.00
C198   C     0.97515   0.01983   0.65121   0.00000  Uiso   1.00
C199   C     0.04937   0.06304   0.62223   0.00000  Uiso   1.00
C200   C     0.06780   0.12828   0.56913   0.00000  Uiso   1.00
C201   C     0.13853   0.15923   0.55012   0.00000  Uiso   1.00
C202   C     0.95704   0.93986   0.65329   0.00000  Uiso   1.00
C203   C     0.89782   0.90153   0.62631   0.00000  Uiso   1.00
C204   C     0.89081   0.82878   0.63345   0.00000  Uiso   1.00
C205   C     0.98268   0.01477   0.71968   0.00000  Uiso   1.00
C206   C     0.94500   0.03940   0.74851   0.00000  Uiso   1.00
C207   C     0.95956   0.02969   0.81155   0.00000  Uiso   1.00
H208   H     0.10728   0.93298   0.73754   0.00000  Uiso   1.00
H209   H     0.20955   0.03507   0.66177   0.00000  Uiso   1.00
H210   H     0.03959   0.80835   0.71895   0.00000  Uiso   1.00
H211   H     0.08676   0.94620   0.84112   0.00000  Uiso   1.00
H212   H     0.30069   0.16286   0.56321   0.00000  Uiso   1.00
H213   H     0.94231   0.68480   0.68380   0.00000  Uiso   1.00
H214   H     0.04179   0.97548   0.94144   0.00000  Uiso   1.00
H215   H     0.93588   0.04564   0.62555   0.00000  Uiso   1.00
H216   H     0.02876   0.15392   0.54363   0.00000  Uiso   1.00
H217   H     0.85880   0.92720   0.60082   0.00000  Uiso   1.00
H218   H     0.90597   0.06505   0.72299   0.00000  Uiso   1.00
H219   H     0.15395   0.25932   0.46733   0.00000  Uiso   1.00
H220   H     0.79557   0.78126   0.58792   0.00000  Uiso   1.00
H221   H     0.89505   0.07194   0.84556   0.00000  Uiso   1.00
O222   O     0.29150   0.28027   0.46339   0.00000  Uiso   1.00
O223   O     0.82132   0.65307   0.62161   0.00000  Uiso   1.00
O224   O     0.95183   0.03444   0.95962   0.00000  Uiso   1.00
N225   N     0.25341   0.17071   0.55190   0.00000  Uiso   1.00
N226   N     0.91836   0.72376   0.66463   0.00000  Uiso   1.00
N227   N     0.01134   0.99550   0.90550   0.00000  Uiso   1.00
N228   N     0.17445   0.22262   0.50030   0.00000  Uiso   1.00
N229   N     0.83940   0.77566   0.61304   0.00000  Uiso   1.00
N230   N     0.93238   0.04741   0.85391   0.00000  Uiso   1.00
C231   C     0.23160   0.04061   0.26170   0.00000  Uiso   1.00
C232   C     0.19379   0.96247   0.25906   0.00000  Uiso   1.00
C233   C     0.22305   0.92414   0.23706   0.00000  Uiso   1.00
C234   C     0.17978   0.85322   0.23856   0.00000  Uiso   1.00
C235   C     0.13173   0.73665   0.23105   0.00000  Uiso   1.00
C236   C     0.22726   0.03202   0.33023   0.00000  Uiso   1.00
C237   C     0.28465   0.05217   0.36806   0.00000  Uiso   1.00
C238   C     0.26955   0.03980   0.42948   0.00000  Uiso   1.00
C239   C     0.27346   0.03125   0.53244   0.00000  Uiso   1.00
C240   C     0.18544   0.08774   0.22445   0.00000  Uiso   1.00
C241   C     0.20767   0.15476   0.17334   0.00000  Uiso   1.00
C242   C     0.15737   0.18932   0.14570   0.00000  Uiso   1.00
C243   C     0.09635   0.26729   0.08442   0.00000  Uiso   1.00
C244   C     0.10273   0.98283   0.30350   0.00000  Uiso   1.00
C245   C     0.12380   0.93109   0.28177   0.00000  Uiso   1.00
C246   C     0.08047   0.86021   0.28331   0.00000  Uiso   1.00
C247   C     0.10966   0.82178   0.26130   0.00000  Uiso   1.00
C248   C     0.15726   0.00063   0.35294   0.00000  Uiso   1.00
C249   C     0.14207   0.98823   0.41431   0.00000  Uiso   1.00
C250   C     0.19943   0.00835   0.45222   0.00000  Uiso   1.00
C251   C     0.11544   0.05636   0.24716   0.00000  Uiso   1.00
C252   C     0.06510   0.09082   0.21959   0.00000  Uiso   1.00
C253   C     0.08725   0.15788   0.16845   0.00000  Uiso   1.00
H254   H     0.28609   0.06505   0.24402   0.00000  Uiso   1.00
H255   H     0.27722   0.94845   0.21949   0.00000  Uiso   1.00
H256   H     0.33881   0.07646   0.35047   0.00000  Uiso   1.00
H257   H     0.26184   0.17903   0.15578   0.00000  Uiso   1.00
H258   H     0.23652   0.80532   0.20233   0.00000  Uiso   1.00
H259   H     0.36639   0.07527   0.47851   0.00000  Uiso   1.00
H260   H     0.20409   0.29157   0.06796   0.00000  Uiso   1.00
H261   H     0.04824   0.95839   0.32118   0.00000  Uiso   1.00
H262   H     0.02631   0.83593   0.30088   0.00000  Uiso   1.00
H263   H     0.08790   0.96395   0.43187   0.00000  Uiso   1.00
H264   H     0.01093   0.06652   0.23718   0.00000  Uiso   1.00
H265   H     0.03287   0.71400   0.26839   0.00000  Uiso   1.00
H266   H     0.16274   0.98395   0.54457   0.00000  Uiso   1.00
H267   H     0.00044   0.20024   0.13403   0.00000  Uiso   1.00
O268   O     0.12457   0.68102   0.22064   0.00000  Uiso   1.00
O269   O     0.29495   0.03519   0.58296   0.00000  Uiso   1.00
O270   O     0.08202   0.31897   0.04434   0.00000  Uiso   1.00
N271   N     0.19160   0.80064   0.22065   0.00000  Uiso   1.00
N272   N     0.31302   0.05301   0.47886   0.00000  Uiso   1.00
N273   N     0.16129   0.25524   0.09505   0.00000  Uiso   1.00
N274   N     0.08202   0.75150   0.25620   0.00000  Uiso   1.00
N275   N     0.20344   0.00387   0.51441   0.00000  Uiso   1.00
N276   N     0.05170   0.20610   0.13060   0.00000  Uiso   1.00
C277   C     0.52674   0.04085   0.71804   0.00000  Uiso   1.00
C278   C     0.46034   0.97152   0.72811   0.00000  Uiso   1.00
C279   C     0.39619   0.96987   0.69690   0.00000  Uiso   1.00
C280   C     0.34185   0.90088   0.71280   0.00000  Uiso   1.00
C281   C     0.23731   0.80310   0.72149   0.00000  Uiso   1.00
C282   C     0.58619   0.02157   0.70081   0.00000  Uiso   1.00
C283   C     0.62785   0.06201   0.64665   0.00000  Uiso   1.00
C284   C     0.67946   0.03515   0.63958   0.00000  Uiso   1.00
C285   C     0.77033   0.01510   0.60591   0.00000  Uiso   1.00
C286   C     0.54574   0.04751   0.78259   0.00000  Uiso   1.00
C287   C     0.55342   0.10977   0.79720   0.00000  Uiso   1.00
C288   C     0.57100   0.10477   0.85898   0.00000  Uiso   1.00
C289   C     0.59907   0.12500   0.95229   0.00000  Uiso   1.00
C290   C     0.54432   0.92127   0.80179   0.00000  Uiso   1.00
C291   C     0.46989   0.90657   0.77359   0.00000  Uiso   1.00
C292   C     0.41563   0.83756   0.78955   0.00000  Uiso   1.00
C293   C     0.35141   0.83581   0.75837   0.00000  Uiso   1.00
C294   C     0.59573   0.95662   0.74629   0.00000  Uiso   1.00
C295   C     0.64730   0.92970   0.73930   0.00000  Uiso   1.00
C296   C     0.68902   0.97008   0.68515   0.00000  Uiso   1.00
C297   C     0.55529   0.98256   0.82808   0.00000  Uiso   1.00
C298   C     0.57286   0.97746   0.88985   0.00000  Uiso   1.00
C299   C     0.58056   0.03970   0.90455   0.00000  Uiso   1.00
H300   H     0.51931   0.09142   0.68263   0.00000  Uiso   1.00
H301   H     0.38882   0.02015   0.66170   0.00000  Uiso   1.00
H302   H     0.62045   0.11227   0.61146   0.00000  Uiso   1.00
H303   H     0.54603   0.16002   0.76199   0.00000  Uiso   1.00
H304   H     0.24837   0.91247   0.65853   0.00000  Uiso   1.00
H305   H     0.73679   0.10674   0.55262   0.00000  Uiso   1.00
H306   H     0.57986   0.20744   0.87003   0.00000  Uiso   1.00
H307   H     0.55175   0.87070   0.83720   0.00000  Uiso   1.00
H308   H     0.42304   0.78731   0.82475   0.00000  Uiso   1.00
H309   H     0.65467   0.87943   0.77452   0.00000  Uiso   1.00
H310   H     0.58025   0.92719   0.92504   0.00000  Uiso   1.00
H311   H     0.27614   0.72349   0.79087   0.00000  Uiso   1.00
H312   H     0.76457   0.91777   0.68496   0.00000  Uiso   1.00
H313   H     0.60763   0.01846   0.00237   0.00000  Uiso   1.00
O314   O     0.17701   0.76710   0.71371   0.00000  Uiso   1.00
O315   O     0.81781   0.02199   0.57476   0.00000  Uiso   1.00
O316   O     0.61191   0.15410   0.99119   0.00000  Uiso   1.00
N317   N     0.27257   0.87944   0.69140   0.00000  Uiso   1.00
N318   N     0.72920   0.06107   0.59237   0.00000  Uiso   1.00
N319   N     0.58250   0.15522   0.88911   0.00000  Uiso   1.00
N320   N     0.28751   0.77775   0.76261   0.00000  Uiso   1.00
N321   N     0.74415   0.95938   0.66358   0.00000  Uiso   1.00
N322   N     0.59745   0.05353   0.96033   0.00000  Uiso   1.00
C323   C     0.85212   0.54592   0.93894   0.00000  Uiso   1.00
C324   C     0.80155   0.58299   0.89503   0.00000  Uiso   1.00
C325   C     0.75140   0.60371   0.91326   0.00000  Uiso   1.00
C326   C     0.71026   0.63689   0.86596   0.00000  Uiso   1.00
C327   C     0.63042   0.69267   0.80740   0.00000  Uiso   1.00
C328   C     0.92687   0.59665   0.91403   0.00000  Uiso   1.00
C329   C     0.98210   0.62883   0.94825   0.00000  Uiso   1.00
C330   C     0.04646   0.67351   0.91694   0.00000  Uiso   1.00
C331   C     0.16121   0.75044   0.88790   0.00000  Uiso   1.00
C332   C     0.83899   0.47326   0.92796   0.00000  Uiso   1.00
C333   C     0.82035   0.40170   0.97388   0.00000  Uiso   1.00
C334   C     0.81074   0.34250   0.95430   0.00000  Uiso   1.00
C335   C     0.78904   0.22786   0.94687   0.00000  Uiso   1.00
C336   C     0.86823   0.56802   0.82251   0.00000  Uiso   1.00
C337   C     0.81030   0.59500   0.83179   0.00000  Uiso   1.00
C338   C     0.76922   0.62816   0.78444   0.00000  Uiso   1.00
C339   C     0.71902   0.64892   0.80260   0.00000  Uiso   1.00
C340   C     0.93562   0.60866   0.85080   0.00000  Uiso   1.00
C341   C     0.99992   0.65329   0.81943   0.00000  Uiso   1.00
C342   C     0.05523   0.68554   0.85359   0.00000  Uiso   1.00
C343   C     0.84774   0.48527   0.86471   0.00000  Uiso   1.00
C344   C     0.83816   0.42616   0.84506   0.00000  Uiso   1.00
C345   C     0.81950   0.35452   0.89094   0.00000  Uiso   1.00
H346   H     0.84532   0.53657   0.98817   0.00000  Uiso   1.00
H347   H     0.74465   0.59441   0.96221   0.00000  Uiso   1.00
H348   H     0.97532   0.61953   0.99719   0.00000  Uiso   1.00
H349   H     0.81359   0.39244   0.02281   0.00000  Uiso   1.00
H350   H     0.63692   0.66386   0.90553   0.00000  Uiso   1.00
H351   H     0.12330   0.71680   0.97930   0.00000  Uiso   1.00
H352   H     0.78226   0.23793   0.03333   0.00000  Uiso   1.00
H353   H     0.87504   0.57737   0.77327   0.00000  Uiso   1.00
H354   H     0.77600   0.63744   0.73551   0.00000  Uiso   1.00
H355   H     0.00667   0.66256   0.77049   0.00000  Uiso   1.00
H356   H     0.84494   0.43547   0.79611   0.00000  Uiso   1.00
H357   H     0.66237   0.69878   0.72153   0.00000  Uiso   1.00
H358   H     0.14875   0.75172   0.79530   0.00000  Uiso   1.00
H359   H     0.80771   0.27285   0.84933   0.00000  Uiso   1.00
O360   O     0.58397   0.72013   0.79257   0.00000  Uiso   1.00
O361   O     0.22208   0.78957   0.88936   0.00000  Uiso   1.00
O362   O     0.77464   0.16131   0.96024   0.00000  Uiso   1.00
N363   N     0.65649   0.66382   0.86741   0.00000  Uiso   1.00
N364   N     0.11122   0.71332   0.93638   0.00000  Uiso   1.00
N365   N     0.79240   0.26562   0.98689   0.00000  Uiso   1.00
N366   N     0.67018   0.68261   0.76840   0.00000  Uiso   1.00
N367   N     0.12491   0.73212   0.83737   0.00000  Uiso   1.00
N368   N     0.80609   0.28442   0.88789   0.00000  Uiso   1.00
C369   C     0.51058   0.92145   0.28923   0.00000  Uiso   1.00
C370   C     0.52264   0.00519   0.26827   0.00000  Uiso   1.00
C371   C     0.47225   0.03647   0.26958   0.00000  Uiso   1.00
C372   C     0.49376   0.11431   0.24839   0.00000  Uiso   1.00
C373   C     0.50194   0.23753   0.21917   0.00000  Uiso   1.00
C374   C     0.56652   0.90589   0.33928   0.00000  Uiso   1.00
C375   C     0.55302   0.85366   0.40031   0.00000  Uiso   1.00
C376   C     0.61147   0.84790   0.43890   0.00000  Uiso   1.00
C377   C     0.68778   0.81690   0.51992   0.00000  Uiso   1.00
C378   C     0.53016   0.90987   0.23275   0.00000  Uiso   1.00
C379   C     0.48609   0.86099   0.20422   0.00000  Uiso   1.00
C380   C     0.51393   0.85857   0.15312   0.00000  Uiso   1.00
C381   C     0.53377   0.83376   0.06874   0.00000  Uiso   1.00
C382   C     0.63838   0.00407   0.24925   0.00000  Uiso   1.00
C383   C     0.59206   0.05007   0.24655   0.00000  Uiso   1.00
C384   C     0.61365   0.12788   0.22535   0.00000  Uiso   1.00
C385   C     0.56330   0.15927   0.22664   0.00000  Uiso   1.00
C386   C     0.63594   0.95076   0.31757   0.00000  Uiso   1.00
C387   C     0.69442   0.94507   0.35608   0.00000  Uiso   1.00
C388   C     0.68102   0.89286   0.41714   0.00000  Uiso   1.00
C389   C     0.59957   0.95475   0.21104   0.00000  Uiso   1.00
C390   C     0.62749   0.95240   0.15998   0.00000  Uiso   1.00
C391   C     0.58347   0.90353   0.13137   0.00000  Uiso   1.00
H392   H     0.45654   0.88650   0.30614   0.00000  Uiso   1.00
H393   H     0.41854   0.00172   0.28640   0.00000  Uiso   1.00
H394   H     0.49930   0.81894   0.41710   0.00000  Uiso   1.00
H395   H     0.43237   0.82627   0.22103   0.00000  Uiso   1.00
H396   H     0.40703   0.14925   0.25496   0.00000  Uiso   1.00
H397   H     0.57732   0.76383   0.53054   0.00000  Uiso   1.00
H398   H     0.43619   0.77927   0.11710   0.00000  Uiso   1.00
H399   H     0.69243   0.03901   0.23235   0.00000  Uiso   1.00
H400   H     0.66738   0.16260   0.20855   0.00000  Uiso   1.00
H401   H     0.74813   0.97981   0.33925   0.00000  Uiso   1.00
H402   H     0.68121   0.98714   0.14319   0.00000  Uiso   1.00
H403   H     0.60900   0.27983   0.19178   0.00000  Uiso   1.00
H404   H     0.77928   0.89439   0.46736   0.00000  Uiso   1.00
H405   H     0.63816   0.90985   0.05392   0.00000  Uiso   1.00
O406   O     0.48728   0.29309   0.20906   0.00000  Uiso   1.00
O407   O     0.71069   0.78741   0.57061   0.00000  Uiso   1.00
O408   O     0.52554   0.80768   0.02819   0.00000  Uiso   1.00
N409   N     0.45800   0.16302   0.24334   0.00000  Uiso   1.00
N410   N     0.61720   0.80268   0.50099   0.00000  Uiso   1.00
N411   N     0.48527   0.81711   0.11447   0.00000  Uiso   1.00
N412   N     0.56668   0.23328   0.20934   0.00000  Uiso   1.00
N413   N     0.72588   0.87294   0.46700   0.00000  Uiso   1.00
N414   N     0.59395   0.88737   0.08048   0.00000  Uiso   1.00
C415   C     0.94264   0.84044   0.07459   0.00000  Uiso   1.00
C416   C     0.92074   0.83346   0.01043   0.00000  Uiso   1.00
C417   C     0.86470   0.85196   0.97418   0.00000  Uiso   1.00
C418   C     0.85331   0.84151   0.91685   0.00000  Uiso   1.00
C419   C     0.81271   0.83490   0.82033   0.00000  Uiso   1.00
C420   C     0.94097   0.76245   0.11970   0.00000  Uiso   1.00
C421   C     0.90195   0.72125   0.17532   0.00000  Uiso   1.00
C422   C     0.90759   0.65101   0.20999   0.00000  Uiso   1.00
C423   C     0.89845   0.53417   0.28313   0.00000  Uiso   1.00
C424   C     0.02063   0.89013   0.06806   0.00000  Uiso   1.00
C425   C     0.04860   0.95628   0.08027   0.00000  Uiso   1.00
C426   C     0.12132   0.99354   0.07146   0.00000  Uiso   1.00
C427   C     0.23587   0.07495   0.06442   0.00000  Uiso   1.00
C428   C     0.02205   0.78898   0.03726   0.00000  Uiso   1.00
C429   C     0.96387   0.80551   0.99016   0.00000  Uiso   1.00
C430   C     0.95256   0.79503   0.93287   0.00000  Uiso   1.00
C431   C     0.89652   0.81351   0.89653   0.00000  Uiso   1.00
C432   C     0.98410   0.73450   0.09943   0.00000  Uiso   1.00
C433   C     0.98981   0.66431   0.13402   0.00000  Uiso   1.00
C434   C     0.95080   0.62301   0.18967   0.00000  Uiso   1.00
C435   C     0.06377   0.86218   0.04778   0.00000  Uiso   1.00
C436   C     0.13646   0.89935   0.03896   0.00000  Uiso   1.00
C437   C     0.16453   0.96554   0.05115   0.00000  Uiso   1.00
H438   H     0.90906   0.86220   0.09038   0.00000  Uiso   1.00
H439   H     0.83133   0.87359   0.98989   0.00000  Uiso   1.00
H440   H     0.86858   0.74289   0.19101   0.00000  Uiso   1.00
H441   H     0.01521   0.97789   0.09596   0.00000  Uiso   1.00
H442   H     0.76416   0.87386   0.86954   0.00000  Uiso   1.00
H443   H     0.84272   0.59830   0.29362   0.00000  Uiso   1.00
H444   H     0.15192   0.09384   0.09320   0.00000  Uiso   1.00
H445   H     0.05563   0.76722   0.02147   0.00000  Uiso   1.00
H446   H     0.98595   0.77340   0.91719   0.00000  Uiso   1.00
H447   H     0.02319   0.64270   0.11831   0.00000  Uiso   1.00
H448   H     0.16982   0.87770   0.02326   0.00000  Uiso   1.00
H449   H     0.88965   0.79254   0.81054   0.00000  Uiso   1.00
H450   H     0.96821   0.51698   0.23462   0.00000  Uiso   1.00
H451   H     0.27740   0.01252   0.03420   0.00000  Uiso   1.00
O452   O     0.77840   0.83896   0.77269   0.00000  Uiso   1.00
O453   O     0.88148   0.47744   0.32908   0.00000  Uiso   1.00
O454   O     0.28713   0.12757   0.06613   0.00000  Uiso   1.00
N455   N     0.80326   0.85389   0.86996   0.00000  Uiso   1.00
N456   N     0.87670   0.59625   0.26645   0.00000  Uiso   1.00
N457   N     0.16578   0.05953   0.07909   0.00000  Uiso   1.00
N458   N     0.87079   0.81014   0.83821   0.00000  Uiso   1.00
N459   N     0.94423   0.55249   0.23470   0.00000  Uiso   1.00
N460   N     0.23331   0.01577   0.04734   0.00000  Uiso   1.00
C461   C     0.31382   0.47375   0.04070   0.00000  Uiso   1.00
C462   C     0.28790   0.42534   0.10821   0.00000  Uiso   1.00
C463   C     0.23652   0.43110   0.13899   0.00000  Uiso   1.00
C464   C     0.22025   0.38164   0.20071   0.00000  Uiso   1.00
C465   C     0.17487   0.31460   0.30102   0.00000  Uiso   1.00
C466   C     0.39416   0.50940   0.04471   0.00000  Uiso   1.00
C467   C     0.43212   0.58584   0.02208   0.00000  Uiso   1.00
C468   C     0.50531   0.60715   0.03034   0.00000  Uiso   1.00
C469   C     0.62491   0.67062   0.03202   0.00000  Uiso   1.00
C470   C     0.30222   0.41930   0.00677   0.00000  Uiso   1.00
C471   C     0.26289   0.41999   0.95224   0.00000  Uiso   1.00
C472   C     0.25869   0.36545   0.92855   0.00000  Uiso   1.00
C473   C     0.23554   0.28902   0.87133   0.00000  Uiso   1.00
C474   C     0.37631   0.37568   0.09558   0.00000  Uiso   1.00
C475   C     0.32184   0.37207   0.13802   0.00000  Uiso   1.00
C476   C     0.30565   0.32259   0.19971   0.00000  Uiso   1.00
C477   C     0.25425   0.32828   0.23057   0.00000  Uiso   1.00
C478   C     0.42810   0.45614   0.07452   0.00000  Uiso   1.00
C479   C     0.50126   0.47733   0.08281   0.00000  Uiso   1.00
C480   C     0.53932   0.55378   0.06020   0.00000  Uiso   1.00
C481   C     0.33616   0.36603   0.03658   0.00000  Uiso   1.00
C482   C     0.33203   0.31148   0.01297   0.00000  Uiso   1.00
C483   C     0.29270   0.31209   0.95841   0.00000  Uiso   1.00
H484   H     0.28740   0.51523   0.01749   0.00000  Uiso   1.00
H485   H     0.21027   0.47234   0.11590   0.00000  Uiso   1.00
H486   H     0.40584   0.62705   0.99901   0.00000  Uiso   1.00
H487   H     0.23664   0.46123   0.92918   0.00000  Uiso   1.00
H488   H     0.13974   0.40131   0.23817   0.00000  Uiso   1.00
H489   H     0.55212   0.72754   0.99168   0.00000  Uiso   1.00
H490   H     0.19532   0.37786   0.84443   0.00000  Uiso   1.00
H491   H     0.40273   0.33420   0.11879   0.00000  Uiso   1.00
H492   H     0.33192   0.28137   0.22277   0.00000  Uiso   1.00
H493   H     0.52750   0.43609   0.10588   0.00000  Uiso   1.00
H494   H     0.35830   0.27027   0.03605   0.00000  Uiso   1.00
H495   H     0.23848   0.24632   0.32491   0.00000  Uiso   1.00
H496   H     0.65087   0.57255   0.07841   0.00000  Uiso   1.00
H497   H     0.29407   0.22287   0.93117   0.00000  Uiso   1.00
O498   O     0.14047   0.29235   0.34812   0.00000  Uiso   1.00
O499   O     0.68150   0.72035   0.02472   0.00000  Uiso   1.00
O500   O     0.21338   0.26158   0.83154   0.00000  Uiso   1.00
N501   N     0.17268   0.37207   0.24431   0.00000  Uiso   1.00
N502   N     0.55824   0.67708   0.01387   0.00000  Uiso   1.00
N503   N     0.22468   0.35017   0.87619   0.00000  Uiso   1.00
N504   N     0.22582   0.28868   0.29099   0.00000  Uiso   1.00
N505   N     0.61137   0.59368   0.06054   0.00000  Uiso   1.00
N506   N     0.27781   0.26677   0.92286   0.00000  Uiso   1.00
C507   C     0.02544   0.34629   0.57048   0.00000  Uiso   1.00
C508   C     0.03198   0.41262   0.58883   0.00000  Uiso   1.00
C509   C     0.97862   0.42031   0.61563   0.00000  Uiso   1.00
C510   C     0.99516   0.48518   0.62893   0.00000  Uiso   1.00
C511   C     0.99503   0.57981   0.65937   0.00000  Uiso   1.00
C512   C     0.04495   0.37933   0.50069   0.00000  Uiso   1.00
C513   C     0.00249   0.35902   0.45339   0.00000  Uiso   1.00
C514   C     0.02995   0.39586   0.39250   0.00000  Uiso   1.00
C515   C     0.04997   0.43877   0.28611   0.00000  Uiso   1.00
C516   C     0.08455   0.31649   0.60545   0.00000  Uiso   1.00
C517   C     0.07539   0.24333   0.64623   0.00000  Uiso   1.00
C518   C     0.13620   0.22726   0.67353   0.00000  Uiso   1.00
C519   C     0.21771   0.17259   0.72980   0.00000  Uiso   1.00
C520   C     0.14971   0.44782   0.54645   0.00000  Uiso   1.00
C521   C     0.09948   0.46777   0.57577   0.00000  Uiso   1.00
C522   C     0.11610   0.53264   0.58903   0.00000  Uiso   1.00
C523   C     0.06277   0.54043   0.61585   0.00000  Uiso   1.00
C524   C     0.11244   0.43448   0.48763   0.00000  Uiso   1.00
C525   C     0.13997   0.47135   0.42679   0.00000  Uiso   1.00
C526   C     0.09756   0.45111   0.37941   0.00000  Uiso   1.00
C527   C     0.15205   0.37164   0.59240   0.00000  Uiso   1.00
C528   C     0.21288   0.35567   0.61963   0.00000  Uiso   1.00
C529   C     0.20381   0.28250   0.66045   0.00000  Uiso   1.00
H530   H     0.97290   0.30335   0.58065   0.00000  Uiso   1.00
H531   H     0.92639   0.37762   0.62572   0.00000  Uiso   1.00
H532   H     0.95026   0.31634   0.46351   0.00000  Uiso   1.00
H533   H     0.02316   0.20067   0.65632   0.00000  Uiso   1.00
H534   H     0.90459   0.48430   0.66992   0.00000  Uiso   1.00
H535   H     0.95493   0.35505   0.32789   0.00000  Uiso   1.00
H536   H     0.10864   0.11114   0.73447   0.00000  Uiso   1.00
H537   H     0.20226   0.49076   0.53628   0.00000  Uiso   1.00
H538   H     0.16834   0.57531   0.57892   0.00000  Uiso   1.00
H539   H     0.19221   0.51402   0.41671   0.00000  Uiso   1.00
H540   H     0.26510   0.39836   0.60952   0.00000  Uiso   1.00
H541   H     0.10096   0.64475   0.63193   0.00000  Uiso   1.00
H542   H     0.15130   0.51550   0.28990   0.00000  Uiso   1.00
H543   H     0.30501   0.27160   0.69648   0.00000  Uiso   1.00
O544   O     0.97632   0.61678   0.67976   0.00000  Uiso   1.00
O545   O     0.04237   0.44720   0.23103   0.00000  Uiso   1.00
O546   O     0.24403   0.12720   0.76446   0.00000  Uiso   1.00
N547   N     0.95547   0.51045   0.65514   0.00000  Uiso   1.00
N548   N     0.00253   0.38962   0.33536   0.00000  Uiso   1.00
N549   N     0.14623   0.16158   0.71546   0.00000  Uiso   1.00
N550   N     0.06113   0.59679   0.63470   0.00000  Uiso   1.00
N551   N     0.10819   0.47596   0.31492   0.00000  Uiso   1.00
N552   N     0.25190   0.24792   0.69502   0.00000  Uiso   1.00
