data_job_01744
_audit_creation_date              2018-12-19
_audit_creation_method            'Materials Studio'
_symmetry_space_group_name_H-M    'P1'
_symmetry_Int_Tables_number       1
_symmetry_cell_setting            triclinic
loop_
_symmetry_equiv_pos_as_xyz
  x,y,z
_cell_length_a                    37.0741
_cell_length_b                    8.1930
_cell_length_c                    30.7106
_cell_angle_alpha                 90.0000
_cell_angle_beta                  137.0224
_cell_angle_gamma                 90.0000
loop_
_atom_site_label
_atom_site_type_symbol
_atom_site_fract_x
_atom_site_fract_y
_atom_site_fract_z
_atom_site_U_iso_or_equiv
_atom_site_adp_type
_atom_site_occupancy
C1     C     0.36123   0.64633   0.19373   0.00000  Uiso   1.00
C2     C     0.31312   0.54095   0.14086   0.00000  Uiso   1.00
C3     C     0.26078   0.58274   0.10251   0.00000  Uiso   1.00
C4     C     0.22250   0.46960   0.05685   0.00000  Uiso   1.00
C5     C     0.14572   0.32875   0.97581   0.00000  Uiso   1.00
C6     C     0.39108   0.66666   0.17729   0.00000  Uiso   1.00
C7     C     0.40429   0.81414   0.16956   0.00000  Uiso   1.00
C8     C     0.43165   0.80681   0.15457   0.00000  Uiso   1.00
C9     C     0.47594   0.86113   0.13012   0.00000  Uiso   1.00
C10    C     0.39670   0.54275   0.25421   0.00000  Uiso   1.00
C11    C     0.41464   0.58607   0.31118   0.00000  Uiso   1.00
C12    C     0.44674   0.47444   0.36096   0.00000  Uiso   1.00
C13    C     0.49975   0.33638   0.45594   0.00000  Uiso   1.00
C14    C     0.38634   0.37108   0.18085   0.00000  Uiso   1.00
C15    C     0.32676   0.39145   0.13387   0.00000  Uiso   1.00
C16    C     0.28855   0.27820   0.08826   0.00000  Uiso   1.00
C17    C     0.23616   0.31982   0.04984   0.00000  Uiso   1.00
C18    C     0.40472   0.51716   0.17029   0.00000  Uiso   1.00
C19    C     0.43207   0.50961   0.15531   0.00000  Uiso   1.00
C20    C     0.44531   0.65704   0.14756   0.00000  Uiso   1.00
C21    C     0.41033   0.39324   0.24721   0.00000  Uiso   1.00
C22    C     0.44242   0.28153   0.29692   0.00000  Uiso   1.00
C23    C     0.46040   0.32466   0.35395   0.00000  Uiso   1.00
H24    H     0.35061   0.76273   0.19918   0.00000  Uiso   1.00
H25    H     0.25024   0.69846   0.10794   0.00000  Uiso   1.00
H26    H     0.39374   0.92982   0.17499   0.00000  Uiso   1.00
H27    H     0.40408   0.70178   0.31657   0.00000  Uiso   1.00
H28    H     0.14496   0.56130   0.00368   0.00000  Uiso   1.00
H29    H     0.44755   0.04914   0.14508   0.00000  Uiso   1.00
H30    H     0.46937   0.56827   0.44364   0.00000  Uiso   1.00
H31    H     0.39696   0.25468   0.17540   0.00000  Uiso   1.00
H32    H     0.29912   0.16252   0.08285   0.00000  Uiso   1.00
H33    H     0.44262   0.39389   0.14990   0.00000  Uiso   1.00
H34    H     0.45296   0.16585   0.29149   0.00000  Uiso   1.00
H35    H     0.18464   0.12631   0.98331   0.00000  Uiso   1.00
H36    H     0.48723   0.61416   0.12472   0.00000  Uiso   1.00
H37    H     0.50904   0.13328   0.42328   0.00000  Uiso   1.00
O38    O     0.09960   0.29237   0.93303   0.00000  Uiso   1.00
O39    O     0.49660   0.93240   0.11856   0.00000  Uiso   1.00
O40    O     0.52522   0.30151   0.51026   0.00000  Uiso   1.00
N41    N     0.16773   0.47156   0.01159   0.00000  Uiso   1.00
N42    N     0.45062   0.92766   0.14379   0.00000  Uiso   1.00
N43    N     0.47103   0.47811   0.42292   0.00000  Uiso   1.00
N44    N     0.18908   0.23749   0.00064   0.00000  Uiso   1.00
N45    N     0.47197   0.69360   0.13283   0.00000  Uiso   1.00
N46    N     0.49238   0.24404   0.41197   0.00000  Uiso   1.00
C47    C     0.86123   0.14633   0.19373   0.00000  Uiso   1.00
C48    C     0.81312   0.04095   0.14086   0.00000  Uiso   1.00
C49    C     0.76078   0.08274   0.10251   0.00000  Uiso   1.00
C50    C     0.72250   0.96960   0.05685   0.00000  Uiso   1.00
C51    C     0.64572   0.82875   0.97581   0.00000  Uiso   1.00
C52    C     0.89108   0.16666   0.17729   0.00000  Uiso   1.00
C53    C     0.90429   0.31414   0.16956   0.00000  Uiso   1.00
C54    C     0.93165   0.30681   0.15457   0.00000  Uiso   1.00
C55    C     0.97594   0.36113   0.13012   0.00000  Uiso   1.00
C56    C     0.89670   0.04275   0.25421   0.00000  Uiso   1.00
C57    C     0.91464   0.08607   0.31118   0.00000  Uiso   1.00
C58    C     0.94674   0.97444   0.36096   0.00000  Uiso   1.00
C59    C     0.99975   0.83638   0.45594   0.00000  Uiso   1.00
C60    C     0.88634   0.87108   0.18085   0.00000  Uiso   1.00
C61    C     0.82676   0.89145   0.13387   0.00000  Uiso   1.00
C62    C     0.78855   0.77820   0.08826   0.00000  Uiso   1.00
C63    C     0.73616   0.81982   0.04984   0.00000  Uiso   1.00
C64    C     0.90472   0.01716   0.17029   0.00000  Uiso   1.00
C65    C     0.93207   0.00961   0.15531   0.00000  Uiso   1.00
C66    C     0.94531   0.15704   0.14756   0.00000  Uiso   1.00
C67    C     0.91033   0.89324   0.24721   0.00000  Uiso   1.00
C68    C     0.94242   0.78153   0.29692   0.00000  Uiso   1.00
C69    C     0.96040   0.82466   0.35395   0.00000  Uiso   1.00
H70    H     0.85061   0.26273   0.19918   0.00000  Uiso   1.00
H71    H     0.75024   0.19846   0.10794   0.00000  Uiso   1.00
H72    H     0.89374   0.42982   0.17499   0.00000  Uiso   1.00
H73    H     0.90408   0.20178   0.31657   0.00000  Uiso   1.00
H74    H     0.64496   0.06130   0.00368   0.00000  Uiso   1.00
H75    H     0.94755   0.54914   0.14508   0.00000  Uiso   1.00
H76    H     0.96937   0.06827   0.44364   0.00000  Uiso   1.00
H77    H     0.89696   0.75468   0.17540   0.00000  Uiso   1.00
H78    H     0.79912   0.66252   0.08285   0.00000  Uiso   1.00
H79    H     0.94262   0.89389   0.14990   0.00000  Uiso   1.00
H80    H     0.95296   0.66585   0.29149   0.00000  Uiso   1.00
H81    H     0.68464   0.62631   0.98331   0.00000  Uiso   1.00
H82    H     0.98723   0.11416   0.12472   0.00000  Uiso   1.00
H83    H     0.00904   0.63328   0.42328   0.00000  Uiso   1.00
O84    O     0.59960   0.79237   0.93303   0.00000  Uiso   1.00
O85    O     0.99660   0.43240   0.11856   0.00000  Uiso   1.00
O86    O     0.02522   0.80151   0.51026   0.00000  Uiso   1.00
N87    N     0.66773   0.97156   0.01159   0.00000  Uiso   1.00
N88    N     0.95062   0.42766   0.14379   0.00000  Uiso   1.00
N89    N     0.97103   0.97811   0.42292   0.00000  Uiso   1.00
N90    N     0.68908   0.73749   0.00064   0.00000  Uiso   1.00
N91    N     0.97197   0.19360   0.13283   0.00000  Uiso   1.00
N92    N     0.99238   0.74404   0.41197   0.00000  Uiso   1.00
C93    C     0.63877   0.64633   0.30627   0.00000  Uiso   1.00
C94    C     0.68688   0.54095   0.35914   0.00000  Uiso   1.00
C95    C     0.73922   0.58274   0.39749   0.00000  Uiso   1.00
C96    C     0.77750   0.46960   0.44315   0.00000  Uiso   1.00
C97    C     0.85428   0.32875   0.52419   0.00000  Uiso   1.00
C98    C     0.60892   0.66666   0.32271   0.00000  Uiso   1.00
C99    C     0.59571   0.81414   0.33044   0.00000  Uiso   1.00
C100   C     0.56835   0.80681   0.34543   0.00000  Uiso   1.00
C101   C     0.52406   0.86113   0.36988   0.00000  Uiso   1.00
C102   C     0.60330   0.54275   0.24579   0.00000  Uiso   1.00
C103   C     0.58536   0.58607   0.18882   0.00000  Uiso   1.00
C104   C     0.55326   0.47444   0.13904   0.00000  Uiso   1.00
C105   C     0.50025   0.33638   0.04406   0.00000  Uiso   1.00
C106   C     0.61366   0.37108   0.31915   0.00000  Uiso   1.00
C107   C     0.67324   0.39145   0.36613   0.00000  Uiso   1.00
C108   C     0.71145   0.27820   0.41174   0.00000  Uiso   1.00
C109   C     0.76384   0.31982   0.45016   0.00000  Uiso   1.00
C110   C     0.59528   0.51716   0.32971   0.00000  Uiso   1.00
C111   C     0.56793   0.50961   0.34469   0.00000  Uiso   1.00
C112   C     0.55469   0.65704   0.35244   0.00000  Uiso   1.00
C113   C     0.58967   0.39324   0.25279   0.00000  Uiso   1.00
C114   C     0.55758   0.28153   0.20308   0.00000  Uiso   1.00
C115   C     0.53960   0.32466   0.14605   0.00000  Uiso   1.00
H116   H     0.64939   0.76273   0.30082   0.00000  Uiso   1.00
H117   H     0.74976   0.69846   0.39206   0.00000  Uiso   1.00
H118   H     0.60626   0.92982   0.32501   0.00000  Uiso   1.00
H119   H     0.59592   0.70178   0.18343   0.00000  Uiso   1.00
H120   H     0.85504   0.56130   0.49632   0.00000  Uiso   1.00
H121   H     0.55245   0.04914   0.35492   0.00000  Uiso   1.00
H122   H     0.53063   0.56827   0.05636   0.00000  Uiso   1.00
H123   H     0.60304   0.25468   0.32460   0.00000  Uiso   1.00
H124   H     0.70088   0.16252   0.41715   0.00000  Uiso   1.00
H125   H     0.55738   0.39389   0.35010   0.00000  Uiso   1.00
H126   H     0.54704   0.16585   0.20851   0.00000  Uiso   1.00
H127   H     0.81536   0.12631   0.51669   0.00000  Uiso   1.00
H128   H     0.51277   0.61416   0.37528   0.00000  Uiso   1.00
H129   H     0.49096   0.13328   0.07672   0.00000  Uiso   1.00
O130   O     0.90040   0.29237   0.56697   0.00000  Uiso   1.00
O131   O     0.50340   0.93240   0.38144   0.00000  Uiso   1.00
O132   O     0.47478   0.30151   0.98974   0.00000  Uiso   1.00
N133   N     0.83227   0.47156   0.48841   0.00000  Uiso   1.00
N134   N     0.54938   0.92766   0.35621   0.00000  Uiso   1.00
N135   N     0.52897   0.47811   0.07708   0.00000  Uiso   1.00
N136   N     0.81092   0.23749   0.49936   0.00000  Uiso   1.00
N137   N     0.52803   0.69360   0.36717   0.00000  Uiso   1.00
N138   N     0.50762   0.24404   0.08803   0.00000  Uiso   1.00
C139   C     0.13877   0.14633   0.30627   0.00000  Uiso   1.00
C140   C     0.18688   0.04095   0.35914   0.00000  Uiso   1.00
C141   C     0.23922   0.08274   0.39749   0.00000  Uiso   1.00
C142   C     0.27750   0.96960   0.44315   0.00000  Uiso   1.00
C143   C     0.35428   0.82875   0.52419   0.00000  Uiso   1.00
C144   C     0.10892   0.16666   0.32271   0.00000  Uiso   1.00
C145   C     0.09571   0.31414   0.33044   0.00000  Uiso   1.00
C146   C     0.06835   0.30681   0.34543   0.00000  Uiso   1.00
C147   C     0.02406   0.36113   0.36988   0.00000  Uiso   1.00
C148   C     0.10330   0.04275   0.24579   0.00000  Uiso   1.00
C149   C     0.08536   0.08607   0.18882   0.00000  Uiso   1.00
C150   C     0.05326   0.97444   0.13904   0.00000  Uiso   1.00
C151   C     0.00025   0.83638   0.04406   0.00000  Uiso   1.00
C152   C     0.11366   0.87108   0.31915   0.00000  Uiso   1.00
C153   C     0.17324   0.89145   0.36613   0.00000  Uiso   1.00
C154   C     0.21145   0.77820   0.41174   0.00000  Uiso   1.00
C155   C     0.26384   0.81982   0.45016   0.00000  Uiso   1.00
C156   C     0.09528   0.01716   0.32971   0.00000  Uiso   1.00
C157   C     0.06793   0.00961   0.34469   0.00000  Uiso   1.00
C158   C     0.05469   0.15704   0.35244   0.00000  Uiso   1.00
C159   C     0.08967   0.89324   0.25279   0.00000  Uiso   1.00
C160   C     0.05758   0.78153   0.20308   0.00000  Uiso   1.00
C161   C     0.03960   0.82466   0.14605   0.00000  Uiso   1.00
H162   H     0.14939   0.26273   0.30082   0.00000  Uiso   1.00
H163   H     0.24976   0.19846   0.39206   0.00000  Uiso   1.00
H164   H     0.10626   0.42982   0.32501   0.00000  Uiso   1.00
H165   H     0.09592   0.20178   0.18343   0.00000  Uiso   1.00
H166   H     0.35504   0.06130   0.49632   0.00000  Uiso   1.00
H167   H     0.05245   0.54914   0.35492   0.00000  Uiso   1.00
H168   H     0.03063   0.06827   0.05636   0.00000  Uiso   1.00
H169   H     0.10304   0.75468   0.32460   0.00000  Uiso   1.00
H170   H     0.20088   0.66252   0.41715   0.00000  Uiso   1.00
H171   H     0.05738   0.89389   0.35010   0.00000  Uiso   1.00
H172   H     0.04704   0.66585   0.20851   0.00000  Uiso   1.00
H173   H     0.31536   0.62631   0.51669   0.00000  Uiso   1.00
H174   H     0.01277   0.11416   0.37528   0.00000  Uiso   1.00
H175   H     0.99096   0.63328   0.07672   0.00000  Uiso   1.00
O176   O     0.40040   0.79237   0.56697   0.00000  Uiso   1.00
O177   O     0.00340   0.43240   0.38144   0.00000  Uiso   1.00
O178   O     0.97478   0.80151   0.98974   0.00000  Uiso   1.00
N179   N     0.33227   0.97156   0.48841   0.00000  Uiso   1.00
N180   N     0.04938   0.42766   0.35621   0.00000  Uiso   1.00
N181   N     0.02897   0.97811   0.07708   0.00000  Uiso   1.00
N182   N     0.31092   0.73749   0.49936   0.00000  Uiso   1.00
N183   N     0.02803   0.19360   0.36717   0.00000  Uiso   1.00
N184   N     0.00762   0.74404   0.08803   0.00000  Uiso   1.00
C185   C     0.63877   0.35367   0.80627   0.00000  Uiso   1.00
C186   C     0.68688   0.45905   0.85914   0.00000  Uiso   1.00
C187   C     0.73922   0.41726   0.89749   0.00000  Uiso   1.00
C188   C     0.77750   0.53040   0.94315   0.00000  Uiso   1.00
C189   C     0.85428   0.67125   0.02419   0.00000  Uiso   1.00
C190   C     0.60892   0.33334   0.82271   0.00000  Uiso   1.00
C191   C     0.59571   0.18586   0.83044   0.00000  Uiso   1.00
C192   C     0.56835   0.19319   0.84543   0.00000  Uiso   1.00
C193   C     0.52406   0.13887   0.86988   0.00000  Uiso   1.00
C194   C     0.60330   0.45725   0.74579   0.00000  Uiso   1.00
C195   C     0.58536   0.41393   0.68882   0.00000  Uiso   1.00
C196   C     0.55326   0.52556   0.63904   0.00000  Uiso   1.00
C197   C     0.50025   0.66362   0.54406   0.00000  Uiso   1.00
C198   C     0.61366   0.62892   0.81915   0.00000  Uiso   1.00
C199   C     0.67324   0.60855   0.86613   0.00000  Uiso   1.00
C200   C     0.71145   0.72180   0.91174   0.00000  Uiso   1.00
C201   C     0.76384   0.68018   0.95016   0.00000  Uiso   1.00
C202   C     0.59528   0.48284   0.82971   0.00000  Uiso   1.00
C203   C     0.56793   0.49039   0.84469   0.00000  Uiso   1.00
C204   C     0.55469   0.34296   0.85244   0.00000  Uiso   1.00
C205   C     0.58967   0.60676   0.75279   0.00000  Uiso   1.00
C206   C     0.55758   0.71847   0.70308   0.00000  Uiso   1.00
C207   C     0.53960   0.67534   0.64605   0.00000  Uiso   1.00
H208   H     0.64939   0.23727   0.80082   0.00000  Uiso   1.00
H209   H     0.74976   0.30154   0.89206   0.00000  Uiso   1.00
H210   H     0.60626   0.07018   0.82501   0.00000  Uiso   1.00
H211   H     0.59592   0.29822   0.68343   0.00000  Uiso   1.00
H212   H     0.85504   0.43870   0.99632   0.00000  Uiso   1.00
H213   H     0.55245   0.95086   0.85492   0.00000  Uiso   1.00
H214   H     0.53063   0.43173   0.55636   0.00000  Uiso   1.00
H215   H     0.60304   0.74532   0.82460   0.00000  Uiso   1.00
H216   H     0.70088   0.83748   0.91715   0.00000  Uiso   1.00
H217   H     0.55738   0.60611   0.85010   0.00000  Uiso   1.00
H218   H     0.54704   0.83415   0.70851   0.00000  Uiso   1.00
H219   H     0.81536   0.87369   0.01669   0.00000  Uiso   1.00
H220   H     0.51277   0.38584   0.87528   0.00000  Uiso   1.00
H221   H     0.49096   0.86672   0.57672   0.00000  Uiso   1.00
O222   O     0.90040   0.70763   0.06697   0.00000  Uiso   1.00
O223   O     0.50340   0.06760   0.88144   0.00000  Uiso   1.00
O224   O     0.47478   0.69849   0.48974   0.00000  Uiso   1.00
N225   N     0.83227   0.52844   0.98841   0.00000  Uiso   1.00
N226   N     0.54938   0.07234   0.85621   0.00000  Uiso   1.00
N227   N     0.52897   0.52189   0.57708   0.00000  Uiso   1.00
N228   N     0.81092   0.76251   0.99936   0.00000  Uiso   1.00
N229   N     0.52803   0.30640   0.86717   0.00000  Uiso   1.00
N230   N     0.50762   0.75596   0.58803   0.00000  Uiso   1.00
C231   C     0.13877   0.85367   0.80627   0.00000  Uiso   1.00
C232   C     0.18688   0.95905   0.85914   0.00000  Uiso   1.00
C233   C     0.23922   0.91726   0.89749   0.00000  Uiso   1.00
C234   C     0.27750   0.03040   0.94315   0.00000  Uiso   1.00
C235   C     0.35428   0.17125   0.02419   0.00000  Uiso   1.00
C236   C     0.10892   0.83334   0.82271   0.00000  Uiso   1.00
C237   C     0.09571   0.68586   0.83044   0.00000  Uiso   1.00
C238   C     0.06835   0.69319   0.84543   0.00000  Uiso   1.00
C239   C     0.02406   0.63887   0.86988   0.00000  Uiso   1.00
C240   C     0.10330   0.95725   0.74579   0.00000  Uiso   1.00
C241   C     0.08536   0.91393   0.68882   0.00000  Uiso   1.00
C242   C     0.05326   0.02556   0.63904   0.00000  Uiso   1.00
C243   C     0.00025   0.16362   0.54406   0.00000  Uiso   1.00
C244   C     0.11366   0.12892   0.81915   0.00000  Uiso   1.00
C245   C     0.17324   0.10855   0.86613   0.00000  Uiso   1.00
C246   C     0.21145   0.22180   0.91174   0.00000  Uiso   1.00
C247   C     0.26384   0.18018   0.95016   0.00000  Uiso   1.00
C248   C     0.09528   0.98284   0.82971   0.00000  Uiso   1.00
C249   C     0.06793   0.99039   0.84469   0.00000  Uiso   1.00
C250   C     0.05469   0.84296   0.85244   0.00000  Uiso   1.00
C251   C     0.08967   0.10676   0.75279   0.00000  Uiso   1.00
C252   C     0.05758   0.21847   0.70308   0.00000  Uiso   1.00
C253   C     0.03960   0.17534   0.64605   0.00000  Uiso   1.00
H254   H     0.14939   0.73727   0.80082   0.00000  Uiso   1.00
H255   H     0.24976   0.80154   0.89206   0.00000  Uiso   1.00
H256   H     0.10626   0.57018   0.82501   0.00000  Uiso   1.00
H257   H     0.09592   0.79822   0.68343   0.00000  Uiso   1.00
H258   H     0.35504   0.93870   0.99632   0.00000  Uiso   1.00
H259   H     0.05245   0.45086   0.85492   0.00000  Uiso   1.00
H260   H     0.03063   0.93173   0.55636   0.00000  Uiso   1.00
H261   H     0.10304   0.24532   0.82460   0.00000  Uiso   1.00
H262   H     0.20088   0.33748   0.91715   0.00000  Uiso   1.00
H263   H     0.05738   0.10611   0.85010   0.00000  Uiso   1.00
H264   H     0.04704   0.33415   0.70851   0.00000  Uiso   1.00
H265   H     0.31536   0.37369   0.01669   0.00000  Uiso   1.00
H266   H     0.01277   0.88584   0.87528   0.00000  Uiso   1.00
H267   H     0.99096   0.36672   0.57672   0.00000  Uiso   1.00
O268   O     0.40040   0.20763   0.06697   0.00000  Uiso   1.00
O269   O     0.00340   0.56760   0.88144   0.00000  Uiso   1.00
O270   O     0.97478   0.19849   0.48974   0.00000  Uiso   1.00
N271   N     0.33227   0.02844   0.98841   0.00000  Uiso   1.00
N272   N     0.04938   0.57234   0.85621   0.00000  Uiso   1.00
N273   N     0.02897   0.02189   0.57708   0.00000  Uiso   1.00
N274   N     0.31092   0.26251   0.99936   0.00000  Uiso   1.00
N275   N     0.02803   0.80640   0.86717   0.00000  Uiso   1.00
N276   N     0.00762   0.25596   0.58803   0.00000  Uiso   1.00
C277   C     0.36123   0.35367   0.69373   0.00000  Uiso   1.00
C278   C     0.31312   0.45905   0.64086   0.00000  Uiso   1.00
C279   C     0.26078   0.41726   0.60251   0.00000  Uiso   1.00
C280   C     0.22250   0.53040   0.55685   0.00000  Uiso   1.00
C281   C     0.14572   0.67125   0.47581   0.00000  Uiso   1.00
C282   C     0.39108   0.33334   0.67729   0.00000  Uiso   1.00
C283   C     0.40429   0.18586   0.66956   0.00000  Uiso   1.00
C284   C     0.43165   0.19319   0.65457   0.00000  Uiso   1.00
C285   C     0.47594   0.13887   0.63012   0.00000  Uiso   1.00
C286   C     0.39670   0.45725   0.75421   0.00000  Uiso   1.00
C287   C     0.41464   0.41393   0.81118   0.00000  Uiso   1.00
C288   C     0.44674   0.52556   0.86096   0.00000  Uiso   1.00
C289   C     0.49975   0.66362   0.95594   0.00000  Uiso   1.00
C290   C     0.38634   0.62892   0.68085   0.00000  Uiso   1.00
C291   C     0.32676   0.60855   0.63387   0.00000  Uiso   1.00
C292   C     0.28855   0.72180   0.58826   0.00000  Uiso   1.00
C293   C     0.23616   0.68018   0.54984   0.00000  Uiso   1.00
C294   C     0.40472   0.48284   0.67029   0.00000  Uiso   1.00
C295   C     0.43207   0.49039   0.65531   0.00000  Uiso   1.00
C296   C     0.44531   0.34296   0.64756   0.00000  Uiso   1.00
C297   C     0.41033   0.60676   0.74721   0.00000  Uiso   1.00
C298   C     0.44242   0.71847   0.79692   0.00000  Uiso   1.00
C299   C     0.46040   0.67534   0.85395   0.00000  Uiso   1.00
H300   H     0.35061   0.23727   0.69918   0.00000  Uiso   1.00
H301   H     0.25024   0.30154   0.60794   0.00000  Uiso   1.00
H302   H     0.39374   0.07018   0.67499   0.00000  Uiso   1.00
H303   H     0.40408   0.29822   0.81657   0.00000  Uiso   1.00
H304   H     0.14496   0.43870   0.50368   0.00000  Uiso   1.00
H305   H     0.44755   0.95086   0.64508   0.00000  Uiso   1.00
H306   H     0.46937   0.43173   0.94364   0.00000  Uiso   1.00
H307   H     0.39696   0.74532   0.67540   0.00000  Uiso   1.00
H308   H     0.29912   0.83748   0.58285   0.00000  Uiso   1.00
H309   H     0.44262   0.60611   0.64990   0.00000  Uiso   1.00
H310   H     0.45296   0.83415   0.79149   0.00000  Uiso   1.00
H311   H     0.18464   0.87369   0.48331   0.00000  Uiso   1.00
H312   H     0.48723   0.38584   0.62472   0.00000  Uiso   1.00
H313   H     0.50904   0.86672   0.92328   0.00000  Uiso   1.00
O314   O     0.09960   0.70763   0.43303   0.00000  Uiso   1.00
O315   O     0.49660   0.06760   0.61856   0.00000  Uiso   1.00
O316   O     0.52522   0.69849   0.01026   0.00000  Uiso   1.00
N317   N     0.16773   0.52844   0.51159   0.00000  Uiso   1.00
N318   N     0.45062   0.07234   0.64379   0.00000  Uiso   1.00
N319   N     0.47103   0.52189   0.92292   0.00000  Uiso   1.00
N320   N     0.18908   0.76251   0.50064   0.00000  Uiso   1.00
N321   N     0.47197   0.30640   0.63283   0.00000  Uiso   1.00
N322   N     0.49238   0.75596   0.91197   0.00000  Uiso   1.00
C323   C     0.86123   0.85367   0.69373   0.00000  Uiso   1.00
C324   C     0.81312   0.95905   0.64086   0.00000  Uiso   1.00
C325   C     0.76078   0.91726   0.60251   0.00000  Uiso   1.00
C326   C     0.72250   0.03040   0.55685   0.00000  Uiso   1.00
C327   C     0.64572   0.17125   0.47581   0.00000  Uiso   1.00
C328   C     0.89108   0.83334   0.67729   0.00000  Uiso   1.00
C329   C     0.90429   0.68586   0.66956   0.00000  Uiso   1.00
C330   C     0.93165   0.69319   0.65457   0.00000  Uiso   1.00
C331   C     0.97594   0.63887   0.63012   0.00000  Uiso   1.00
C332   C     0.89670   0.95725   0.75421   0.00000  Uiso   1.00
C333   C     0.91464   0.91393   0.81118   0.00000  Uiso   1.00
C334   C     0.94674   0.02556   0.86096   0.00000  Uiso   1.00
C335   C     0.99975   0.16362   0.95594   0.00000  Uiso   1.00
C336   C     0.88634   0.12892   0.68085   0.00000  Uiso   1.00
C337   C     0.82676   0.10855   0.63387   0.00000  Uiso   1.00
C338   C     0.78855   0.22180   0.58826   0.00000  Uiso   1.00
C339   C     0.73616   0.18018   0.54984   0.00000  Uiso   1.00
C340   C     0.90472   0.98284   0.67029   0.00000  Uiso   1.00
C341   C     0.93207   0.99039   0.65531   0.00000  Uiso   1.00
C342   C     0.94531   0.84296   0.64756   0.00000  Uiso   1.00
C343   C     0.91033   0.10676   0.74721   0.00000  Uiso   1.00
C344   C     0.94242   0.21847   0.79692   0.00000  Uiso   1.00
C345   C     0.96040   0.17534   0.85395   0.00000  Uiso   1.00
H346   H     0.85061   0.73727   0.69918   0.00000  Uiso   1.00
H347   H     0.75024   0.80154   0.60794   0.00000  Uiso   1.00
H348   H     0.89374   0.57018   0.67499   0.00000  Uiso   1.00
H349   H     0.90408   0.79822   0.81657   0.00000  Uiso   1.00
H350   H     0.64496   0.93870   0.50368   0.00000  Uiso   1.00
H351   H     0.94755   0.45086   0.64508   0.00000  Uiso   1.00
H352   H     0.96937   0.93173   0.94364   0.00000  Uiso   1.00
H353   H     0.89696   0.24532   0.67540   0.00000  Uiso   1.00
H354   H     0.79912   0.33748   0.58285   0.00000  Uiso   1.00
H355   H     0.94262   0.10611   0.64990   0.00000  Uiso   1.00
H356   H     0.95296   0.33415   0.79149   0.00000  Uiso   1.00
H357   H     0.68464   0.37369   0.48331   0.00000  Uiso   1.00
H358   H     0.98723   0.88584   0.62472   0.00000  Uiso   1.00
H359   H     0.00904   0.36672   0.92328   0.00000  Uiso   1.00
O360   O     0.59960   0.20763   0.43303   0.00000  Uiso   1.00
O361   O     0.99660   0.56760   0.61856   0.00000  Uiso   1.00
O362   O     0.02522   0.19849   0.01026   0.00000  Uiso   1.00
N363   N     0.66773   0.02844   0.51159   0.00000  Uiso   1.00
N364   N     0.95062   0.57234   0.64379   0.00000  Uiso   1.00
N365   N     0.97103   0.02189   0.92292   0.00000  Uiso   1.00
N366   N     0.68908   0.26251   0.50064   0.00000  Uiso   1.00
N367   N     0.97197   0.80640   0.63283   0.00000  Uiso   1.00
N368   N     0.99238   0.25596   0.91197   0.00000  Uiso   1.00
