data_job_04740
_audit_creation_date              2018-12-19
_audit_creation_method            'Materials Studio'
_symmetry_space_group_name_H-M    'P1'
_symmetry_Int_Tables_number       1
_symmetry_cell_setting            triclinic
loop_
_symmetry_equiv_pos_as_xyz
  x,y,z
_cell_length_a                    22.0194
_cell_length_b                    22.0194
_cell_length_c                    10.6749
_cell_angle_alpha                 90.0000
_cell_angle_beta                  90.0000
_cell_angle_gamma                 90.0000
loop_
_atom_site_label
_atom_site_type_symbol
_atom_site_fract_x
_atom_site_fract_y
_atom_site_fract_z
_atom_site_U_iso_or_equiv
_atom_site_adp_type
_atom_site_occupancy
C1     C     0.71536   0.83008   0.34051   0.00000  Uiso   1.00
C2     C     0.73781   0.76999   0.39434   0.00000  Uiso   1.00
C3     C     0.71159   0.71352   0.37415   0.00000  Uiso   1.00
C4     C     0.73894   0.66404   0.43175   0.00000  Uiso   1.00
C5     C     0.76592   0.56970   0.50396   0.00000  Uiso   1.00
C6     C     0.70456   0.87167   0.45254   0.00000  Uiso   1.00
C7     C     0.65037   0.90070   0.48128   0.00000  Uiso   1.00
C8     C     0.64974   0.93683   0.58786   0.00000  Uiso   1.00
C9     C     0.62510   0.00039   0.75038   0.00000  Uiso   1.00
C10    C     0.76894   0.85718   0.26937   0.00000  Uiso   1.00
C11    C     0.76890   0.87405   0.14411   0.00000  Uiso   1.00
C12    C     0.82247   0.89799   0.09649   0.00000  Uiso   1.00
C13    C     0.89780   0.93906   0.97461   0.00000  Uiso   1.00
C14    C     0.81057   0.84263   0.47870   0.00000  Uiso   1.00
C15    C     0.78952   0.77681   0.46940   0.00000  Uiso   1.00
C16    C     0.81693   0.72740   0.52704   0.00000  Uiso   1.00
C17    C     0.79075   0.67087   0.50694   0.00000  Uiso   1.00
C18    C     0.75627   0.87849   0.52760   0.00000  Uiso   1.00
C19    C     0.75571   0.91459   0.63416   0.00000  Uiso   1.00
C20    C     0.70154   0.94366   0.66306   0.00000  Uiso   1.00
C21    C     0.82066   0.86400   0.34443   0.00000  Uiso   1.00
C22    C     0.87424   0.88793   0.29699   0.00000  Uiso   1.00
C23    C     0.87427   0.90482   0.17168   0.00000  Uiso   1.00
H24    H     0.67509   0.82477   0.28208   0.00000  Uiso   1.00
H25    H     0.67156   0.70826   0.31607   0.00000  Uiso   1.00
H26    H     0.61036   0.89542   0.42317   0.00000  Uiso   1.00
H27    H     0.72887   0.86876   0.08605   0.00000  Uiso   1.00
H28    H     0.69044   0.58210   0.38688   0.00000  Uiso   1.00
H29    H     0.56140   0.97675   0.61269   0.00000  Uiso   1.00
H30    H     0.81130   0.92054   0.90181   0.00000  Uiso   1.00
H31    H     0.85083   0.84794   0.53714   0.00000  Uiso   1.00
H32    H     0.85695   0.73269   0.58512   0.00000  Uiso   1.00
H33    H     0.79574   0.91985   0.69222   0.00000  Uiso   1.00
H34    H     0.91425   0.89320   0.35510   0.00000  Uiso   1.00
H35    H     0.84090   0.60193   0.60526   0.00000  Uiso   1.00
H36    H     0.71186   0.99658   0.83106   0.00000  Uiso   1.00
H37    H     0.96176   0.94037   0.12019   0.00000  Uiso   1.00
O38    O     0.76651   0.51579   0.52307   0.00000  Uiso   1.00
O39    O     0.59722   0.03356   0.81929   0.00000  Uiso   1.00
O40    O     0.92508   0.95982   0.88664   0.00000  Uiso   1.00
N41    N     0.72502   0.60258   0.43167   0.00000  Uiso   1.00
N42    N     0.60438   0.97154   0.64280   0.00000  Uiso   1.00
N43    N     0.83800   0.91901   0.97820   0.00000  Uiso   1.00
N44    N     0.80599   0.61325   0.54918   0.00000  Uiso   1.00
N45    N     0.68534   0.98222   0.76030   0.00000  Uiso   1.00
N46    N     0.91896   0.92968   0.09570   0.00000  Uiso   1.00
C47    C     0.28464   0.16992   0.34051   0.00000  Uiso   1.00
C48    C     0.26219   0.23001   0.39434   0.00000  Uiso   1.00
C49    C     0.28841   0.28648   0.37415   0.00000  Uiso   1.00
C50    C     0.26106   0.33596   0.43175   0.00000  Uiso   1.00
C51    C     0.23408   0.43030   0.50396   0.00000  Uiso   1.00
C52    C     0.29544   0.12833   0.45254   0.00000  Uiso   1.00
C53    C     0.34963   0.09930   0.48128   0.00000  Uiso   1.00
C54    C     0.35026   0.06317   0.58786   0.00000  Uiso   1.00
C55    C     0.37490   0.99961   0.75038   0.00000  Uiso   1.00
C56    C     0.23106   0.14282   0.26937   0.00000  Uiso   1.00
C57    C     0.23110   0.12595   0.14411   0.00000  Uiso   1.00
C58    C     0.17753   0.10201   0.09649   0.00000  Uiso   1.00
C59    C     0.10220   0.06094   0.97461   0.00000  Uiso   1.00
C60    C     0.18943   0.15737   0.47870   0.00000  Uiso   1.00
C61    C     0.21048   0.22319   0.46940   0.00000  Uiso   1.00
C62    C     0.18307   0.27260   0.52704   0.00000  Uiso   1.00
C63    C     0.20925   0.32913   0.50694   0.00000  Uiso   1.00
C64    C     0.24373   0.12151   0.52760   0.00000  Uiso   1.00
C65    C     0.24429   0.08541   0.63416   0.00000  Uiso   1.00
C66    C     0.29846   0.05634   0.66306   0.00000  Uiso   1.00
C67    C     0.17934   0.13600   0.34443   0.00000  Uiso   1.00
C68    C     0.12576   0.11207   0.29699   0.00000  Uiso   1.00
C69    C     0.12573   0.09518   0.17168   0.00000  Uiso   1.00
H70    H     0.32491   0.17523   0.28208   0.00000  Uiso   1.00
H71    H     0.32844   0.29174   0.31607   0.00000  Uiso   1.00
H72    H     0.38964   0.10458   0.42317   0.00000  Uiso   1.00
H73    H     0.27113   0.13124   0.08605   0.00000  Uiso   1.00
H74    H     0.30956   0.41790   0.38688   0.00000  Uiso   1.00
H75    H     0.43860   0.02325   0.61269   0.00000  Uiso   1.00
H76    H     0.18870   0.07946   0.90181   0.00000  Uiso   1.00
H77    H     0.14917   0.15206   0.53714   0.00000  Uiso   1.00
H78    H     0.14305   0.26731   0.58512   0.00000  Uiso   1.00
H79    H     0.20426   0.08015   0.69222   0.00000  Uiso   1.00
H80    H     0.08575   0.10680   0.35510   0.00000  Uiso   1.00
H81    H     0.15910   0.39807   0.60526   0.00000  Uiso   1.00
H82    H     0.28814   0.00342   0.83106   0.00000  Uiso   1.00
H83    H     0.03824   0.05963   0.12019   0.00000  Uiso   1.00
O84    O     0.23349   0.48421   0.52307   0.00000  Uiso   1.00
O85    O     0.40278   0.96644   0.81929   0.00000  Uiso   1.00
O86    O     0.07492   0.04018   0.88664   0.00000  Uiso   1.00
N87    N     0.27498   0.39742   0.43167   0.00000  Uiso   1.00
N88    N     0.39562   0.02846   0.64280   0.00000  Uiso   1.00
N89    N     0.16200   0.08099   0.97820   0.00000  Uiso   1.00
N90    N     0.19401   0.38675   0.54918   0.00000  Uiso   1.00
N91    N     0.31466   0.01778   0.76030   0.00000  Uiso   1.00
N92    N     0.08104   0.07032   0.09570   0.00000  Uiso   1.00
C93    C     0.83008   0.28464   0.65949   0.00000  Uiso   1.00
C94    C     0.76999   0.26219   0.60566   0.00000  Uiso   1.00
C95    C     0.71352   0.28841   0.62585   0.00000  Uiso   1.00
C96    C     0.66404   0.26106   0.56825   0.00000  Uiso   1.00
C97    C     0.56970   0.23408   0.49604   0.00000  Uiso   1.00
C98    C     0.87167   0.29544   0.54746   0.00000  Uiso   1.00
C99    C     0.90070   0.34963   0.51872   0.00000  Uiso   1.00
C100   C     0.93683   0.35026   0.41214   0.00000  Uiso   1.00
C101   C     0.00039   0.37490   0.24962   0.00000  Uiso   1.00
C102   C     0.85718   0.23106   0.73063   0.00000  Uiso   1.00
C103   C     0.87405   0.23110   0.85589   0.00000  Uiso   1.00
C104   C     0.89799   0.17753   0.90351   0.00000  Uiso   1.00
C105   C     0.93906   0.10220   0.02539   0.00000  Uiso   1.00
C106   C     0.84263   0.18943   0.52130   0.00000  Uiso   1.00
C107   C     0.77681   0.21048   0.53060   0.00000  Uiso   1.00
C108   C     0.72740   0.18307   0.47296   0.00000  Uiso   1.00
C109   C     0.67087   0.20925   0.49306   0.00000  Uiso   1.00
C110   C     0.87849   0.24373   0.47240   0.00000  Uiso   1.00
C111   C     0.91459   0.24429   0.36584   0.00000  Uiso   1.00
C112   C     0.94366   0.29846   0.33694   0.00000  Uiso   1.00
C113   C     0.86400   0.17934   0.65557   0.00000  Uiso   1.00
C114   C     0.88793   0.12576   0.70301   0.00000  Uiso   1.00
C115   C     0.90482   0.12573   0.82832   0.00000  Uiso   1.00
H116   H     0.82477   0.32491   0.71792   0.00000  Uiso   1.00
H117   H     0.70826   0.32844   0.68393   0.00000  Uiso   1.00
H118   H     0.89542   0.38964   0.57683   0.00000  Uiso   1.00
H119   H     0.86876   0.27113   0.91395   0.00000  Uiso   1.00
H120   H     0.58210   0.30956   0.61312   0.00000  Uiso   1.00
H121   H     0.97675   0.43860   0.38731   0.00000  Uiso   1.00
H122   H     0.92054   0.18870   0.09819   0.00000  Uiso   1.00
H123   H     0.84794   0.14917   0.46286   0.00000  Uiso   1.00
H124   H     0.73269   0.14305   0.41488   0.00000  Uiso   1.00
H125   H     0.91985   0.20426   0.30778   0.00000  Uiso   1.00
H126   H     0.89320   0.08575   0.64490   0.00000  Uiso   1.00
H127   H     0.60193   0.15910   0.39474   0.00000  Uiso   1.00
H128   H     0.99658   0.28814   0.16894   0.00000  Uiso   1.00
H129   H     0.94037   0.03824   0.87981   0.00000  Uiso   1.00
O130   O     0.51579   0.23349   0.47693   0.00000  Uiso   1.00
O131   O     0.03356   0.40278   0.18071   0.00000  Uiso   1.00
O132   O     0.95982   0.07492   0.11336   0.00000  Uiso   1.00
N133   N     0.60258   0.27498   0.56833   0.00000  Uiso   1.00
N134   N     0.97154   0.39562   0.35720   0.00000  Uiso   1.00
N135   N     0.91901   0.16200   0.02180   0.00000  Uiso   1.00
N136   N     0.61325   0.19401   0.45082   0.00000  Uiso   1.00
N137   N     0.98222   0.31466   0.23970   0.00000  Uiso   1.00
N138   N     0.92968   0.08104   0.90430   0.00000  Uiso   1.00
C139   C     0.16992   0.71536   0.65949   0.00000  Uiso   1.00
C140   C     0.23001   0.73781   0.60566   0.00000  Uiso   1.00
C141   C     0.28648   0.71159   0.62585   0.00000  Uiso   1.00
C142   C     0.33596   0.73894   0.56825   0.00000  Uiso   1.00
C143   C     0.43030   0.76592   0.49604   0.00000  Uiso   1.00
C144   C     0.12833   0.70456   0.54746   0.00000  Uiso   1.00
C145   C     0.09930   0.65037   0.51872   0.00000  Uiso   1.00
C146   C     0.06317   0.64974   0.41214   0.00000  Uiso   1.00
C147   C     0.99961   0.62510   0.24962   0.00000  Uiso   1.00
C148   C     0.14282   0.76894   0.73063   0.00000  Uiso   1.00
C149   C     0.12595   0.76890   0.85589   0.00000  Uiso   1.00
C150   C     0.10201   0.82247   0.90351   0.00000  Uiso   1.00
C151   C     0.06094   0.89780   0.02539   0.00000  Uiso   1.00
C152   C     0.15737   0.81057   0.52130   0.00000  Uiso   1.00
C153   C     0.22319   0.78952   0.53060   0.00000  Uiso   1.00
C154   C     0.27260   0.81693   0.47296   0.00000  Uiso   1.00
C155   C     0.32913   0.79075   0.49306   0.00000  Uiso   1.00
C156   C     0.12151   0.75627   0.47240   0.00000  Uiso   1.00
C157   C     0.08541   0.75571   0.36584   0.00000  Uiso   1.00
C158   C     0.05634   0.70154   0.33694   0.00000  Uiso   1.00
C159   C     0.13600   0.82066   0.65557   0.00000  Uiso   1.00
C160   C     0.11207   0.87424   0.70301   0.00000  Uiso   1.00
C161   C     0.09518   0.87427   0.82832   0.00000  Uiso   1.00
H162   H     0.17523   0.67509   0.71792   0.00000  Uiso   1.00
H163   H     0.29174   0.67156   0.68393   0.00000  Uiso   1.00
H164   H     0.10458   0.61036   0.57683   0.00000  Uiso   1.00
H165   H     0.13124   0.72887   0.91395   0.00000  Uiso   1.00
H166   H     0.41790   0.69044   0.61312   0.00000  Uiso   1.00
H167   H     0.02325   0.56140   0.38731   0.00000  Uiso   1.00
H168   H     0.07946   0.81130   0.09819   0.00000  Uiso   1.00
H169   H     0.15206   0.85083   0.46286   0.00000  Uiso   1.00
H170   H     0.26731   0.85695   0.41488   0.00000  Uiso   1.00
H171   H     0.08015   0.79574   0.30778   0.00000  Uiso   1.00
H172   H     0.10680   0.91425   0.64490   0.00000  Uiso   1.00
H173   H     0.39807   0.84090   0.39474   0.00000  Uiso   1.00
H174   H     0.00342   0.71186   0.16894   0.00000  Uiso   1.00
H175   H     0.05963   0.96176   0.87981   0.00000  Uiso   1.00
O176   O     0.48421   0.76651   0.47693   0.00000  Uiso   1.00
O177   O     0.96644   0.59722   0.18071   0.00000  Uiso   1.00
O178   O     0.04018   0.92508   0.11336   0.00000  Uiso   1.00
N179   N     0.39742   0.72502   0.56833   0.00000  Uiso   1.00
N180   N     0.02846   0.60438   0.35720   0.00000  Uiso   1.00
N181   N     0.08099   0.83800   0.02180   0.00000  Uiso   1.00
N182   N     0.38675   0.80599   0.45082   0.00000  Uiso   1.00
N183   N     0.01778   0.68534   0.23970   0.00000  Uiso   1.00
N184   N     0.07032   0.91896   0.90430   0.00000  Uiso   1.00
C185   C     0.78464   0.33008   0.15949   0.00000  Uiso   1.00
C186   C     0.76219   0.26999   0.10566   0.00000  Uiso   1.00
C187   C     0.78841   0.21352   0.12585   0.00000  Uiso   1.00
C188   C     0.76106   0.16404   0.06825   0.00000  Uiso   1.00
C189   C     0.73408   0.06970   0.99604   0.00000  Uiso   1.00
C190   C     0.79544   0.37167   0.04746   0.00000  Uiso   1.00
C191   C     0.84963   0.40070   0.01872   0.00000  Uiso   1.00
C192   C     0.85026   0.43683   0.91214   0.00000  Uiso   1.00
C193   C     0.87490   0.50039   0.74962   0.00000  Uiso   1.00
C194   C     0.73106   0.35718   0.23063   0.00000  Uiso   1.00
C195   C     0.73110   0.37405   0.35589   0.00000  Uiso   1.00
C196   C     0.67753   0.39799   0.40351   0.00000  Uiso   1.00
C197   C     0.60220   0.43906   0.52539   0.00000  Uiso   1.00
C198   C     0.68943   0.34263   0.02130   0.00000  Uiso   1.00
C199   C     0.71048   0.27681   0.03060   0.00000  Uiso   1.00
C200   C     0.68307   0.22740   0.97296   0.00000  Uiso   1.00
C201   C     0.70925   0.17087   0.99306   0.00000  Uiso   1.00
C202   C     0.74373   0.37849   0.97240   0.00000  Uiso   1.00
C203   C     0.74429   0.41459   0.86584   0.00000  Uiso   1.00
C204   C     0.79846   0.44366   0.83694   0.00000  Uiso   1.00
C205   C     0.67934   0.36400   0.15557   0.00000  Uiso   1.00
C206   C     0.62576   0.38793   0.20301   0.00000  Uiso   1.00
C207   C     0.62573   0.40482   0.32832   0.00000  Uiso   1.00
H208   H     0.82491   0.32477   0.21792   0.00000  Uiso   1.00
H209   H     0.82844   0.20826   0.18393   0.00000  Uiso   1.00
H210   H     0.88964   0.39542   0.07683   0.00000  Uiso   1.00
H211   H     0.77113   0.36876   0.41395   0.00000  Uiso   1.00
H212   H     0.80956   0.08210   0.11312   0.00000  Uiso   1.00
H213   H     0.93860   0.47675   0.88731   0.00000  Uiso   1.00
H214   H     0.68870   0.42054   0.59819   0.00000  Uiso   1.00
H215   H     0.64917   0.34794   0.96286   0.00000  Uiso   1.00
H216   H     0.64305   0.23269   0.91488   0.00000  Uiso   1.00
H217   H     0.70426   0.41985   0.80778   0.00000  Uiso   1.00
H218   H     0.58575   0.39320   0.14490   0.00000  Uiso   1.00
H219   H     0.65910   0.10193   0.89474   0.00000  Uiso   1.00
H220   H     0.78814   0.49658   0.66894   0.00000  Uiso   1.00
H221   H     0.53824   0.44037   0.37981   0.00000  Uiso   1.00
O222   O     0.73349   0.01579   0.97693   0.00000  Uiso   1.00
O223   O     0.90278   0.53356   0.68071   0.00000  Uiso   1.00
O224   O     0.57492   0.45982   0.61336   0.00000  Uiso   1.00
N225   N     0.77498   0.10258   0.06833   0.00000  Uiso   1.00
N226   N     0.89562   0.47154   0.85720   0.00000  Uiso   1.00
N227   N     0.66200   0.41901   0.52180   0.00000  Uiso   1.00
N228   N     0.69401   0.11325   0.95082   0.00000  Uiso   1.00
N229   N     0.81466   0.48222   0.73970   0.00000  Uiso   1.00
N230   N     0.58104   0.42968   0.40430   0.00000  Uiso   1.00
C231   C     0.21536   0.66992   0.15949   0.00000  Uiso   1.00
C232   C     0.23781   0.73001   0.10566   0.00000  Uiso   1.00
C233   C     0.21159   0.78648   0.12585   0.00000  Uiso   1.00
C234   C     0.23894   0.83596   0.06825   0.00000  Uiso   1.00
C235   C     0.26592   0.93030   0.99604   0.00000  Uiso   1.00
C236   C     0.20456   0.62833   0.04746   0.00000  Uiso   1.00
C237   C     0.15037   0.59930   0.01872   0.00000  Uiso   1.00
C238   C     0.14974   0.56317   0.91214   0.00000  Uiso   1.00
C239   C     0.12510   0.49961   0.74962   0.00000  Uiso   1.00
C240   C     0.26894   0.64282   0.23063   0.00000  Uiso   1.00
C241   C     0.26890   0.62595   0.35589   0.00000  Uiso   1.00
C242   C     0.32247   0.60201   0.40351   0.00000  Uiso   1.00
C243   C     0.39780   0.56094   0.52539   0.00000  Uiso   1.00
C244   C     0.31057   0.65737   0.02130   0.00000  Uiso   1.00
C245   C     0.28952   0.72319   0.03060   0.00000  Uiso   1.00
C246   C     0.31693   0.77260   0.97296   0.00000  Uiso   1.00
C247   C     0.29075   0.82913   0.99306   0.00000  Uiso   1.00
C248   C     0.25627   0.62151   0.97240   0.00000  Uiso   1.00
C249   C     0.25571   0.58541   0.86584   0.00000  Uiso   1.00
C250   C     0.20154   0.55634   0.83694   0.00000  Uiso   1.00
C251   C     0.32066   0.63600   0.15557   0.00000  Uiso   1.00
C252   C     0.37424   0.61207   0.20301   0.00000  Uiso   1.00
C253   C     0.37427   0.59518   0.32832   0.00000  Uiso   1.00
H254   H     0.17509   0.67523   0.21792   0.00000  Uiso   1.00
H255   H     0.17156   0.79174   0.18393   0.00000  Uiso   1.00
H256   H     0.11036   0.60458   0.07683   0.00000  Uiso   1.00
H257   H     0.22887   0.63124   0.41395   0.00000  Uiso   1.00
H258   H     0.19044   0.91790   0.11312   0.00000  Uiso   1.00
H259   H     0.06140   0.52325   0.88731   0.00000  Uiso   1.00
H260   H     0.31130   0.57946   0.59819   0.00000  Uiso   1.00
H261   H     0.35083   0.65206   0.96286   0.00000  Uiso   1.00
H262   H     0.35695   0.76731   0.91488   0.00000  Uiso   1.00
H263   H     0.29574   0.58015   0.80778   0.00000  Uiso   1.00
H264   H     0.41425   0.60680   0.14490   0.00000  Uiso   1.00
H265   H     0.34090   0.89807   0.89474   0.00000  Uiso   1.00
H266   H     0.21186   0.50342   0.66894   0.00000  Uiso   1.00
H267   H     0.46176   0.55963   0.37981   0.00000  Uiso   1.00
O268   O     0.26651   0.98421   0.97693   0.00000  Uiso   1.00
O269   O     0.09722   0.46644   0.68071   0.00000  Uiso   1.00
O270   O     0.42508   0.54018   0.61336   0.00000  Uiso   1.00
N271   N     0.22502   0.89742   0.06833   0.00000  Uiso   1.00
N272   N     0.10438   0.52846   0.85720   0.00000  Uiso   1.00
N273   N     0.33800   0.58099   0.52180   0.00000  Uiso   1.00
N274   N     0.30599   0.88675   0.95082   0.00000  Uiso   1.00
N275   N     0.18534   0.51778   0.73970   0.00000  Uiso   1.00
N276   N     0.41896   0.57032   0.40430   0.00000  Uiso   1.00
C277   C     0.66992   0.78464   0.84051   0.00000  Uiso   1.00
C278   C     0.73001   0.76219   0.89434   0.00000  Uiso   1.00
C279   C     0.78648   0.78841   0.87415   0.00000  Uiso   1.00
C280   C     0.83596   0.76106   0.93175   0.00000  Uiso   1.00
C281   C     0.93030   0.73408   0.00396   0.00000  Uiso   1.00
C282   C     0.62833   0.79544   0.95254   0.00000  Uiso   1.00
C283   C     0.59930   0.84963   0.98128   0.00000  Uiso   1.00
C284   C     0.56317   0.85026   0.08786   0.00000  Uiso   1.00
C285   C     0.49961   0.87490   0.25038   0.00000  Uiso   1.00
C286   C     0.64282   0.73106   0.76937   0.00000  Uiso   1.00
C287   C     0.62595   0.73110   0.64411   0.00000  Uiso   1.00
C288   C     0.60201   0.67753   0.59649   0.00000  Uiso   1.00
C289   C     0.56094   0.60220   0.47461   0.00000  Uiso   1.00
C290   C     0.65737   0.68943   0.97870   0.00000  Uiso   1.00
C291   C     0.72319   0.71048   0.96940   0.00000  Uiso   1.00
C292   C     0.77260   0.68307   0.02704   0.00000  Uiso   1.00
C293   C     0.82913   0.70925   0.00694   0.00000  Uiso   1.00
C294   C     0.62151   0.74373   0.02760   0.00000  Uiso   1.00
C295   C     0.58541   0.74429   0.13416   0.00000  Uiso   1.00
C296   C     0.55634   0.79846   0.16306   0.00000  Uiso   1.00
C297   C     0.63600   0.67934   0.84443   0.00000  Uiso   1.00
C298   C     0.61207   0.62576   0.79699   0.00000  Uiso   1.00
C299   C     0.59518   0.62573   0.67168   0.00000  Uiso   1.00
H300   H     0.67523   0.82491   0.78208   0.00000  Uiso   1.00
H301   H     0.79174   0.82844   0.81607   0.00000  Uiso   1.00
H302   H     0.60458   0.88964   0.92317   0.00000  Uiso   1.00
H303   H     0.63124   0.77113   0.58605   0.00000  Uiso   1.00
H304   H     0.91790   0.80956   0.88688   0.00000  Uiso   1.00
H305   H     0.52325   0.93860   0.11269   0.00000  Uiso   1.00
H306   H     0.57946   0.68870   0.40181   0.00000  Uiso   1.00
H307   H     0.65206   0.64917   0.03714   0.00000  Uiso   1.00
H308   H     0.76731   0.64305   0.08512   0.00000  Uiso   1.00
H309   H     0.58015   0.70426   0.19222   0.00000  Uiso   1.00
H310   H     0.60680   0.58575   0.85510   0.00000  Uiso   1.00
H311   H     0.89807   0.65910   0.10526   0.00000  Uiso   1.00
H312   H     0.50342   0.78814   0.33106   0.00000  Uiso   1.00
H313   H     0.55963   0.53824   0.62019   0.00000  Uiso   1.00
O314   O     0.98421   0.73349   0.02307   0.00000  Uiso   1.00
O315   O     0.46644   0.90278   0.31929   0.00000  Uiso   1.00
O316   O     0.54018   0.57492   0.38664   0.00000  Uiso   1.00
N317   N     0.89742   0.77498   0.93167   0.00000  Uiso   1.00
N318   N     0.52846   0.89562   0.14280   0.00000  Uiso   1.00
N319   N     0.58099   0.66200   0.47820   0.00000  Uiso   1.00
N320   N     0.88675   0.69401   0.04918   0.00000  Uiso   1.00
N321   N     0.51778   0.81466   0.26030   0.00000  Uiso   1.00
N322   N     0.57032   0.58104   0.59570   0.00000  Uiso   1.00
C323   C     0.33008   0.21536   0.84051   0.00000  Uiso   1.00
C324   C     0.26999   0.23781   0.89434   0.00000  Uiso   1.00
C325   C     0.21352   0.21159   0.87415   0.00000  Uiso   1.00
C326   C     0.16404   0.23894   0.93175   0.00000  Uiso   1.00
C327   C     0.06970   0.26592   0.00396   0.00000  Uiso   1.00
C328   C     0.37167   0.20456   0.95254   0.00000  Uiso   1.00
C329   C     0.40070   0.15037   0.98128   0.00000  Uiso   1.00
C330   C     0.43683   0.14974   0.08786   0.00000  Uiso   1.00
C331   C     0.50039   0.12510   0.25038   0.00000  Uiso   1.00
C332   C     0.35718   0.26894   0.76937   0.00000  Uiso   1.00
C333   C     0.37405   0.26890   0.64411   0.00000  Uiso   1.00
C334   C     0.39799   0.32247   0.59649   0.00000  Uiso   1.00
C335   C     0.43906   0.39780   0.47461   0.00000  Uiso   1.00
C336   C     0.34263   0.31057   0.97870   0.00000  Uiso   1.00
C337   C     0.27681   0.28952   0.96940   0.00000  Uiso   1.00
C338   C     0.22740   0.31693   0.02704   0.00000  Uiso   1.00
C339   C     0.17087   0.29075   0.00694   0.00000  Uiso   1.00
C340   C     0.37849   0.25627   0.02760   0.00000  Uiso   1.00
C341   C     0.41459   0.25571   0.13416   0.00000  Uiso   1.00
C342   C     0.44366   0.20154   0.16306   0.00000  Uiso   1.00
C343   C     0.36400   0.32066   0.84443   0.00000  Uiso   1.00
C344   C     0.38793   0.37424   0.79699   0.00000  Uiso   1.00
C345   C     0.40482   0.37427   0.67168   0.00000  Uiso   1.00
H346   H     0.32477   0.17509   0.78208   0.00000  Uiso   1.00
H347   H     0.20826   0.17156   0.81607   0.00000  Uiso   1.00
H348   H     0.39542   0.11036   0.92317   0.00000  Uiso   1.00
H349   H     0.36876   0.22887   0.58605   0.00000  Uiso   1.00
H350   H     0.08210   0.19044   0.88688   0.00000  Uiso   1.00
H351   H     0.47675   0.06140   0.11269   0.00000  Uiso   1.00
H352   H     0.42054   0.31130   0.40181   0.00000  Uiso   1.00
H353   H     0.34794   0.35083   0.03714   0.00000  Uiso   1.00
H354   H     0.23269   0.35695   0.08512   0.00000  Uiso   1.00
H355   H     0.41985   0.29574   0.19222   0.00000  Uiso   1.00
H356   H     0.39320   0.41425   0.85510   0.00000  Uiso   1.00
H357   H     0.10193   0.34090   0.10526   0.00000  Uiso   1.00
H358   H     0.49658   0.21186   0.33106   0.00000  Uiso   1.00
H359   H     0.44037   0.46176   0.62019   0.00000  Uiso   1.00
O360   O     0.01579   0.26651   0.02307   0.00000  Uiso   1.00
O361   O     0.53356   0.09722   0.31929   0.00000  Uiso   1.00
O362   O     0.45982   0.42508   0.38664   0.00000  Uiso   1.00
N363   N     0.10258   0.22502   0.93167   0.00000  Uiso   1.00
N364   N     0.47154   0.10438   0.14280   0.00000  Uiso   1.00
N365   N     0.41901   0.33800   0.47820   0.00000  Uiso   1.00
N366   N     0.11325   0.30599   0.04918   0.00000  Uiso   1.00
N367   N     0.48222   0.18534   0.26030   0.00000  Uiso   1.00
N368   N     0.42968   0.41896   0.59570   0.00000  Uiso   1.00
