data_job_05356
_audit_creation_date              2018-12-19
_audit_creation_method            'Materials Studio'
_symmetry_space_group_name_H-M    'P1'
_symmetry_Int_Tables_number       1
_symmetry_cell_setting            triclinic
loop_
_symmetry_equiv_pos_as_xyz
  x,y,z
_cell_length_a                    27.6201
_cell_length_b                    13.3086
_cell_length_c                    23.8897
_cell_angle_alpha                 90.0000
_cell_angle_beta                  140.4304
_cell_angle_gamma                 90.0000
loop_
_atom_site_label
_atom_site_type_symbol
_atom_site_fract_x
_atom_site_fract_y
_atom_site_fract_z
_atom_site_U_iso_or_equiv
_atom_site_adp_type
_atom_site_occupancy
C1     C     0.79519   0.49311   0.69002   0.00000  Uiso   1.00
C2     C     0.71201   0.46093   0.61596   0.00000  Uiso   1.00
C3     C     0.64983   0.52498   0.55853   0.00000  Uiso   1.00
C4     C     0.57835   0.48081   0.49529   0.00000  Uiso   1.00
C5     C     0.45054   0.44674   0.38117   0.00000  Uiso   1.00
C6     C     0.83039   0.44716   0.77380   0.00000  Uiso   1.00
C7     C     0.86776   0.49965   0.84909   0.00000  Uiso   1.00
C8     C     0.89594   0.44389   0.91873   0.00000  Uiso   1.00
C9     C     0.95198   0.38844   0.04969   0.00000  Uiso   1.00
C10    C     0.83194   0.43941   0.67331   0.00000  Uiso   1.00
C11    C     0.87064   0.48537   0.66412   0.00000  Uiso   1.00
C12    C     0.90014   0.42308   0.64916   0.00000  Uiso   1.00
C13    C     0.95858   0.35560   0.62408   0.00000  Uiso   1.00
C14    C     0.77881   0.30075   0.67982   0.00000  Uiso   1.00
C15    C     0.70311   0.35645   0.61043   0.00000  Uiso   1.00
C16    C     0.63170   0.31217   0.54725   0.00000  Uiso   1.00
C17    C     0.56943   0.37615   0.48974   0.00000  Uiso   1.00
C18    C     0.82150   0.34269   0.76827   0.00000  Uiso   1.00
C19    C     0.84963   0.28683   0.83781   0.00000  Uiso   1.00
C20    C     0.88703   0.33922   0.91318   0.00000  Uiso   1.00
C21    C     0.82304   0.33493   0.66777   0.00000  Uiso   1.00
C22    C     0.85250   0.27255   0.65283   0.00000  Uiso   1.00
C23    C     0.89122   0.31841   0.64361   0.00000  Uiso   1.00
H24    H     0.80212   0.57445   0.69433   0.00000  Uiso   1.00
H25    H     0.65674   0.60584   0.56284   0.00000  Uiso   1.00
H26    H     0.87465   0.58050   0.85336   0.00000  Uiso   1.00
H27    H     0.87751   0.56623   0.66840   0.00000  Uiso   1.00
H28    H     0.49163   0.59456   0.41464   0.00000  Uiso   1.00
H29    H     0.95112   0.54114   0.02722   0.00000  Uiso   1.00
H30    H     0.95717   0.51104   0.63721   0.00000  Uiso   1.00
H31    H     0.77188   0.21941   0.67552   0.00000  Uiso   1.00
H32    H     0.62483   0.23131   0.54299   0.00000  Uiso   1.00
H33    H     0.84274   0.20598   0.83351   0.00000  Uiso   1.00
H34    H     0.84560   0.19171   0.64855   0.00000  Uiso   1.00
H35    H     0.46573   0.29058   0.39853   0.00000  Uiso   1.00
H36    H     0.92523   0.23716   0.01111   0.00000  Uiso   1.00
H37    H     0.93127   0.20706   0.62110   0.00000  Uiso   1.00
O38    O     0.38250   0.45681   0.31976   0.00000  Uiso   1.00
O39    O     0.98534   0.38672   0.12345   0.00000  Uiso   1.00
O40    O     0.99326   0.34724   0.61176   0.00000  Uiso   1.00
N41    N     0.50572   0.52138   0.42902   0.00000  Uiso   1.00
N42    N     0.93530   0.47144   0.00175   0.00000  Uiso   1.00
N43    N     0.94097   0.44330   0.63714   0.00000  Uiso   1.00
N44    N     0.49178   0.35782   0.42035   0.00000  Uiso   1.00
N45    N     0.92137   0.30787   0.99307   0.00000  Uiso   1.00
N46    N     0.92703   0.27973   0.62847   0.00000  Uiso   1.00
C47    C     0.29519   0.99311   0.69002   0.00000  Uiso   1.00
C48    C     0.21201   0.96093   0.61596   0.00000  Uiso   1.00
C49    C     0.14983   0.02498   0.55853   0.00000  Uiso   1.00
C50    C     0.07835   0.98081   0.49529   0.00000  Uiso   1.00
C51    C     0.95054   0.94674   0.38117   0.00000  Uiso   1.00
C52    C     0.33039   0.94716   0.77380   0.00000  Uiso   1.00
C53    C     0.36776   0.99965   0.84909   0.00000  Uiso   1.00
C54    C     0.39594   0.94389   0.91873   0.00000  Uiso   1.00
C55    C     0.45198   0.88844   0.04969   0.00000  Uiso   1.00
C56    C     0.33194   0.93941   0.67331   0.00000  Uiso   1.00
C57    C     0.37064   0.98537   0.66412   0.00000  Uiso   1.00
C58    C     0.40014   0.92308   0.64916   0.00000  Uiso   1.00
C59    C     0.45858   0.85560   0.62408   0.00000  Uiso   1.00
C60    C     0.27881   0.80075   0.67982   0.00000  Uiso   1.00
C61    C     0.20311   0.85645   0.61043   0.00000  Uiso   1.00
C62    C     0.13170   0.81217   0.54725   0.00000  Uiso   1.00
C63    C     0.06943   0.87615   0.48974   0.00000  Uiso   1.00
C64    C     0.32150   0.84269   0.76827   0.00000  Uiso   1.00
C65    C     0.34963   0.78683   0.83781   0.00000  Uiso   1.00
C66    C     0.38703   0.83922   0.91318   0.00000  Uiso   1.00
C67    C     0.32304   0.83493   0.66777   0.00000  Uiso   1.00
C68    C     0.35250   0.77255   0.65283   0.00000  Uiso   1.00
C69    C     0.39122   0.81841   0.64361   0.00000  Uiso   1.00
H70    H     0.30212   0.07445   0.69433   0.00000  Uiso   1.00
H71    H     0.15674   0.10584   0.56284   0.00000  Uiso   1.00
H72    H     0.37465   0.08050   0.85336   0.00000  Uiso   1.00
H73    H     0.37751   0.06623   0.66840   0.00000  Uiso   1.00
H74    H     0.99163   0.09456   0.41464   0.00000  Uiso   1.00
H75    H     0.45112   0.04114   0.02722   0.00000  Uiso   1.00
H76    H     0.45717   0.01104   0.63721   0.00000  Uiso   1.00
H77    H     0.27188   0.71941   0.67552   0.00000  Uiso   1.00
H78    H     0.12483   0.73131   0.54299   0.00000  Uiso   1.00
H79    H     0.34274   0.70598   0.83351   0.00000  Uiso   1.00
H80    H     0.34560   0.69171   0.64855   0.00000  Uiso   1.00
H81    H     0.96573   0.79058   0.39853   0.00000  Uiso   1.00
H82    H     0.42523   0.73716   0.01111   0.00000  Uiso   1.00
H83    H     0.43127   0.70706   0.62110   0.00000  Uiso   1.00
O84    O     0.88250   0.95681   0.31976   0.00000  Uiso   1.00
O85    O     0.48534   0.88672   0.12345   0.00000  Uiso   1.00
O86    O     0.49326   0.84724   0.61176   0.00000  Uiso   1.00
N87    N     0.00572   0.02138   0.42902   0.00000  Uiso   1.00
N88    N     0.43530   0.97144   0.00175   0.00000  Uiso   1.00
N89    N     0.44097   0.94330   0.63714   0.00000  Uiso   1.00
N90    N     0.99178   0.85782   0.42035   0.00000  Uiso   1.00
N91    N     0.42137   0.80787   0.99307   0.00000  Uiso   1.00
N92    N     0.42703   0.77973   0.62847   0.00000  Uiso   1.00
C93    C     0.20481   0.49311   0.80998   0.00000  Uiso   1.00
C94    C     0.28799   0.46093   0.88404   0.00000  Uiso   1.00
C95    C     0.35017   0.52498   0.94147   0.00000  Uiso   1.00
C96    C     0.42165   0.48081   0.00471   0.00000  Uiso   1.00
C97    C     0.54946   0.44674   0.11883   0.00000  Uiso   1.00
C98    C     0.16961   0.44716   0.72620   0.00000  Uiso   1.00
C99    C     0.13224   0.49965   0.65091   0.00000  Uiso   1.00
C100   C     0.10406   0.44389   0.58127   0.00000  Uiso   1.00
C101   C     0.04802   0.38844   0.45031   0.00000  Uiso   1.00
C102   C     0.16806   0.43941   0.82669   0.00000  Uiso   1.00
C103   C     0.12936   0.48537   0.83588   0.00000  Uiso   1.00
C104   C     0.09986   0.42308   0.85084   0.00000  Uiso   1.00
C105   C     0.04142   0.35560   0.87592   0.00000  Uiso   1.00
C106   C     0.22119   0.30075   0.82018   0.00000  Uiso   1.00
C107   C     0.29689   0.35645   0.88957   0.00000  Uiso   1.00
C108   C     0.36830   0.31217   0.95275   0.00000  Uiso   1.00
C109   C     0.43057   0.37615   0.01026   0.00000  Uiso   1.00
C110   C     0.17850   0.34269   0.73173   0.00000  Uiso   1.00
C111   C     0.15037   0.28683   0.66219   0.00000  Uiso   1.00
C112   C     0.11297   0.33922   0.58682   0.00000  Uiso   1.00
C113   C     0.17696   0.33493   0.83223   0.00000  Uiso   1.00
C114   C     0.14750   0.27255   0.84717   0.00000  Uiso   1.00
C115   C     0.10878   0.31841   0.85639   0.00000  Uiso   1.00
H116   H     0.19788   0.57445   0.80567   0.00000  Uiso   1.00
H117   H     0.34326   0.60584   0.93716   0.00000  Uiso   1.00
H118   H     0.12535   0.58050   0.64664   0.00000  Uiso   1.00
H119   H     0.12249   0.56623   0.83160   0.00000  Uiso   1.00
H120   H     0.50837   0.59456   0.08536   0.00000  Uiso   1.00
H121   H     0.04888   0.54114   0.47278   0.00000  Uiso   1.00
H122   H     0.04283   0.51104   0.86279   0.00000  Uiso   1.00
H123   H     0.22812   0.21941   0.82448   0.00000  Uiso   1.00
H124   H     0.37517   0.23131   0.95701   0.00000  Uiso   1.00
H125   H     0.15726   0.20598   0.66649   0.00000  Uiso   1.00
H126   H     0.15440   0.19171   0.85145   0.00000  Uiso   1.00
H127   H     0.53427   0.29058   0.10147   0.00000  Uiso   1.00
H128   H     0.07477   0.23716   0.48889   0.00000  Uiso   1.00
H129   H     0.06873   0.20706   0.87890   0.00000  Uiso   1.00
O130   O     0.61750   0.45681   0.18024   0.00000  Uiso   1.00
O131   O     0.01466   0.38672   0.37655   0.00000  Uiso   1.00
O132   O     0.00674   0.34724   0.88824   0.00000  Uiso   1.00
N133   N     0.49428   0.52138   0.07098   0.00000  Uiso   1.00
N134   N     0.06470   0.47144   0.49825   0.00000  Uiso   1.00
N135   N     0.05903   0.44330   0.86286   0.00000  Uiso   1.00
N136   N     0.50822   0.35782   0.07965   0.00000  Uiso   1.00
N137   N     0.07863   0.30787   0.50693   0.00000  Uiso   1.00
N138   N     0.07297   0.27973   0.87153   0.00000  Uiso   1.00
C139   C     0.70481   0.99311   0.80998   0.00000  Uiso   1.00
C140   C     0.78799   0.96093   0.88404   0.00000  Uiso   1.00
C141   C     0.85017   0.02498   0.94147   0.00000  Uiso   1.00
C142   C     0.92165   0.98081   0.00471   0.00000  Uiso   1.00
C143   C     0.04946   0.94674   0.11883   0.00000  Uiso   1.00
C144   C     0.66961   0.94716   0.72620   0.00000  Uiso   1.00
C145   C     0.63224   0.99965   0.65091   0.00000  Uiso   1.00
C146   C     0.60406   0.94389   0.58127   0.00000  Uiso   1.00
C147   C     0.54802   0.88844   0.45031   0.00000  Uiso   1.00
C148   C     0.66806   0.93941   0.82669   0.00000  Uiso   1.00
C149   C     0.62936   0.98537   0.83588   0.00000  Uiso   1.00
C150   C     0.59986   0.92308   0.85084   0.00000  Uiso   1.00
C151   C     0.54142   0.85560   0.87592   0.00000  Uiso   1.00
C152   C     0.72119   0.80075   0.82018   0.00000  Uiso   1.00
C153   C     0.79689   0.85645   0.88957   0.00000  Uiso   1.00
C154   C     0.86830   0.81217   0.95275   0.00000  Uiso   1.00
C155   C     0.93057   0.87615   0.01026   0.00000  Uiso   1.00
C156   C     0.67850   0.84269   0.73173   0.00000  Uiso   1.00
C157   C     0.65037   0.78683   0.66219   0.00000  Uiso   1.00
C158   C     0.61297   0.83922   0.58682   0.00000  Uiso   1.00
C159   C     0.67696   0.83493   0.83223   0.00000  Uiso   1.00
C160   C     0.64750   0.77255   0.84717   0.00000  Uiso   1.00
C161   C     0.60878   0.81841   0.85639   0.00000  Uiso   1.00
H162   H     0.69788   0.07445   0.80567   0.00000  Uiso   1.00
H163   H     0.84326   0.10584   0.93716   0.00000  Uiso   1.00
H164   H     0.62535   0.08050   0.64664   0.00000  Uiso   1.00
H165   H     0.62249   0.06623   0.83160   0.00000  Uiso   1.00
H166   H     0.00837   0.09456   0.08536   0.00000  Uiso   1.00
H167   H     0.54888   0.04114   0.47278   0.00000  Uiso   1.00
H168   H     0.54283   0.01104   0.86279   0.00000  Uiso   1.00
H169   H     0.72812   0.71941   0.82448   0.00000  Uiso   1.00
H170   H     0.87517   0.73131   0.95701   0.00000  Uiso   1.00
H171   H     0.65726   0.70598   0.66649   0.00000  Uiso   1.00
H172   H     0.65440   0.69171   0.85145   0.00000  Uiso   1.00
H173   H     0.03427   0.79058   0.10147   0.00000  Uiso   1.00
H174   H     0.57477   0.73716   0.48889   0.00000  Uiso   1.00
H175   H     0.56873   0.70706   0.87890   0.00000  Uiso   1.00
O176   O     0.11750   0.95681   0.18024   0.00000  Uiso   1.00
O177   O     0.51466   0.88672   0.37655   0.00000  Uiso   1.00
O178   O     0.50674   0.84724   0.88824   0.00000  Uiso   1.00
N179   N     0.99428   0.02138   0.07098   0.00000  Uiso   1.00
N180   N     0.56470   0.97144   0.49825   0.00000  Uiso   1.00
N181   N     0.55903   0.94330   0.86286   0.00000  Uiso   1.00
N182   N     0.00822   0.85782   0.07965   0.00000  Uiso   1.00
N183   N     0.57863   0.80787   0.50693   0.00000  Uiso   1.00
N184   N     0.57297   0.77973   0.87153   0.00000  Uiso   1.00
C185   C     0.20481   0.50689   0.30998   0.00000  Uiso   1.00
C186   C     0.28799   0.53907   0.38404   0.00000  Uiso   1.00
C187   C     0.35017   0.47502   0.44147   0.00000  Uiso   1.00
C188   C     0.42165   0.51919   0.50471   0.00000  Uiso   1.00
C189   C     0.54946   0.55326   0.61883   0.00000  Uiso   1.00
C190   C     0.16961   0.55284   0.22620   0.00000  Uiso   1.00
C191   C     0.13224   0.50035   0.15091   0.00000  Uiso   1.00
C192   C     0.10406   0.55611   0.08127   0.00000  Uiso   1.00
C193   C     0.04802   0.61156   0.95031   0.00000  Uiso   1.00
C194   C     0.16806   0.56059   0.32669   0.00000  Uiso   1.00
C195   C     0.12936   0.51463   0.33588   0.00000  Uiso   1.00
C196   C     0.09986   0.57692   0.35084   0.00000  Uiso   1.00
C197   C     0.04142   0.64440   0.37592   0.00000  Uiso   1.00
C198   C     0.22119   0.69925   0.32018   0.00000  Uiso   1.00
C199   C     0.29689   0.64355   0.38957   0.00000  Uiso   1.00
C200   C     0.36830   0.68783   0.45275   0.00000  Uiso   1.00
C201   C     0.43057   0.62385   0.51026   0.00000  Uiso   1.00
C202   C     0.17850   0.65731   0.23173   0.00000  Uiso   1.00
C203   C     0.15037   0.71317   0.16219   0.00000  Uiso   1.00
C204   C     0.11297   0.66078   0.08682   0.00000  Uiso   1.00
C205   C     0.17696   0.66507   0.33223   0.00000  Uiso   1.00
C206   C     0.14750   0.72745   0.34717   0.00000  Uiso   1.00
C207   C     0.10878   0.68159   0.35639   0.00000  Uiso   1.00
H208   H     0.19788   0.42555   0.30567   0.00000  Uiso   1.00
H209   H     0.34326   0.39416   0.43716   0.00000  Uiso   1.00
H210   H     0.12535   0.41950   0.14664   0.00000  Uiso   1.00
H211   H     0.12249   0.43377   0.33160   0.00000  Uiso   1.00
H212   H     0.50837   0.40544   0.58536   0.00000  Uiso   1.00
H213   H     0.04888   0.45886   0.97278   0.00000  Uiso   1.00
H214   H     0.04283   0.48896   0.36279   0.00000  Uiso   1.00
H215   H     0.22812   0.78059   0.32448   0.00000  Uiso   1.00
H216   H     0.37517   0.76869   0.45701   0.00000  Uiso   1.00
H217   H     0.15726   0.79402   0.16649   0.00000  Uiso   1.00
H218   H     0.15440   0.80829   0.35145   0.00000  Uiso   1.00
H219   H     0.53427   0.70942   0.60147   0.00000  Uiso   1.00
H220   H     0.07477   0.76284   0.98889   0.00000  Uiso   1.00
H221   H     0.06873   0.79294   0.37890   0.00000  Uiso   1.00
O222   O     0.61750   0.54319   0.68024   0.00000  Uiso   1.00
O223   O     0.01466   0.61328   0.87655   0.00000  Uiso   1.00
O224   O     0.00674   0.65276   0.38824   0.00000  Uiso   1.00
N225   N     0.49428   0.47862   0.57098   0.00000  Uiso   1.00
N226   N     0.06470   0.52856   0.99825   0.00000  Uiso   1.00
N227   N     0.05903   0.55670   0.36286   0.00000  Uiso   1.00
N228   N     0.50822   0.64218   0.57965   0.00000  Uiso   1.00
N229   N     0.07863   0.69213   0.00693   0.00000  Uiso   1.00
N230   N     0.07297   0.72027   0.37153   0.00000  Uiso   1.00
C231   C     0.70481   0.00689   0.30998   0.00000  Uiso   1.00
C232   C     0.78799   0.03907   0.38404   0.00000  Uiso   1.00
C233   C     0.85017   0.97502   0.44147   0.00000  Uiso   1.00
C234   C     0.92165   0.01919   0.50471   0.00000  Uiso   1.00
C235   C     0.04946   0.05326   0.61883   0.00000  Uiso   1.00
C236   C     0.66961   0.05284   0.22620   0.00000  Uiso   1.00
C237   C     0.63224   0.00035   0.15091   0.00000  Uiso   1.00
C238   C     0.60406   0.05611   0.08127   0.00000  Uiso   1.00
C239   C     0.54802   0.11156   0.95031   0.00000  Uiso   1.00
C240   C     0.66806   0.06059   0.32669   0.00000  Uiso   1.00
C241   C     0.62936   0.01463   0.33588   0.00000  Uiso   1.00
C242   C     0.59986   0.07692   0.35084   0.00000  Uiso   1.00
C243   C     0.54142   0.14440   0.37592   0.00000  Uiso   1.00
C244   C     0.72119   0.19925   0.32018   0.00000  Uiso   1.00
C245   C     0.79689   0.14355   0.38957   0.00000  Uiso   1.00
C246   C     0.86830   0.18783   0.45275   0.00000  Uiso   1.00
C247   C     0.93057   0.12385   0.51026   0.00000  Uiso   1.00
C248   C     0.67850   0.15731   0.23173   0.00000  Uiso   1.00
C249   C     0.65037   0.21317   0.16219   0.00000  Uiso   1.00
C250   C     0.61297   0.16078   0.08682   0.00000  Uiso   1.00
C251   C     0.67696   0.16507   0.33223   0.00000  Uiso   1.00
C252   C     0.64750   0.22745   0.34717   0.00000  Uiso   1.00
C253   C     0.60878   0.18159   0.35639   0.00000  Uiso   1.00
H254   H     0.69788   0.92555   0.30567   0.00000  Uiso   1.00
H255   H     0.84326   0.89416   0.43716   0.00000  Uiso   1.00
H256   H     0.62535   0.91950   0.14664   0.00000  Uiso   1.00
H257   H     0.62249   0.93377   0.33160   0.00000  Uiso   1.00
H258   H     0.00837   0.90544   0.58536   0.00000  Uiso   1.00
H259   H     0.54888   0.95886   0.97278   0.00000  Uiso   1.00
H260   H     0.54283   0.98896   0.36279   0.00000  Uiso   1.00
H261   H     0.72812   0.28059   0.32448   0.00000  Uiso   1.00
H262   H     0.87517   0.26869   0.45701   0.00000  Uiso   1.00
H263   H     0.65726   0.29402   0.16649   0.00000  Uiso   1.00
H264   H     0.65440   0.30829   0.35145   0.00000  Uiso   1.00
H265   H     0.03427   0.20942   0.60147   0.00000  Uiso   1.00
H266   H     0.57477   0.26284   0.98889   0.00000  Uiso   1.00
H267   H     0.56873   0.29294   0.37890   0.00000  Uiso   1.00
O268   O     0.11750   0.04319   0.68024   0.00000  Uiso   1.00
O269   O     0.51466   0.11328   0.87655   0.00000  Uiso   1.00
O270   O     0.50674   0.15276   0.38824   0.00000  Uiso   1.00
N271   N     0.99428   0.97862   0.57098   0.00000  Uiso   1.00
N272   N     0.56470   0.02856   0.99825   0.00000  Uiso   1.00
N273   N     0.55903   0.05670   0.36286   0.00000  Uiso   1.00
N274   N     0.00822   0.14218   0.57965   0.00000  Uiso   1.00
N275   N     0.57863   0.19213   0.00693   0.00000  Uiso   1.00
N276   N     0.57297   0.22027   0.37153   0.00000  Uiso   1.00
C277   C     0.79519   0.50689   0.19002   0.00000  Uiso   1.00
C278   C     0.71201   0.53907   0.11596   0.00000  Uiso   1.00
C279   C     0.64983   0.47502   0.05853   0.00000  Uiso   1.00
C280   C     0.57835   0.51919   0.99529   0.00000  Uiso   1.00
C281   C     0.45054   0.55326   0.88117   0.00000  Uiso   1.00
C282   C     0.83039   0.55284   0.27380   0.00000  Uiso   1.00
C283   C     0.86776   0.50035   0.34909   0.00000  Uiso   1.00
C284   C     0.89594   0.55611   0.41873   0.00000  Uiso   1.00
C285   C     0.95198   0.61156   0.54969   0.00000  Uiso   1.00
C286   C     0.83194   0.56059   0.17331   0.00000  Uiso   1.00
C287   C     0.87064   0.51463   0.16412   0.00000  Uiso   1.00
C288   C     0.90014   0.57692   0.14916   0.00000  Uiso   1.00
C289   C     0.95858   0.64440   0.12408   0.00000  Uiso   1.00
C290   C     0.77881   0.69925   0.17982   0.00000  Uiso   1.00
C291   C     0.70311   0.64355   0.11043   0.00000  Uiso   1.00
C292   C     0.63170   0.68783   0.04725   0.00000  Uiso   1.00
C293   C     0.56943   0.62385   0.98974   0.00000  Uiso   1.00
C294   C     0.82150   0.65731   0.26827   0.00000  Uiso   1.00
C295   C     0.84963   0.71317   0.33781   0.00000  Uiso   1.00
C296   C     0.88703   0.66078   0.41318   0.00000  Uiso   1.00
C297   C     0.82304   0.66507   0.16777   0.00000  Uiso   1.00
C298   C     0.85250   0.72745   0.15283   0.00000  Uiso   1.00
C299   C     0.89122   0.68159   0.14361   0.00000  Uiso   1.00
H300   H     0.80212   0.42555   0.19433   0.00000  Uiso   1.00
H301   H     0.65674   0.39416   0.06284   0.00000  Uiso   1.00
H302   H     0.87465   0.41950   0.35336   0.00000  Uiso   1.00
H303   H     0.87751   0.43377   0.16840   0.00000  Uiso   1.00
H304   H     0.49163   0.40544   0.91464   0.00000  Uiso   1.00
H305   H     0.95112   0.45886   0.52722   0.00000  Uiso   1.00
H306   H     0.95717   0.48896   0.13721   0.00000  Uiso   1.00
H307   H     0.77188   0.78059   0.17552   0.00000  Uiso   1.00
H308   H     0.62483   0.76869   0.04299   0.00000  Uiso   1.00
H309   H     0.84274   0.79402   0.33351   0.00000  Uiso   1.00
H310   H     0.84560   0.80829   0.14855   0.00000  Uiso   1.00
H311   H     0.46573   0.70942   0.89853   0.00000  Uiso   1.00
H312   H     0.92523   0.76284   0.51111   0.00000  Uiso   1.00
H313   H     0.93127   0.79294   0.12110   0.00000  Uiso   1.00
O314   O     0.38250   0.54319   0.81976   0.00000  Uiso   1.00
O315   O     0.98534   0.61328   0.62345   0.00000  Uiso   1.00
O316   O     0.99326   0.65276   0.11176   0.00000  Uiso   1.00
N317   N     0.50572   0.47862   0.92902   0.00000  Uiso   1.00
N318   N     0.93530   0.52856   0.50175   0.00000  Uiso   1.00
N319   N     0.94097   0.55670   0.13714   0.00000  Uiso   1.00
N320   N     0.49178   0.64218   0.92035   0.00000  Uiso   1.00
N321   N     0.92137   0.69213   0.49307   0.00000  Uiso   1.00
N322   N     0.92703   0.72027   0.12847   0.00000  Uiso   1.00
C323   C     0.29519   0.00689   0.19002   0.00000  Uiso   1.00
C324   C     0.21201   0.03907   0.11596   0.00000  Uiso   1.00
C325   C     0.14983   0.97502   0.05853   0.00000  Uiso   1.00
C326   C     0.07835   0.01919   0.99529   0.00000  Uiso   1.00
C327   C     0.95054   0.05326   0.88117   0.00000  Uiso   1.00
C328   C     0.33039   0.05284   0.27380   0.00000  Uiso   1.00
C329   C     0.36776   0.00035   0.34909   0.00000  Uiso   1.00
C330   C     0.39594   0.05611   0.41873   0.00000  Uiso   1.00
C331   C     0.45198   0.11156   0.54969   0.00000  Uiso   1.00
C332   C     0.33194   0.06059   0.17331   0.00000  Uiso   1.00
C333   C     0.37064   0.01463   0.16412   0.00000  Uiso   1.00
C334   C     0.40014   0.07692   0.14916   0.00000  Uiso   1.00
C335   C     0.45858   0.14440   0.12408   0.00000  Uiso   1.00
C336   C     0.27881   0.19925   0.17982   0.00000  Uiso   1.00
C337   C     0.20311   0.14355   0.11043   0.00000  Uiso   1.00
C338   C     0.13170   0.18783   0.04725   0.00000  Uiso   1.00
C339   C     0.06943   0.12385   0.98974   0.00000  Uiso   1.00
C340   C     0.32150   0.15731   0.26827   0.00000  Uiso   1.00
C341   C     0.34963   0.21317   0.33781   0.00000  Uiso   1.00
C342   C     0.38703   0.16078   0.41318   0.00000  Uiso   1.00
C343   C     0.32304   0.16507   0.16777   0.00000  Uiso   1.00
C344   C     0.35250   0.22745   0.15283   0.00000  Uiso   1.00
C345   C     0.39122   0.18159   0.14361   0.00000  Uiso   1.00
H346   H     0.30212   0.92555   0.19433   0.00000  Uiso   1.00
H347   H     0.15674   0.89416   0.06284   0.00000  Uiso   1.00
H348   H     0.37465   0.91950   0.35336   0.00000  Uiso   1.00
H349   H     0.37751   0.93377   0.16840   0.00000  Uiso   1.00
H350   H     0.99163   0.90544   0.91464   0.00000  Uiso   1.00
H351   H     0.45112   0.95886   0.52722   0.00000  Uiso   1.00
H352   H     0.45717   0.98896   0.13721   0.00000  Uiso   1.00
H353   H     0.27188   0.28059   0.17552   0.00000  Uiso   1.00
H354   H     0.12483   0.26869   0.04299   0.00000  Uiso   1.00
H355   H     0.34274   0.29402   0.33351   0.00000  Uiso   1.00
H356   H     0.34560   0.30829   0.14855   0.00000  Uiso   1.00
H357   H     0.96573   0.20942   0.89853   0.00000  Uiso   1.00
H358   H     0.42523   0.26284   0.51111   0.00000  Uiso   1.00
H359   H     0.43127   0.29294   0.12110   0.00000  Uiso   1.00
O360   O     0.88250   0.04319   0.81976   0.00000  Uiso   1.00
O361   O     0.48534   0.11328   0.62345   0.00000  Uiso   1.00
O362   O     0.49326   0.15276   0.11176   0.00000  Uiso   1.00
N363   N     0.00572   0.97862   0.92902   0.00000  Uiso   1.00
N364   N     0.43530   0.02856   0.50175   0.00000  Uiso   1.00
N365   N     0.44097   0.05670   0.13714   0.00000  Uiso   1.00
N366   N     0.99178   0.14218   0.92035   0.00000  Uiso   1.00
N367   N     0.42137   0.19213   0.49307   0.00000  Uiso   1.00
N368   N     0.42703   0.22027   0.12847   0.00000  Uiso   1.00
