data_job_06845
_audit_creation_date              2018-12-19
_audit_creation_method            'Materials Studio'
_symmetry_space_group_name_H-M    'P1'
_symmetry_Int_Tables_number       1
_symmetry_cell_setting            triclinic
loop_
_symmetry_equiv_pos_as_xyz
  x,y,z
_cell_length_a                    21.2029
_cell_length_b                    21.6587
_cell_length_c                    21.8608
_cell_angle_alpha                 96.9384
_cell_angle_beta                  118.1938
_cell_angle_gamma                 66.8054
loop_
_atom_site_label
_atom_site_type_symbol
_atom_site_fract_x
_atom_site_fract_y
_atom_site_fract_z
_atom_site_U_iso_or_equiv
_atom_site_adp_type
_atom_site_occupancy
C1     C     0.89717   0.83607   0.47206   0.00000  Uiso   1.00
C2     C     0.81104   0.87375   0.42396   0.00000  Uiso   1.00
C3     C     0.77641   0.88274   0.35193   0.00000  Uiso   1.00
C4     C     0.69682   0.91872   0.31736   0.00000  Uiso   1.00
C5     C     0.56968   0.97330   0.23718   0.00000  Uiso   1.00
C6     C     0.92336   0.88581   0.52360   0.00000  Uiso   1.00
C7     C     0.98318   0.90492   0.53535   0.00000  Uiso   1.00
C8     C     0.99814   0.95106   0.58467   0.00000  Uiso   1.00
C9     C     0.04543   0.02431   0.65921   0.00000  Uiso   1.00
C10    C     0.90244   0.78150   0.51433   0.00000  Uiso   1.00
C11    C     0.94468   0.71292   0.51829   0.00000  Uiso   1.00
C12    C     0.94205   0.67124   0.55981   0.00000  Uiso   1.00
C13    C     0.95684   0.58255   0.61995   0.00000  Uiso   1.00
C14    C     0.81740   0.88400   0.53878   0.00000  Uiso   1.00
C15    C     0.76771   0.89978   0.46021   0.00000  Uiso   1.00
C16    C     0.68815   0.93577   0.42574   0.00000  Uiso   1.00
C17    C     0.65341   0.94480   0.35367   0.00000  Uiso   1.00
C18    C     0.88004   0.91184   0.55984   0.00000  Uiso   1.00
C19    C     0.89492   0.95795   0.60916   0.00000  Uiso   1.00
C20    C     0.95474   0.97714   0.62097   0.00000  Uiso   1.00
C21    C     0.85911   0.80754   0.55056   0.00000  Uiso   1.00
C22    C     0.85642   0.76595   0.59210   0.00000  Uiso   1.00
C23    C     0.89864   0.69732   0.59612   0.00000  Uiso   1.00
H24    H     0.93090   0.81580   0.44385   0.00000  Uiso   1.00
H25    H     0.80996   0.86259   0.32390   0.00000  Uiso   1.00
H26    H     0.01670   0.88476   0.50730   0.00000  Uiso   1.00
H27    H     0.97820   0.69279   0.49023   0.00000  Uiso   1.00
H28    H     0.65677   0.92596   0.20690   0.00000  Uiso   1.00
H29    H     0.09271   0.97270   0.59362   0.00000  Uiso   1.00
H30    H     0.01153   0.56789   0.55764   0.00000  Uiso   1.00
H31    H     0.78367   0.90427   0.56699   0.00000  Uiso   1.00
H32    H     0.65464   0.95591   0.45380   0.00000  Uiso   1.00
H33    H     0.86138   0.97809   0.63720   0.00000  Uiso   1.00
H34    H     0.82289   0.78611   0.62013   0.00000  Uiso   1.00
H35    H     0.53071   0.00170   0.31233   0.00000  Uiso   1.00
H36    H     0.96665   0.04844   0.69906   0.00000  Uiso   1.00
H37    H     0.88547   0.64363   0.66308   0.00000  Uiso   1.00
O38    O     0.51152   0.99622   0.18294   0.00000  Uiso   1.00
O39    O     0.08347   0.05754   0.69031   0.00000  Uiso   1.00
O40    O     0.97696   0.52643   0.64310   0.00000  Uiso   1.00
N41    N     0.64480   0.93668   0.24725   0.00000  Uiso   1.00
N42    N     0.05238   0.98040   0.60880   0.00000  Uiso   1.00
N43    N     0.97650   0.60193   0.57518   0.00000  Uiso   1.00
N44    N     0.57697   0.97744   0.30398   0.00000  Uiso   1.00
N45    N     0.98454   0.02115   0.66553   0.00000  Uiso   1.00
N46    N     0.90867   0.64269   0.63191   0.00000  Uiso   1.00
C47    C     0.66739   0.45415   0.35746   0.00000  Uiso   1.00
C48    C     0.65944   0.40611   0.29969   0.00000  Uiso   1.00
C49    C     0.60776   0.42387   0.22948   0.00000  Uiso   1.00
C50    C     0.60949   0.37252   0.18490   0.00000  Uiso   1.00
C51    C     0.58927   0.30807   0.09143   0.00000  Uiso   1.00
C52    C     0.65578   0.42592   0.41028   0.00000  Uiso   1.00
C53    C     0.60104   0.46035   0.43306   0.00000  Uiso   1.00
C54    C     0.59970   0.42568   0.48159   0.00000  Uiso   1.00
C55    C     0.57384   0.39201   0.55985   0.00000  Uiso   1.00
C56    C     0.75203   0.44627   0.39371   0.00000  Uiso   1.00
C57    C     0.77821   0.49781   0.40258   0.00000  Uiso   1.00
C58    C     0.85791   0.48027   0.43718   0.00000  Uiso   1.00
C59    C     0.98148   0.47819   0.48972   0.00000  Uiso   1.00
C60    C     0.76236   0.33136   0.40315   0.00000  Uiso   1.00
C61    C     0.71102   0.33941   0.32451   0.00000  Uiso   1.00
C62    C     0.71284   0.28803   0.28002   0.00000  Uiso   1.00
C63    C     0.66117   0.30571   0.20976   0.00000  Uiso   1.00
C64    C     0.70737   0.35923   0.43510   0.00000  Uiso   1.00
C65    C     0.70611   0.32450   0.48361   0.00000  Uiso   1.00
C66    C     0.65138   0.35887   0.50645   0.00000  Uiso   1.00
C67    C     0.80362   0.37957   0.41853   0.00000  Uiso   1.00
C68    C     0.88329   0.36196   0.45312   0.00000  Uiso   1.00
C69    C     0.90958   0.41346   0.46204   0.00000  Uiso   1.00
H70    H     0.62723   0.50607   0.33814   0.00000  Uiso   1.00
H71    H     0.56784   0.47549   0.21030   0.00000  Uiso   1.00
H72    H     0.56113   0.51196   0.41385   0.00000  Uiso   1.00
H73    H     0.73827   0.54941   0.38337   0.00000  Uiso   1.00
H74    H     0.52474   0.41217   0.07950   0.00000  Uiso   1.00
H75    H     0.51059   0.48909   0.50873   0.00000  Uiso   1.00
H76    H     0.88414   0.56806   0.44446   0.00000  Uiso   1.00
H77    H     0.80253   0.27944   0.42247   0.00000  Uiso   1.00
H78    H     0.75276   0.23642   0.29924   0.00000  Uiso   1.00
H79    H     0.74604   0.27290   0.50280   0.00000  Uiso   1.00
H80    H     0.92319   0.31034   0.47232   0.00000  Uiso   1.00
H81    H     0.67482   0.21813   0.15169   0.00000  Uiso   1.00
H82    H     0.66068   0.29505   0.58093   0.00000  Uiso   1.00
H83    H     0.03422   0.37402   0.51665   0.00000  Uiso   1.00
O84    O     0.56386   0.29094   0.03302   0.00000  Uiso   1.00
O85    O     0.54531   0.39186   0.59616   0.00000  Uiso   1.00
O86    O     0.03539   0.49546   0.51184   0.00000  Uiso   1.00
N87    N     0.56690   0.37241   0.11340   0.00000  Uiso   1.00
N88    N     0.55367   0.44432   0.51470   0.00000  Uiso   1.00
N89    N     0.90290   0.51815   0.45463   0.00000  Uiso   1.00
N90    N     0.64766   0.26800   0.15225   0.00000  Uiso   1.00
N91    N     0.63443   0.33991   0.55354   0.00000  Uiso   1.00
N92    N     0.98366   0.41374   0.49347   0.00000  Uiso   1.00
C93    C     0.35448   0.06479   0.39031   0.00000  Uiso   1.00
C94    C     0.36591   0.09463   0.33839   0.00000  Uiso   1.00
C95    C     0.33577   0.08628   0.26758   0.00000  Uiso   1.00
C96    C     0.35286   0.11767   0.22897   0.00000  Uiso   1.00
C97    C     0.36371   0.15815   0.14362   0.00000  Uiso   1.00
C98    C     0.43558   0.02390   0.44684   0.00000  Uiso   1.00
C99    C     0.46402   0.95608   0.46722   0.00000  Uiso   1.00
C100   C     0.53976   0.92792   0.51990   0.00000  Uiso   1.00
C101   C     0.65875   0.85860   0.60296   0.00000  Uiso   1.00
C102   C     0.31947   0.12419   0.42499   0.00000  Uiso   1.00
C103   C     0.25028   0.14070   0.42702   0.00000  Uiso   1.00
C104   C     0.22827   0.19698   0.46133   0.00000  Uiso   1.00
C105   C     0.16697   0.28338   0.51046   0.00000  Uiso   1.00
C106   C     0.43841   0.13537   0.44765   0.00000  Uiso   1.00
C107   C     0.41150   0.13297   0.36954   0.00000  Uiso   1.00
C108   C     0.42863   0.16438   0.33102   0.00000  Uiso   1.00
C109   C     0.39853   0.15608   0.26016   0.00000  Uiso   1.00
C110   C     0.48117   0.06223   0.47798   0.00000  Uiso   1.00
C111   C     0.55688   0.03417   0.53065   0.00000  Uiso   1.00
C112   C     0.58543   0.96633   0.55110   0.00000  Uiso   1.00
C113   C     0.36505   0.16253   0.45614   0.00000  Uiso   1.00
C114   C     0.34314   0.21879   0.49045   0.00000  Uiso   1.00
C115   C     0.27394   0.23538   0.49253   0.00000  Uiso   1.00
H116   H     0.31899   0.03493   0.36607   0.00000  Uiso   1.00
H117   H     0.30050   0.05661   0.24350   0.00000  Uiso   1.00
H118   H     0.42872   0.92643   0.44311   0.00000  Uiso   1.00
H119   H     0.21502   0.11102   0.40291   0.00000  Uiso   1.00
H120   H     0.30013   0.09752   0.12135   0.00000  Uiso   1.00
H121   H     0.57049   0.82303   0.54226   0.00000  Uiso   1.00
H122   H     0.11985   0.21228   0.45750   0.00000  Uiso   1.00
H123   H     0.47390   0.16522   0.47190   0.00000  Uiso   1.00
H124   H     0.46392   0.19404   0.35513   0.00000  Uiso   1.00
H125   H     0.59214   0.06386   0.55474   0.00000  Uiso   1.00
H126   H     0.37844   0.24845   0.51455   0.00000  Uiso   1.00
H127   H     0.43277   0.20907   0.21196   0.00000  Uiso   1.00
H128   H     0.70313   0.93458   0.63287   0.00000  Uiso   1.00
H129   H     0.25249   0.32382   0.54810   0.00000  Uiso   1.00
O130   O     0.35711   0.16988   0.08794   0.00000  Uiso   1.00
O131   O     0.71180   0.80977   0.64016   0.00000  Uiso   1.00
O132   O     0.12057   0.32045   0.52895   0.00000  Uiso   1.00
N133   N     0.33271   0.11983   0.15870   0.00000  Uiso   1.00
N134   N     0.58548   0.86319   0.55221   0.00000  Uiso   1.00
N135   N     0.16418   0.22710   0.47298   0.00000  Uiso   1.00
N136   N     0.40408   0.17985   0.20745   0.00000  Uiso   1.00
N137   N     0.65685   0.92322   0.60096   0.00000  Uiso   1.00
N138   N     0.23555   0.28712   0.52174   0.00000  Uiso   1.00
C139   C     0.24153   0.92478   0.84358   0.00000  Uiso   1.00
C140   C     0.24119   0.87499   0.78790   0.00000  Uiso   1.00
C141   C     0.23528   0.88755   0.72424   0.00000  Uiso   1.00
C142   C     0.23607   0.83542   0.68053   0.00000  Uiso   1.00
C143   C     0.23460   0.76760   0.59114   0.00000  Uiso   1.00
C144   C     0.31614   0.89015   0.90983   0.00000  Uiso   1.00
C145   C     0.37322   0.91547   0.94870   0.00000  Uiso   1.00
C146   C     0.43709   0.87612   0.00763   0.00000  Uiso   1.00
C147   C     0.55195   0.83186   0.10758   0.00000  Uiso   1.00
C148   C     0.17543   0.93045   0.85739   0.00000  Uiso   1.00
C149   C     0.11423   0.98965   0.85218   0.00000  Uiso   1.00
C150   C     0.05964   0.98422   0.86697   0.00000  Uiso   1.00
C151   C     0.95604   0.00252   0.88549   0.00000  Uiso   1.00
C152   C     0.25345   0.80988   0.87914   0.00000  Uiso   1.00
C153   C     0.24767   0.81258   0.80722   0.00000  Uiso   1.00
C154   C     0.24847   0.76042   0.76358   0.00000  Uiso   1.00
C155   C     0.24255   0.77290   0.69987   0.00000  Uiso   1.00
C156   C     0.32261   0.82775   0.92915   0.00000  Uiso   1.00
C157   C     0.38641   0.78835   0.98804   0.00000  Uiso   1.00
C158   C     0.44358   0.81359   0.02698   0.00000  Uiso   1.00
C159   C     0.18191   0.86804   0.87670   0.00000  Uiso   1.00
C160   C     0.12741   0.86252   0.89151   0.00000  Uiso   1.00
C161   C     0.06613   0.92170   0.88632   0.00000  Uiso   1.00
H162   H     0.23649   0.97336   0.82855   0.00000  Uiso   1.00
H163   H     0.23028   0.93585   0.70932   0.00000  Uiso   1.00
H164   H     0.36819   0.96377   0.93374   0.00000  Uiso   1.00
H165   H     0.10924   0.03793   0.83723   0.00000  Uiso   1.00
H166   H     0.22627   0.86673   0.58565   0.00000  Uiso   1.00
H167   H     0.51706   0.92561   0.05888   0.00000  Uiso   1.00
H168   H     0.97100   0.08200   0.85537   0.00000  Uiso   1.00
H169   H     0.25849   0.76129   0.89418   0.00000  Uiso   1.00
H170   H     0.25348   0.71213   0.77855   0.00000  Uiso   1.00
H171   H     0.39140   0.74005   0.00297   0.00000  Uiso   1.00
H172   H     0.13244   0.81421   0.90646   0.00000  Uiso   1.00
H173   H     0.24510   0.68515   0.64184   0.00000  Uiso   1.00
H174   H     0.53590   0.74403   0.11507   0.00000  Uiso   1.00
H175   H     0.98983   0.90042   0.91156   0.00000  Uiso   1.00
O176   O     0.23202   0.74742   0.53651   0.00000  Uiso   1.00
O177   O     0.61352   0.82468   0.15737   0.00000  Uiso   1.00
O178   O     0.89710   0.02985   0.89036   0.00000  Uiso   1.00
N179   N     0.23137   0.83074   0.61474   0.00000  Uiso   1.00
N180   N     0.50325   0.88579   0.05717   0.00000  Uiso   1.00
N181   N     0.99274   0.03200   0.86692   0.00000  Uiso   1.00
N182   N     0.24151   0.73304   0.64498   0.00000  Uiso   1.00
N183   N     0.51339   0.78809   0.08741   0.00000  Uiso   1.00
N184   N     0.00287   0.93429   0.89716   0.00000  Uiso   1.00
C185   C     0.90901   0.60549   0.91436   0.00000  Uiso   1.00
C186   C     0.83017   0.66398   0.88529   0.00000  Uiso   1.00
C187   C     0.78271   0.68823   0.81585   0.00000  Uiso   1.00
C188   C     0.71280   0.74213   0.79981   0.00000  Uiso   1.00
C189   C     0.59365   0.82857   0.74681   0.00000  Uiso   1.00
C190   C     0.90340   0.55514   0.95275   0.00000  Uiso   1.00
C191   C     0.91753   0.48788   0.94003   0.00000  Uiso   1.00
C192   C     0.90927   0.45016   0.98078   0.00000  Uiso   1.00
C193   C     0.90387   0.36762   0.03256   0.00000  Uiso   1.00
C194   C     0.96621   0.63340   0.97014   0.00000  Uiso   1.00
C195   C     0.03316   0.63193   0.97206   0.00000  Uiso   1.00
C196   C     0.07779   0.66009   0.02747   0.00000  Uiso   1.00
C197   C     0.16991   0.69906   0.10625   0.00000  Uiso   1.00
C198   C     0.86926   0.65809   0.00936   0.00000  Uiso   1.00
C199   C     0.80858   0.69254   0.93689   0.00000  Uiso   1.00
C200   C     0.73873   0.74642   0.92095   0.00000  Uiso   1.00
C201   C     0.69117   0.77075   0.85150   0.00000  Uiso   1.00
C202   C     0.88181   0.58370   0.00435   0.00000  Uiso   1.00
C203   C     0.87354   0.54607   0.04513   0.00000  Uiso   1.00
C204   C     0.88764   0.47878   0.03248   0.00000  Uiso   1.00
C205   C     0.94462   0.66197   0.02174   0.00000  Uiso   1.00
C206   C     0.98917   0.69013   0.07717   0.00000  Uiso   1.00
C207   C     0.05616   0.68871   0.07917   0.00000  Uiso   1.00
H208   H     0.92583   0.58325   0.87419   0.00000  Uiso   1.00
H209   H     0.79944   0.66610   0.77593   0.00000  Uiso   1.00
H210   H     0.93425   0.46579   0.90010   0.00000  Uiso   1.00
H211   H     0.04985   0.60982   0.93212   0.00000  Uiso   1.00
H212   H     0.64979   0.77055   0.68974   0.00000  Uiso   1.00
H213   H     0.93405   0.34817   0.95157   0.00000  Uiso   1.00
H214   H     0.17783   0.65189   0.01911   0.00000  Uiso   1.00
H215   H     0.85244   0.68033   0.04954   0.00000  Uiso   1.00
H216   H     0.72203   0.76851   0.96090   0.00000  Uiso   1.00
H217   H     0.85683   0.56819   0.08506   0.00000  Uiso   1.00
H218   H     0.97244   0.71223   0.11709   0.00000  Uiso   1.00
H219   H     0.58695   0.85366   0.83987   0.00000  Uiso   1.00
H220   H     0.87122   0.43128   0.10170   0.00000  Uiso   1.00
H221   H     0.11500   0.73500   0.16924   0.00000  Uiso   1.00
O222   O     0.53389   0.86835   0.70333   0.00000  Uiso   1.00
O223   O     0.90685   0.31420   0.04685   0.00000  Uiso   1.00
O224   O     0.22668   0.71268   0.13545   0.00000  Uiso   1.00
N225   N     0.65290   0.77801   0.73724   0.00000  Uiso   1.00
N226   N     0.91866   0.38312   0.98203   0.00000  Uiso   1.00
N227   N     0.14659   0.66705   0.04518   0.00000  Uiso   1.00
N228   N     0.61909   0.82274   0.81802   0.00000  Uiso   1.00
N229   N     0.88485   0.42784   0.06281   0.00000  Uiso   1.00
N230   N     0.11278   0.71178   0.12596   0.00000  Uiso   1.00
C231   C     0.60821   0.35986   0.94076   0.00000  Uiso   1.00
C232   C     0.54812   0.36270   0.86529   0.00000  Uiso   1.00
C233   C     0.47342   0.36678   0.84309   0.00000  Uiso   1.00
C234   C     0.42735   0.36887   0.77182   0.00000  Uiso   1.00
C235   C     0.32982   0.37361   0.66184   0.00000  Uiso   1.00
C236   C     0.63237   0.41851   0.94489   0.00000  Uiso   1.00
C237   C     0.62851   0.46950   0.98962   0.00000  Uiso   1.00
C238   C     0.65339   0.51856   0.98536   0.00000  Uiso   1.00
C239   C     0.68671   0.60992   0.99898   0.00000  Uiso   1.00
C240   C     0.67911   0.29594   0.95242   0.00000  Uiso   1.00
C241   C     0.71457   0.24389   0.00349   0.00000  Uiso   1.00
C242   C     0.77881   0.18977   0.00558   0.00000  Uiso   1.00
C243   C     0.88471   0.09082   0.03089   0.00000  Uiso   1.00
C244   C     0.65925   0.35631   0.85367   0.00000  Uiso   1.00
C245   C     0.57584   0.36078   0.81799   0.00000  Uiso   1.00
C246   C     0.52988   0.36286   0.74674   0.00000  Uiso   1.00
C247   C     0.45513   0.36694   0.72444   0.00000  Uiso   1.00
C248   C     0.66009   0.41658   0.89759   0.00000  Uiso   1.00
C249   C     0.68498   0.46558   0.89327   0.00000  Uiso   1.00
C250   C     0.68116   0.51664   0.93797   0.00000  Uiso   1.00
C251   C     0.70684   0.29401   0.90511   0.00000  Uiso   1.00
C252   C     0.77104   0.23997   0.90713   0.00000  Uiso   1.00
C253   C     0.80659   0.18784   0.95819   0.00000  Uiso   1.00
H254   H     0.58663   0.36136   0.97759   0.00000  Uiso   1.00
H255   H     0.45198   0.36827   0.87972   0.00000  Uiso   1.00
H256   H     0.60706   0.47097   0.02622   0.00000  Uiso   1.00
H257   H     0.69310   0.24540   0.04008   0.00000  Uiso   1.00
H258   H     0.31492   0.37511   0.75034   0.00000  Uiso   1.00
H259   H     0.64194   0.59165   0.05928   0.00000  Uiso   1.00
H260   H     0.82338   0.11598   0.08851   0.00000  Uiso   1.00
H261   H     0.68083   0.35481   0.81684   0.00000  Uiso   1.00
H262   H     0.55135   0.36137   0.71015   0.00000  Uiso   1.00
H263   H     0.70644   0.46407   0.85666   0.00000  Uiso   1.00
H264   H     0.79248   0.23849   0.87052   0.00000  Uiso   1.00
H265   H     0.39557   0.36951   0.61271   0.00000  Uiso   1.00
H266   H     0.72260   0.58605   0.92165   0.00000  Uiso   1.00
H267   H     0.90403   0.11038   0.95088   0.00000  Uiso   1.00
O268   O     0.26836   0.37677   0.61424   0.00000  Uiso   1.00
O269   O     0.69742   0.66084   0.01956   0.00000  Uiso   1.00
O270   O     0.93545   0.03678   0.05791   0.00000  Uiso   1.00
N271   N     0.35167   0.37288   0.73259   0.00000  Uiso   1.00
N272   N     0.65741   0.57534   0.02142   0.00000  Uiso   1.00
N273   N     0.82705   0.13063   0.04877   0.00000  Uiso   1.00
N274   N     0.39507   0.36987   0.65854   0.00000  Uiso   1.00
N275   N     0.70081   0.57232   0.94737   0.00000  Uiso   1.00
N276   N     0.87045   0.12762   0.97471   0.00000  Uiso   1.00
C277   C     0.96552   0.09471   0.33506   0.00000  Uiso   1.00
C278   C     0.04997   0.04951   0.35613   0.00000  Uiso   1.00
C279   C     0.10887   0.02869   0.42386   0.00000  Uiso   1.00
C280   C     0.18223   0.98741   0.43222   0.00000  Uiso   1.00
C281   C     0.31124   0.92020   0.47366   0.00000  Uiso   1.00
C282   C     0.91764   0.05534   0.28670   0.00000  Uiso   1.00
C283   C     0.86527   0.03944   0.29605   0.00000  Uiso   1.00
C284   C     0.82723   0.00307   0.24596   0.00000  Uiso   1.00
C285   C     0.75074   0.94495   0.17958   0.00000  Uiso   1.00
C286   C     0.94646   0.15439   0.28998   0.00000  Uiso   1.00
C287   C     0.91830   0.22178   0.30208   0.00000  Uiso   1.00
C288   C     0.90450   0.26881   0.25475   0.00000  Uiso   1.00
C289   C     0.87277   0.36449   0.19347   0.00000  Uiso   1.00
C290   C     0.99106   0.05841   0.22946   0.00000  Uiso   1.00
C291   C     0.06384   0.02979   0.29877   0.00000  Uiso   1.00
C292   C     0.13713   0.98853   0.30703   0.00000  Uiso   1.00
C293   C     0.19613   0.96766   0.37476   0.00000  Uiso   1.00
C294   C     0.93151   0.03562   0.22934   0.00000  Uiso   1.00
C295   C     0.89353   0.99927   0.17922   0.00000  Uiso   1.00
C296   C     0.84112   0.98331   0.18850   0.00000  Uiso   1.00
C297   C     0.96033   0.13468   0.23262   0.00000  Uiso   1.00
C298   C     0.94656   0.18161   0.18525   0.00000  Uiso   1.00
C299   C     0.91840   0.24905   0.19729   0.00000  Uiso   1.00
H300   H     0.95472   0.11006   0.37971   0.00000  Uiso   1.00
H301   H     0.09811   0.04396   0.46823   0.00000  Uiso   1.00
H302   H     0.85454   0.05471   0.34044   0.00000  Uiso   1.00
H303   H     0.90758   0.23702   0.34647   0.00000  Uiso   1.00
H304   H     0.26320   0.96196   0.54108   0.00000  Uiso   1.00
H305   H     0.74961   0.98464   0.27162   0.00000  Uiso   1.00
H306   H     0.86143   0.36908   0.28434   0.00000  Uiso   1.00
H307   H     0.00186   0.04306   0.18480   0.00000  Uiso   1.00
H308   H     0.14784   0.97328   0.26263   0.00000  Uiso   1.00
H309   H     0.90427   0.98403   0.13484   0.00000  Uiso   1.00
H310   H     0.95730   0.16634   0.14087   0.00000  Uiso   1.00
H311   H     0.30357   0.90459   0.37421   0.00000  Uiso   1.00
H312   H     0.78996   0.92728   0.10474   0.00000  Uiso   1.00
H313   H     0.90179   0.31171   0.11746   0.00000  Uiso   1.00
O314   O     0.37856   0.88856   0.51236   0.00000  Uiso   1.00
O315   O     0.70473   0.91834   0.15882   0.00000  Uiso   1.00
O316   O     0.85144   0.42271   0.17552   0.00000  Uiso   1.00
N317   N     0.25267   0.95804   0.49113   0.00000  Uiso   1.00
N318   N     0.77250   0.97924   0.23920   0.00000  Uiso   1.00
N319   N     0.87702   0.33866   0.25108   0.00000  Uiso   1.00
N320   N     0.27439   0.92717   0.40134   0.00000  Uiso   1.00
N321   N     0.79422   0.94837   0.14940   0.00000  Uiso   1.00
N322   N     0.89874   0.30779   0.16129   0.00000  Uiso   1.00
C323   C     0.32987   0.41439   0.36939   0.00000  Uiso   1.00
C324   C     0.30137   0.46338   0.41562   0.00000  Uiso   1.00
C325   C     0.33811   0.45735   0.48787   0.00000  Uiso   1.00
C326   C     0.30274   0.50746   0.52053   0.00000  Uiso   1.00
C327   C     0.26909   0.57531   0.59813   0.00000  Uiso   1.00
C328   C     0.33657   0.45621   0.32305   0.00000  Uiso   1.00
C329   C     0.40291   0.44414   0.31748   0.00000  Uiso   1.00
C330   C     0.39716   0.48820   0.27221   0.00000  Uiso   1.00
C331   C     0.41814   0.54489   0.20607   0.00000  Uiso   1.00
C332   C     0.26387   0.39192   0.32119   0.00000  Uiso   1.00
C333   C     0.26907   0.32578   0.31404   0.00000  Uiso   1.00
C334   C     0.20212   0.31571   0.26719   0.00000  Uiso   1.00
C335   C     0.11022   0.27257   0.19816   0.00000  Uiso   1.00
C336   C     0.20172   0.51411   0.29890   0.00000  Uiso   1.00
C337   C     0.23176   0.51755   0.37733   0.00000  Uiso   1.00
C338   C     0.19632   0.56768   0.40988   0.00000  Uiso   1.00
C339   C     0.23300   0.56172   0.48218   0.00000  Uiso   1.00
C340   C     0.26696   0.51037   0.28477   0.00000  Uiso   1.00
C341   C     0.26111   0.55446   0.23949   0.00000  Uiso   1.00
C342   C     0.32742   0.54246   0.23385   0.00000  Uiso   1.00
C343   C     0.19425   0.44608   0.28291   0.00000  Uiso   1.00
C344   C     0.12728   0.43611   0.23605   0.00000  Uiso   1.00
C345   C     0.13238   0.36997   0.22883   0.00000  Uiso   1.00
H346   H     0.38407   0.37222   0.39919   0.00000  Uiso   1.00
H347   H     0.39199   0.41543   0.51748   0.00000  Uiso   1.00
H348   H     0.45676   0.40221   0.34711   0.00000  Uiso   1.00
H349   H     0.32295   0.28388   0.34367   0.00000  Uiso   1.00
H350   H     0.37008   0.48723   0.63174   0.00000  Uiso   1.00
H351   H     0.50666   0.45935   0.27248   0.00000  Uiso   1.00
H352   H     0.22449   0.20982   0.26523   0.00000  Uiso   1.00
H353   H     0.14752   0.55628   0.26909   0.00000  Uiso   1.00
H354   H     0.14245   0.60959   0.38024   0.00000  Uiso   1.00
H355   H     0.20723   0.59637   0.20987   0.00000  Uiso   1.00
H356   H     0.07342   0.47804   0.20643   0.00000  Uiso   1.00
H357   H     0.16755   0.64482   0.52035   0.00000  Uiso   1.00
H358   H     0.30413   0.61694   0.16109   0.00000  Uiso   1.00
H359   H     0.02196   0.36741   0.15385   0.00000  Uiso   1.00
O360   O     0.26976   0.59778   0.65151   0.00000  Uiso   1.00
O361   O     0.44895   0.56120   0.18017   0.00000  Uiso   1.00
O362   O     0.07875   0.23382   0.17067   0.00000  Uiso   1.00
N363   N     0.32310   0.51700   0.59027   0.00000  Uiso   1.00
N364   N     0.45080   0.49094   0.25440   0.00000  Uiso   1.00
N365   N     0.18700   0.25764   0.24761   0.00000  Uiso   1.00
N366   N     0.21412   0.60179   0.53033   0.00000  Uiso   1.00
N367   N     0.34182   0.57573   0.19446   0.00000  Uiso   1.00
N368   N     0.07802   0.34244   0.18767   0.00000  Uiso   1.00
C369   C     0.62989   0.75885   0.32580   0.00000  Uiso   1.00
C370   C     0.63455   0.72357   0.38497   0.00000  Uiso   1.00
C371   C     0.65860   0.74152   0.45306   0.00000  Uiso   1.00
C372   C     0.65874   0.70289   0.49943   0.00000  Uiso   1.00
C373   C     0.66946   0.65643   0.59450   0.00000  Uiso   1.00
C374   C     0.54643   0.77947   0.26815   0.00000  Uiso   1.00
C375   C     0.49639   0.84442   0.23801   0.00000  Uiso   1.00
C376   C     0.42235   0.85285   0.18603   0.00000  Uiso   1.00
C377   C     0.29627   0.89316   0.09969   0.00000  Uiso   1.00
C378   C     0.67953   0.70465   0.29774   0.00000  Uiso   1.00
C379   C     0.74140   0.70670   0.29246   0.00000  Uiso   1.00
C380   C     0.77942   0.65214   0.26539   0.00000  Uiso   1.00
C381   C     0.86001   0.57629   0.22500   0.00000  Uiso   1.00
C382   C     0.58736   0.65835   0.28707   0.00000  Uiso   1.00
C383   C     0.61145   0.66898   0.36393   0.00000  Uiso   1.00
C384   C     0.61156   0.63032   0.41021   0.00000  Uiso   1.00
C385   C     0.63561   0.64820   0.47836   0.00000  Uiso   1.00
C386   C     0.52333   0.72488   0.24711   0.00000  Uiso   1.00
C387   C     0.44935   0.73322   0.19516   0.00000  Uiso   1.00
C388   C     0.39921   0.79816   0.16496   0.00000  Uiso   1.00
C389   C     0.65644   0.65006   0.27671   0.00000  Uiso   1.00
C390   C     0.69436   0.59549   0.24962   0.00000  Uiso   1.00
C391   C     0.75628   0.59745   0.24431   0.00000  Uiso   1.00
H392   H     0.64786   0.80136   0.34217   0.00000  Uiso   1.00
H393   H     0.67646   0.78377   0.46932   0.00000  Uiso   1.00
H394   H     0.51428   0.88665   0.25429   0.00000  Uiso   1.00
H395   H     0.75926   0.74895   0.30875   0.00000  Uiso   1.00
H396   H     0.69796   0.74021   0.60100   0.00000  Uiso   1.00
H397   H     0.35600   0.95714   0.14759   0.00000  Uiso   1.00
H398   H     0.87258   0.66677   0.26242   0.00000  Uiso   1.00
H399   H     0.56938   0.61585   0.27069   0.00000  Uiso   1.00
H400   H     0.59368   0.58807   0.39392   0.00000  Uiso   1.00
H401   H     0.43149   0.69096   0.17890   0.00000  Uiso   1.00
H402   H     0.67647   0.55326   0.23335   0.00000  Uiso   1.00
H403   H     0.63077   0.58138   0.53980   0.00000  Uiso   1.00
H404   H     0.28881   0.79831   0.08640   0.00000  Uiso   1.00
H405   H     0.80539   0.50794   0.20122   0.00000  Uiso   1.00
O406   O     0.68174   0.64589   0.65275   0.00000  Uiso   1.00
O407   O     0.23311   0.93049   0.05789   0.00000  Uiso   1.00
O408   O     0.91085   0.54953   0.20854   0.00000  Uiso   1.00
N409   N     0.67883   0.70663   0.56969   0.00000  Uiso   1.00
N410   N     0.35911   0.90945   0.14579   0.00000  Uiso   1.00
N411   N     0.84206   0.63798   0.25312   0.00000  Uiso   1.00
N412   N     0.64267   0.62117   0.53676   0.00000  Uiso   1.00
N413   N     0.32296   0.82398   0.11286   0.00000  Uiso   1.00
N414   N     0.80590   0.55252   0.22020   0.00000  Uiso   1.00
C415   C     0.59148   0.96170   0.95592   0.00000  Uiso   1.00
C416   C     0.57005   0.02629   0.99114   0.00000  Uiso   1.00
C417   C     0.56332   0.03103   0.05183   0.00000  Uiso   1.00
C418   C     0.54315   0.09469   0.07564   0.00000  Uiso   1.00
C419   C     0.51180   0.18633   0.13573   0.00000  Uiso   1.00
C420   C     0.52568   0.97440   0.88160   0.00000  Uiso   1.00
C421   C     0.48166   0.93551   0.85020   0.00000  Uiso   1.00
C422   C     0.42415   0.95550   0.78181   0.00000  Uiso   1.00
C423   C     0.32396   0.96656   0.67182   0.00000  Uiso   1.00
C424   C     0.66235   0.95612   0.95004   0.00000  Uiso   1.00
C425   C     0.73324   0.90186   0.97616   0.00000  Uiso   1.00
C426   C     0.79079   0.90645   0.96536   0.00000  Uiso   1.00
C427   C     0.90281   0.88913   0.96163   0.00000  Uiso   1.00
C428   C     0.56763   0.06633   0.89028   0.00000  Uiso   1.00
C429   C     0.55709   0.08312   0.95548   0.00000  Uiso   1.00
C430   C     0.53693   0.14679   0.97921   0.00000  Uiso   1.00
C431   C     0.53017   0.15163   0.03993   0.00000  Uiso   1.00
C432   C     0.51273   0.03123   0.84595   0.00000  Uiso   1.00
C433   C     0.45527   0.05127   0.77758   0.00000  Uiso   1.00
C434   C     0.41117   0.01243   0.74609   0.00000  Uiso   1.00
C435   C     0.64940   0.01295   0.91438   0.00000  Uiso   1.00
C436   C     0.70685   0.01762   0.90354   0.00000  Uiso   1.00
C437   C     0.77781   0.96338   0.92964   0.00000  Uiso   1.00
H438   H     0.60156   0.91746   0.98367   0.00000  Uiso   1.00
H439   H     0.57334   0.98704   0.07940   0.00000  Uiso   1.00
H440   H     0.49170   0.89153   0.87780   0.00000  Uiso   1.00
H441   H     0.74324   0.85789   0.00374   0.00000  Uiso   1.00
H442   H     0.53631   0.08924   0.16980   0.00000  Uiso   1.00
H443   H     0.36419   0.88786   0.74471   0.00000  Uiso   1.00
H444   H     0.89461   0.81691   0.01028   0.00000  Uiso   1.00
H445   H     0.55754   0.11058   0.86252   0.00000  Uiso   1.00
H446   H     0.52691   0.19076   0.95160   0.00000  Uiso   1.00
H447   H     0.44527   0.09525   0.75001   0.00000  Uiso   1.00
H448   H     0.69681   0.06161   0.87594   0.00000  Uiso   1.00
H449   H     0.49862   0.25459   0.06607   0.00000  Uiso   1.00
H450   H     0.32650   0.05320   0.64098   0.00000  Uiso   1.00
H451   H     0.85692   0.98226   0.90655   0.00000  Uiso   1.00
O452   O     0.49808   0.22118   0.17871   0.00000  Uiso   1.00
O453   O     0.27228   0.95696   0.62101   0.00000  Uiso   1.00
O454   O     0.96817   0.86388   0.96943   0.00000  Uiso   1.00
N455   N     0.53166   0.11715   0.13317   0.00000  Uiso   1.00
N456   N     0.37073   0.92887   0.73574   0.00000  Uiso   1.00
N457   N     0.86662   0.86253   0.98401   0.00000  Uiso   1.00
N458   N     0.51138   0.20613   0.07735   0.00000  Uiso   1.00
N459   N     0.35045   0.01785   0.67993   0.00000  Uiso   1.00
N460   N     0.84634   0.95151   0.92819   0.00000  Uiso   1.00
C461   C     0.86313   0.28735   0.79896   0.00000  Uiso   1.00
C462   C     0.94418   0.24111   0.85113   0.00000  Uiso   1.00
C463   C     0.96748   0.22379   0.91977   0.00000  Uiso   1.00
C464   C     0.04413   0.18084   0.95906   0.00000  Uiso   1.00
C465   C     0.16217   0.11283   0.04440   0.00000  Uiso   1.00
C466   C     0.87344   0.34328   0.77311   0.00000  Uiso   1.00
C467   C     0.83725   0.41186   0.77615   0.00000  Uiso   1.00
C468   C     0.85435   0.45491   0.74975   0.00000  Uiso   1.00
C469   C     0.86253   0.54552   0.71392   0.00000  Uiso   1.00
C470   C     0.83665   0.24648   0.73679   0.00000  Uiso   1.00
C471   C     0.76952   0.23369   0.70927   0.00000  Uiso   1.00
C472   C     0.75563   0.19525   0.65228   0.00000  Uiso   1.00
C473   C     0.70669   0.13557   0.56006   0.00000  Uiso   1.00
C474   C     0.95783   0.24185   0.74667   0.00000  Uiso   1.00
C475   C     0.99562   0.21640   0.82273   0.00000  Uiso   1.00
C476   C     0.07225   0.17346   0.86192   0.00000  Uiso   1.00
C477   C     0.09566   0.15608   0.93060   0.00000  Uiso   1.00
C478   C     0.92488   0.31857   0.74471   0.00000  Uiso   1.00
C479   C     0.94203   0.36153   0.71830   0.00000  Uiso   1.00
C480   C     0.90588   0.43016   0.72129   0.00000  Uiso   1.00
C481   C     0.88809   0.22177   0.70839   0.00000  Uiso   1.00
C482   C     0.87430   0.18335   0.65142   0.00000  Uiso   1.00
C483   C     0.80716   0.17050   0.62383   0.00000  Uiso   1.00
H484   H     0.82308   0.30659   0.82107   0.00000  Uiso   1.00
H485   H     0.92765   0.24293   0.94173   0.00000  Uiso   1.00
H486   H     0.79745   0.43097   0.79812   0.00000  Uiso   1.00
H487   H     0.72973   0.25282   0.73126   0.00000  Uiso   1.00
H488   H     0.06629   0.16148   0.06300   0.00000  Uiso   1.00
H489   H     0.79172   0.55797   0.76017   0.00000  Uiso   1.00
H490   H     0.64892   0.18231   0.61918   0.00000  Uiso   1.00
H491   H     0.99787   0.22261   0.72455   0.00000  Uiso   1.00
H492   H     0.11204   0.15434   0.83992   0.00000  Uiso   1.00
H493   H     0.98183   0.34239   0.69632   0.00000  Uiso   1.00
H494   H     0.91412   0.16423   0.62946   0.00000  Uiso   1.00
H495   H     0.21595   0.08958   0.98037   0.00000  Uiso   1.00
H496   H     0.94137   0.48607   0.67754   0.00000  Uiso   1.00
H497   H     0.79858   0.11041   0.53655   0.00000  Uiso   1.00
O498   O     0.21307   0.08215   0.09932   0.00000  Uiso   1.00
O499   O     0.85283   0.60233   0.70202   0.00000  Uiso   1.00
O500   O     0.66549   0.10947   0.51705   0.00000  Uiso   1.00
N501   N     0.08584   0.15391   0.02771   0.00000  Uiso   1.00
N502   N     0.82914   0.52461   0.74460   0.00000  Uiso   1.00
N503   N     0.69562   0.17341   0.61277   0.00000  Uiso   1.00
N504   N     0.16637   0.11522   0.98325   0.00000  Uiso   1.00
N505   N     0.90967   0.48592   0.70013   0.00000  Uiso   1.00
N506   N     0.77615   0.13472   0.56831   0.00000  Uiso   1.00
C507   C     0.19866   0.61078   0.78174   0.00000  Uiso   1.00
C508   C     0.26626   0.60268   0.85439   0.00000  Uiso   1.00
C509   C     0.33614   0.60614   0.86968   0.00000  Uiso   1.00
C510   C     0.39061   0.59738   0.93942   0.00000  Uiso   1.00
C511   C     0.49785   0.58657   0.04423   0.00000  Uiso   1.00
C512   C     0.18236   0.54693   0.77403   0.00000  Uiso   1.00
C513   C     0.18169   0.50351   0.72175   0.00000  Uiso   1.00
C514   C     0.16553   0.44783   0.72384   0.00000  Uiso   1.00
C515   C     0.14247   0.35048   0.70385   0.00000  Uiso   1.00
C516   C     0.12850   0.66786   0.78306   0.00000  Uiso   1.00
C517   C     0.08253   0.72611   0.73836   0.00000  Uiso   1.00
C518   C     0.02101   0.77224   0.74803   0.00000  Uiso   1.00
C519   C     0.91432   0.86265   0.74207   0.00000  Uiso   1.00
C520   C     0.17113   0.58910   0.87840   0.00000  Uiso   1.00
C521   C     0.25130   0.59090   0.90689   0.00000  Uiso   1.00
C522   C     0.30567   0.58215   0.97662   0.00000  Uiso   1.00
C523   C     0.37562   0.58559   0.99202   0.00000  Uiso   1.00
C524   C     0.16741   0.53515   0.82652   0.00000  Uiso   1.00
C525   C     0.15123   0.47952   0.82869   0.00000  Uiso   1.00
C526   C     0.15054   0.43603   0.77643   0.00000  Uiso   1.00
C527   C     0.11355   0.65608   0.83556   0.00000  Uiso   1.00
C528   C     0.05207   0.70212   0.84530   0.00000  Uiso   1.00
C529   C     0.00602   0.76044   0.80063   0.00000  Uiso   1.00
H530   H     0.21031   0.61994   0.74087   0.00000  Uiso   1.00
H531   H     0.34770   0.61524   0.82904   0.00000  Uiso   1.00
H532   H     0.19326   0.51264   0.68112   0.00000  Uiso   1.00
H533   H     0.09413   0.73521   0.69774   0.00000  Uiso   1.00
H534   H     0.49343   0.60482   0.94994   0.00000  Uiso   1.00
H535   H     0.16778   0.38848   0.63804   0.00000  Uiso   1.00
H536   H     0.95872   0.85781   0.67306   0.00000  Uiso   1.00
H537   H     0.15948   0.57992   0.91928   0.00000  Uiso   1.00
H538   H     0.29408   0.57303   0.01724   0.00000  Uiso   1.00
H539   H     0.13965   0.47043   0.86932   0.00000  Uiso   1.00
H540   H     0.04051   0.69299   0.88593   0.00000  Uiso   1.00
H541   H     0.44992   0.57055   0.10269   0.00000  Uiso   1.00
H542   H     0.12426   0.35422   0.79079   0.00000  Uiso   1.00
H543   H     0.91521   0.82355   0.82581   0.00000  Uiso   1.00
O544   O     0.56114   0.58385   0.08753   0.00000  Uiso   1.00
O545   O     0.13389   0.30004   0.67833   0.00000  Uiso   1.00
O546   O     0.85962   0.91578   0.72428   0.00000  Uiso   1.00
N547   N     0.46471   0.59771   0.97245   0.00000  Uiso   1.00
N548   N     0.16026   0.39545   0.68085   0.00000  Uiso   1.00
N549   N     0.96479   0.83422   0.71358   0.00000  Uiso   1.00
N550   N     0.44130   0.57928   0.05464   0.00000  Uiso   1.00
N551   N     0.13685   0.37701   0.76304   0.00000  Uiso   1.00
N552   N     0.94138   0.81578   0.79577   0.00000  Uiso   1.00
