data_job_03401
_audit_creation_date              2018-12-19
_audit_creation_method            'Materials Studio'
_symmetry_space_group_name_H-M    'P1'
_symmetry_Int_Tables_number       1
_symmetry_cell_setting            triclinic
loop_
_symmetry_equiv_pos_as_xyz
  x,y,z
_cell_length_a                    11.6291
_cell_length_b                    12.7679
_cell_length_c                    13.2002
_cell_angle_alpha                 72.9575
_cell_angle_beta                  103.5871
_cell_angle_gamma                 69.3998
loop_
_atom_site_label
_atom_site_type_symbol
_atom_site_fract_x
_atom_site_fract_y
_atom_site_fract_z
_atom_site_U_iso_or_equiv
_atom_site_adp_type
_atom_site_occupancy
C1     C     0.89125   0.32084   0.35675   0.00000  Uiso   1.00
C2     C     0.81681   0.45905   0.32014   0.00000  Uiso   1.00
C3     C     0.77055   0.51578   0.38729   0.00000  Uiso   1.00
C4     C     0.70479   0.64328   0.33811   0.00000  Uiso   1.00
C5     C     0.59200   0.84750   0.29833   0.00000  Uiso   1.00
C6     C     0.81167   0.29180   0.26899   0.00000  Uiso   1.00
C7     C     0.76111   0.20790   0.29313   0.00000  Uiso   1.00
C8     C     0.69104   0.19460   0.20088   0.00000  Uiso   1.00
C9     C     0.57036   0.13911   0.08170   0.00000  Uiso   1.00
C10    C     0.02161   0.29772   0.33942   0.00000  Uiso   1.00
C11    C     0.14757   0.21876   0.42278   0.00000  Uiso   1.00
C12    C     0.25427   0.21042   0.38983   0.00000  Uiso   1.00
C13    C     0.45954   0.16411   0.38001   0.00000  Uiso   1.00
C14    C     0.85675   0.44640   0.14999   0.00000  Uiso   1.00
C15    C     0.79807   0.52724   0.20784   0.00000  Uiso   1.00
C16    C     0.73237   0.65470   0.15854   0.00000  Uiso   1.00
C17    C     0.68603   0.71160   0.22561   0.00000  Uiso   1.00
C18    C     0.79293   0.36000   0.15669   0.00000  Uiso   1.00
C19    C     0.72293   0.34682   0.06438   0.00000  Uiso   1.00
C20    C     0.67227   0.26293   0.08838   0.00000  Uiso   1.00
C21    C     0.00287   0.36592   0.22712   0.00000  Uiso   1.00
C22    C     0.10939   0.35769   0.19403   0.00000  Uiso   1.00
C23    C     0.23549   0.27874   0.27732   0.00000  Uiso   1.00
H24    H     0.90583   0.26774   0.44417   0.00000  Uiso   1.00
H25    H     0.78506   0.46296   0.47419   0.00000  Uiso   1.00
H26    H     0.77563   0.15513   0.38005   0.00000  Uiso   1.00
H27    H     0.16203   0.16600   0.50968   0.00000  Uiso   1.00
H28    H     0.64285   0.70948   0.45793   0.00000  Uiso   1.00
H29    H     0.62301   0.06036   0.25943   0.00000  Uiso   1.00
H30    H     0.43782   0.08328   0.53278   0.00000  Uiso   1.00
H31    H     0.84216   0.49950   0.06256   0.00000  Uiso   1.00
H32    H     0.71789   0.70745   0.07163   0.00000  Uiso   1.00
H33    H     0.70846   0.39961   0.97749   0.00000  Uiso   1.00
H34    H     0.09486   0.41048   0.10712   0.00000  Uiso   1.00
H35    H     0.58832   0.90791   0.13120   0.00000  Uiso   1.00
H36    H     0.56849   0.25878   0.93269   0.00000  Uiso   1.00
H37    H     0.38329   0.28171   0.20604   0.00000  Uiso   1.00
O38    O     0.53495   0.94131   0.30741   0.00000  Uiso   1.00
O39    O     0.50895   0.08967   0.04698   0.00000  Uiso   1.00
O40    O     0.57795   0.11974   0.40561   0.00000  Uiso   1.00
N41    N     0.64709   0.72765   0.37980   0.00000  Uiso   1.00
N42    N     0.62853   0.12077   0.19420   0.00000  Uiso   1.00
N43    N     0.39030   0.14217   0.44976   0.00000  Uiso   1.00
N44    N     0.61776   0.83442   0.20399   0.00000  Uiso   1.00
N45    N     0.59919   0.22754   0.01839   0.00000  Uiso   1.00
N46    N     0.36097   0.24894   0.27395   0.00000  Uiso   1.00
C47    C     0.10875   0.67916   0.64325   0.00000  Uiso   1.00
C48    C     0.18319   0.54095   0.67986   0.00000  Uiso   1.00
C49    C     0.22945   0.48422   0.61271   0.00000  Uiso   1.00
C50    C     0.29521   0.35672   0.66189   0.00000  Uiso   1.00
C51    C     0.40800   0.15250   0.70167   0.00000  Uiso   1.00
C52    C     0.18833   0.70820   0.73101   0.00000  Uiso   1.00
C53    C     0.23889   0.79210   0.70687   0.00000  Uiso   1.00
C54    C     0.30896   0.80540   0.79912   0.00000  Uiso   1.00
C55    C     0.42964   0.86089   0.91830   0.00000  Uiso   1.00
C56    C     0.97839   0.70228   0.66058   0.00000  Uiso   1.00
C57    C     0.85243   0.78124   0.57722   0.00000  Uiso   1.00
C58    C     0.74573   0.78958   0.61017   0.00000  Uiso   1.00
C59    C     0.54046   0.83589   0.61999   0.00000  Uiso   1.00
C60    C     0.14325   0.55360   0.85001   0.00000  Uiso   1.00
C61    C     0.20193   0.47276   0.79216   0.00000  Uiso   1.00
C62    C     0.26763   0.34530   0.84146   0.00000  Uiso   1.00
C63    C     0.31397   0.28840   0.77439   0.00000  Uiso   1.00
C64    C     0.20707   0.64000   0.84331   0.00000  Uiso   1.00
C65    C     0.27707   0.65318   0.93562   0.00000  Uiso   1.00
C66    C     0.32773   0.73707   0.91162   0.00000  Uiso   1.00
C67    C     0.99713   0.63408   0.77288   0.00000  Uiso   1.00
C68    C     0.89061   0.64231   0.80597   0.00000  Uiso   1.00
C69    C     0.76451   0.72126   0.72268   0.00000  Uiso   1.00
H70    H     0.09417   0.73226   0.55583   0.00000  Uiso   1.00
H71    H     0.21494   0.53704   0.52581   0.00000  Uiso   1.00
H72    H     0.22437   0.84487   0.61995   0.00000  Uiso   1.00
H73    H     0.83797   0.83400   0.49032   0.00000  Uiso   1.00
H74    H     0.35715   0.29052   0.54207   0.00000  Uiso   1.00
H75    H     0.37699   0.93964   0.74057   0.00000  Uiso   1.00
H76    H     0.56218   0.91672   0.46722   0.00000  Uiso   1.00
H77    H     0.15784   0.50050   0.93744   0.00000  Uiso   1.00
H78    H     0.28211   0.29255   0.92837   0.00000  Uiso   1.00
H79    H     0.29154   0.60039   0.02251   0.00000  Uiso   1.00
H80    H     0.90514   0.58952   0.89288   0.00000  Uiso   1.00
H81    H     0.41168   0.09209   0.86880   0.00000  Uiso   1.00
H82    H     0.43151   0.74122   0.06731   0.00000  Uiso   1.00
H83    H     0.61671   0.71829   0.79396   0.00000  Uiso   1.00
O84    O     0.46505   0.05869   0.69259   0.00000  Uiso   1.00
O85    O     0.49105   0.91033   0.95302   0.00000  Uiso   1.00
O86    O     0.42205   0.88026   0.59439   0.00000  Uiso   1.00
N87    N     0.35291   0.27235   0.62020   0.00000  Uiso   1.00
N88    N     0.37147   0.87923   0.80580   0.00000  Uiso   1.00
N89    N     0.60970   0.85783   0.55024   0.00000  Uiso   1.00
N90    N     0.38224   0.16558   0.79601   0.00000  Uiso   1.00
N91    N     0.40081   0.77246   0.98161   0.00000  Uiso   1.00
N92    N     0.63903   0.75106   0.72605   0.00000  Uiso   1.00
