data_job_01737
_audit_creation_date              2018-12-19
_audit_creation_method            'Materials Studio'
_symmetry_space_group_name_H-M    'P1'
_symmetry_Int_Tables_number       1
_symmetry_cell_setting            triclinic
loop_
_symmetry_equiv_pos_as_xyz
  x,y,z
_cell_length_a                    10.0463
_cell_length_b                    30.0122
_cell_length_c                    23.2504
_cell_angle_alpha                 90.0000
_cell_angle_beta                  90.0000
_cell_angle_gamma                 90.0000
loop_
_atom_site_label
_atom_site_type_symbol
_atom_site_fract_x
_atom_site_fract_y
_atom_site_fract_z
_atom_site_U_iso_or_equiv
_atom_site_adp_type
_atom_site_occupancy
C1     C     0.46444   0.68747   0.46570   0.00000  Uiso   1.00
C2     C     0.55902   0.68316   0.51669   0.00000  Uiso   1.00
C3     C     0.58534   0.71608   0.55704   0.00000  Uiso   1.00
C4     C     0.67495   0.70561   0.60044   0.00000  Uiso   1.00
C5     C     0.81258   0.70530   0.67917   0.00000  Uiso   1.00
C6     C     0.54688   0.67686   0.41236   0.00000  Uiso   1.00
C7     C     0.56298   0.70447   0.36498   0.00000  Uiso   1.00
C8     C     0.64237   0.68868   0.32055   0.00000  Uiso   1.00
C9     C     0.76108   0.67857   0.23728   0.00000  Uiso   1.00
C10    C     0.36442   0.64954   0.47168   0.00000  Uiso   1.00
C11    C     0.22709   0.65417   0.47417   0.00000  Uiso   1.00
C12    C     0.15285   0.61538   0.47967   0.00000  Uiso   1.00
C13    C     0.98825   0.56285   0.48851   0.00000  Uiso   1.00
C14    C     0.57679   0.61034   0.47102   0.00000  Uiso   1.00
C15    C     0.62004   0.64127   0.51958   0.00000  Uiso   1.00
C16    C     0.70964   0.63074   0.56294   0.00000  Uiso   1.00
C17    C     0.73608   0.66364   0.60334   0.00000  Uiso   1.00
C18    C     0.60791   0.63496   0.41525   0.00000  Uiso   1.00
C19    C     0.68728   0.61913   0.37087   0.00000  Uiso   1.00
C20    C     0.70351   0.64671   0.32345   0.00000  Uiso   1.00
C21    C     0.42544   0.60764   0.47458   0.00000  Uiso   1.00
C22    C     0.35140   0.56884   0.48007   0.00000  Uiso   1.00
C23    C     0.21398   0.57341   0.48257   0.00000  Uiso   1.00
H24    H     0.41693   0.72009   0.46344   0.00000  Uiso   1.00
H25    H     0.53810   0.74850   0.55479   0.00000  Uiso   1.00
H26    H     0.51574   0.73688   0.36275   0.00000  Uiso   1.00
H27    H     0.17990   0.68660   0.47193   0.00000  Uiso   1.00
H28    H     0.69939   0.76152   0.65732   0.00000  Uiso   1.00
H29    H     0.65220   0.73703   0.25240   0.00000  Uiso   1.00
H30    H     0.94402   0.63099   0.48262   0.00000  Uiso   1.00
H31    H     0.62430   0.57772   0.47327   0.00000  Uiso   1.00
H32    H     0.75685   0.59832   0.56516   0.00000  Uiso   1.00
H33    H     0.73448   0.58671   0.37313   0.00000  Uiso   1.00
H34    H     0.39865   0.53642   0.48230   0.00000  Uiso   1.00
H35    H     0.87693   0.63964   0.66575   0.00000  Uiso   1.00
H36    H     0.82974   0.61515   0.26082   0.00000  Uiso   1.00
H37    H     0.12157   0.50911   0.49104   0.00000  Uiso   1.00
O38    O     0.87165   0.71670   0.72179   0.00000  Uiso   1.00
O39    O     0.80971   0.68457   0.19055   0.00000  Uiso   1.00
O40    O     0.88060   0.54545   0.49260   0.00000  Uiso   1.00
N41    N     0.72296   0.73001   0.64670   0.00000  Uiso   1.00
N42    N     0.67886   0.70711   0.26813   0.00000  Uiso   1.00
N43    N     0.01677   0.60797   0.48335   0.00000  Uiso   1.00
N44    N     0.81850   0.66442   0.65123   0.00000  Uiso   1.00
N45    N     0.77439   0.64153   0.27266   0.00000  Uiso   1.00
N46    N     0.11230   0.54239   0.48788   0.00000  Uiso   1.00
C47    C     0.03556   0.81253   0.96570   0.00000  Uiso   1.00
C48    C     0.94098   0.81684   0.01669   0.00000  Uiso   1.00
C49    C     0.91466   0.78392   0.05704   0.00000  Uiso   1.00
C50    C     0.82505   0.79439   0.10044   0.00000  Uiso   1.00
C51    C     0.68742   0.79470   0.17917   0.00000  Uiso   1.00
C52    C     0.95312   0.82314   0.91236   0.00000  Uiso   1.00
C53    C     0.93702   0.79553   0.86498   0.00000  Uiso   1.00
C54    C     0.85763   0.81132   0.82055   0.00000  Uiso   1.00
C55    C     0.73892   0.82143   0.73728   0.00000  Uiso   1.00
C56    C     0.13558   0.85046   0.97168   0.00000  Uiso   1.00
C57    C     0.27291   0.84583   0.97417   0.00000  Uiso   1.00
C58    C     0.34715   0.88462   0.97967   0.00000  Uiso   1.00
C59    C     0.51175   0.93715   0.98851   0.00000  Uiso   1.00
C60    C     0.92321   0.88966   0.97102   0.00000  Uiso   1.00
C61    C     0.87996   0.85873   0.01958   0.00000  Uiso   1.00
C62    C     0.79036   0.86926   0.06294   0.00000  Uiso   1.00
C63    C     0.76392   0.83636   0.10334   0.00000  Uiso   1.00
C64    C     0.89209   0.86504   0.91525   0.00000  Uiso   1.00
C65    C     0.81272   0.88087   0.87087   0.00000  Uiso   1.00
C66    C     0.79649   0.85329   0.82345   0.00000  Uiso   1.00
C67    C     0.07456   0.89236   0.97458   0.00000  Uiso   1.00
C68    C     0.14860   0.93116   0.98007   0.00000  Uiso   1.00
C69    C     0.28602   0.92659   0.98257   0.00000  Uiso   1.00
H70    H     0.08307   0.77991   0.96344   0.00000  Uiso   1.00
H71    H     0.96190   0.75150   0.05479   0.00000  Uiso   1.00
H72    H     0.98426   0.76312   0.86275   0.00000  Uiso   1.00
H73    H     0.32010   0.81340   0.97193   0.00000  Uiso   1.00
H74    H     0.80061   0.73848   0.15732   0.00000  Uiso   1.00
H75    H     0.84780   0.76297   0.75240   0.00000  Uiso   1.00
H76    H     0.55598   0.86901   0.98262   0.00000  Uiso   1.00
H77    H     0.87570   0.92228   0.97327   0.00000  Uiso   1.00
H78    H     0.74315   0.90168   0.06516   0.00000  Uiso   1.00
H79    H     0.76552   0.91329   0.87313   0.00000  Uiso   1.00
H80    H     0.10135   0.96358   0.98230   0.00000  Uiso   1.00
H81    H     0.62307   0.86036   0.16575   0.00000  Uiso   1.00
H82    H     0.67026   0.88485   0.76082   0.00000  Uiso   1.00
H83    H     0.37843   0.99089   0.99104   0.00000  Uiso   1.00
O84    O     0.62835   0.78330   0.22179   0.00000  Uiso   1.00
O85    O     0.69029   0.81543   0.69055   0.00000  Uiso   1.00
O86    O     0.61940   0.95455   0.99260   0.00000  Uiso   1.00
N87    N     0.77704   0.76999   0.14670   0.00000  Uiso   1.00
N88    N     0.82114   0.79289   0.76813   0.00000  Uiso   1.00
N89    N     0.48323   0.89203   0.98335   0.00000  Uiso   1.00
N90    N     0.68150   0.83558   0.15123   0.00000  Uiso   1.00
N91    N     0.72561   0.85847   0.77266   0.00000  Uiso   1.00
N92    N     0.38770   0.95761   0.98788   0.00000  Uiso   1.00
C93    C     0.53556   0.68747   0.03430   0.00000  Uiso   1.00
C94    C     0.44098   0.68316   0.98331   0.00000  Uiso   1.00
C95    C     0.41466   0.71608   0.94296   0.00000  Uiso   1.00
C96    C     0.32505   0.70561   0.89956   0.00000  Uiso   1.00
C97    C     0.18742   0.70530   0.82083   0.00000  Uiso   1.00
C98    C     0.45312   0.67686   0.08764   0.00000  Uiso   1.00
C99    C     0.43702   0.70447   0.13502   0.00000  Uiso   1.00
C100   C     0.35763   0.68868   0.17945   0.00000  Uiso   1.00
C101   C     0.23892   0.67857   0.26272   0.00000  Uiso   1.00
C102   C     0.63558   0.64954   0.02832   0.00000  Uiso   1.00
C103   C     0.77291   0.65417   0.02583   0.00000  Uiso   1.00
C104   C     0.84715   0.61538   0.02033   0.00000  Uiso   1.00
C105   C     0.01175   0.56285   0.01149   0.00000  Uiso   1.00
C106   C     0.42321   0.61034   0.02898   0.00000  Uiso   1.00
C107   C     0.37996   0.64127   0.98042   0.00000  Uiso   1.00
C108   C     0.29036   0.63074   0.93706   0.00000  Uiso   1.00
C109   C     0.26392   0.66364   0.89666   0.00000  Uiso   1.00
C110   C     0.39209   0.63496   0.08475   0.00000  Uiso   1.00
C111   C     0.31272   0.61913   0.12913   0.00000  Uiso   1.00
C112   C     0.29649   0.64671   0.17655   0.00000  Uiso   1.00
C113   C     0.57456   0.60764   0.02542   0.00000  Uiso   1.00
C114   C     0.64860   0.56884   0.01993   0.00000  Uiso   1.00
C115   C     0.78602   0.57341   0.01743   0.00000  Uiso   1.00
H116   H     0.58307   0.72009   0.03656   0.00000  Uiso   1.00
H117   H     0.46190   0.74850   0.94521   0.00000  Uiso   1.00
H118   H     0.48426   0.73688   0.13725   0.00000  Uiso   1.00
H119   H     0.82010   0.68660   0.02807   0.00000  Uiso   1.00
H120   H     0.30061   0.76152   0.84268   0.00000  Uiso   1.00
H121   H     0.34780   0.73703   0.24760   0.00000  Uiso   1.00
H122   H     0.05598   0.63099   0.01738   0.00000  Uiso   1.00
H123   H     0.37570   0.57772   0.02673   0.00000  Uiso   1.00
H124   H     0.24315   0.59832   0.93484   0.00000  Uiso   1.00
H125   H     0.26552   0.58671   0.12687   0.00000  Uiso   1.00
H126   H     0.60135   0.53642   0.01770   0.00000  Uiso   1.00
H127   H     0.12307   0.63964   0.83425   0.00000  Uiso   1.00
H128   H     0.17026   0.61515   0.23918   0.00000  Uiso   1.00
H129   H     0.87843   0.50911   0.00896   0.00000  Uiso   1.00
O130   O     0.12835   0.71670   0.77821   0.00000  Uiso   1.00
O131   O     0.19029   0.68457   0.30945   0.00000  Uiso   1.00
O132   O     0.11940   0.54545   0.00740   0.00000  Uiso   1.00
N133   N     0.27704   0.73001   0.85330   0.00000  Uiso   1.00
N134   N     0.32114   0.70711   0.23187   0.00000  Uiso   1.00
N135   N     0.98323   0.60797   0.01665   0.00000  Uiso   1.00
N136   N     0.18150   0.66442   0.84877   0.00000  Uiso   1.00
N137   N     0.22561   0.64153   0.22734   0.00000  Uiso   1.00
N138   N     0.88770   0.54239   0.01212   0.00000  Uiso   1.00
C139   C     0.96444   0.81253   0.53430   0.00000  Uiso   1.00
C140   C     0.05902   0.81684   0.48331   0.00000  Uiso   1.00
C141   C     0.08534   0.78392   0.44296   0.00000  Uiso   1.00
C142   C     0.17495   0.79439   0.39956   0.00000  Uiso   1.00
C143   C     0.31258   0.79470   0.32083   0.00000  Uiso   1.00
C144   C     0.04688   0.82314   0.58764   0.00000  Uiso   1.00
C145   C     0.06298   0.79553   0.63502   0.00000  Uiso   1.00
C146   C     0.14237   0.81132   0.67945   0.00000  Uiso   1.00
C147   C     0.26108   0.82143   0.76272   0.00000  Uiso   1.00
C148   C     0.86442   0.85046   0.52832   0.00000  Uiso   1.00
C149   C     0.72709   0.84583   0.52583   0.00000  Uiso   1.00
C150   C     0.65285   0.88462   0.52033   0.00000  Uiso   1.00
C151   C     0.48825   0.93715   0.51149   0.00000  Uiso   1.00
C152   C     0.07679   0.88966   0.52898   0.00000  Uiso   1.00
C153   C     0.12004   0.85873   0.48042   0.00000  Uiso   1.00
C154   C     0.20964   0.86926   0.43706   0.00000  Uiso   1.00
C155   C     0.23608   0.83636   0.39666   0.00000  Uiso   1.00
C156   C     0.10791   0.86504   0.58475   0.00000  Uiso   1.00
C157   C     0.18728   0.88087   0.62913   0.00000  Uiso   1.00
C158   C     0.20351   0.85329   0.67655   0.00000  Uiso   1.00
C159   C     0.92544   0.89236   0.52542   0.00000  Uiso   1.00
C160   C     0.85140   0.93116   0.51993   0.00000  Uiso   1.00
C161   C     0.71398   0.92659   0.51743   0.00000  Uiso   1.00
H162   H     0.91693   0.77991   0.53656   0.00000  Uiso   1.00
H163   H     0.03810   0.75150   0.44521   0.00000  Uiso   1.00
H164   H     0.01574   0.76312   0.63725   0.00000  Uiso   1.00
H165   H     0.67990   0.81340   0.52807   0.00000  Uiso   1.00
H166   H     0.19939   0.73848   0.34268   0.00000  Uiso   1.00
H167   H     0.15220   0.76297   0.74760   0.00000  Uiso   1.00
H168   H     0.44402   0.86901   0.51738   0.00000  Uiso   1.00
H169   H     0.12430   0.92228   0.52673   0.00000  Uiso   1.00
H170   H     0.25685   0.90168   0.43484   0.00000  Uiso   1.00
H171   H     0.23448   0.91329   0.62687   0.00000  Uiso   1.00
H172   H     0.89865   0.96358   0.51770   0.00000  Uiso   1.00
H173   H     0.37693   0.86036   0.33425   0.00000  Uiso   1.00
H174   H     0.32974   0.88485   0.73918   0.00000  Uiso   1.00
H175   H     0.62157   0.99089   0.50896   0.00000  Uiso   1.00
O176   O     0.37165   0.78330   0.27821   0.00000  Uiso   1.00
O177   O     0.30971   0.81543   0.80945   0.00000  Uiso   1.00
O178   O     0.38060   0.95455   0.50740   0.00000  Uiso   1.00
N179   N     0.22296   0.76999   0.35330   0.00000  Uiso   1.00
N180   N     0.17886   0.79289   0.73187   0.00000  Uiso   1.00
N181   N     0.51677   0.89203   0.51665   0.00000  Uiso   1.00
N182   N     0.31850   0.83558   0.34877   0.00000  Uiso   1.00
N183   N     0.27439   0.85847   0.72734   0.00000  Uiso   1.00
N184   N     0.61230   0.95761   0.51212   0.00000  Uiso   1.00
C185   C     0.53556   0.31253   0.53430   0.00000  Uiso   1.00
C186   C     0.44098   0.31684   0.48331   0.00000  Uiso   1.00
C187   C     0.41466   0.28392   0.44296   0.00000  Uiso   1.00
C188   C     0.32505   0.29439   0.39956   0.00000  Uiso   1.00
C189   C     0.18742   0.29470   0.32083   0.00000  Uiso   1.00
C190   C     0.45312   0.32314   0.58764   0.00000  Uiso   1.00
C191   C     0.43702   0.29553   0.63502   0.00000  Uiso   1.00
C192   C     0.35763   0.31132   0.67945   0.00000  Uiso   1.00
C193   C     0.23892   0.32143   0.76272   0.00000  Uiso   1.00
C194   C     0.63558   0.35046   0.52832   0.00000  Uiso   1.00
C195   C     0.77291   0.34583   0.52583   0.00000  Uiso   1.00
C196   C     0.84715   0.38462   0.52033   0.00000  Uiso   1.00
C197   C     0.01175   0.43715   0.51149   0.00000  Uiso   1.00
C198   C     0.42321   0.38966   0.52898   0.00000  Uiso   1.00
C199   C     0.37996   0.35873   0.48042   0.00000  Uiso   1.00
C200   C     0.29036   0.36926   0.43706   0.00000  Uiso   1.00
C201   C     0.26392   0.33636   0.39666   0.00000  Uiso   1.00
C202   C     0.39209   0.36504   0.58475   0.00000  Uiso   1.00
C203   C     0.31272   0.38087   0.62913   0.00000  Uiso   1.00
C204   C     0.29649   0.35329   0.67655   0.00000  Uiso   1.00
C205   C     0.57456   0.39236   0.52542   0.00000  Uiso   1.00
C206   C     0.64860   0.43116   0.51993   0.00000  Uiso   1.00
C207   C     0.78602   0.42659   0.51743   0.00000  Uiso   1.00
H208   H     0.58307   0.27991   0.53656   0.00000  Uiso   1.00
H209   H     0.46190   0.25150   0.44521   0.00000  Uiso   1.00
H210   H     0.48426   0.26312   0.63725   0.00000  Uiso   1.00
H211   H     0.82010   0.31340   0.52807   0.00000  Uiso   1.00
H212   H     0.30061   0.23848   0.34268   0.00000  Uiso   1.00
H213   H     0.34780   0.26297   0.74760   0.00000  Uiso   1.00
H214   H     0.05598   0.36901   0.51738   0.00000  Uiso   1.00
H215   H     0.37570   0.42228   0.52673   0.00000  Uiso   1.00
H216   H     0.24315   0.40168   0.43484   0.00000  Uiso   1.00
H217   H     0.26552   0.41329   0.62687   0.00000  Uiso   1.00
H218   H     0.60135   0.46358   0.51770   0.00000  Uiso   1.00
H219   H     0.12307   0.36036   0.33425   0.00000  Uiso   1.00
H220   H     0.17026   0.38485   0.73918   0.00000  Uiso   1.00
H221   H     0.87843   0.49089   0.50896   0.00000  Uiso   1.00
O222   O     0.12835   0.28330   0.27821   0.00000  Uiso   1.00
O223   O     0.19029   0.31543   0.80945   0.00000  Uiso   1.00
O224   O     0.11940   0.45455   0.50740   0.00000  Uiso   1.00
N225   N     0.27704   0.26999   0.35330   0.00000  Uiso   1.00
N226   N     0.32114   0.29289   0.73187   0.00000  Uiso   1.00
N227   N     0.98323   0.39203   0.51665   0.00000  Uiso   1.00
N228   N     0.18150   0.33558   0.34877   0.00000  Uiso   1.00
N229   N     0.22561   0.35847   0.72734   0.00000  Uiso   1.00
N230   N     0.88770   0.45761   0.51212   0.00000  Uiso   1.00
C231   C     0.96444   0.18747   0.03430   0.00000  Uiso   1.00
C232   C     0.05902   0.18316   0.98331   0.00000  Uiso   1.00
C233   C     0.08534   0.21608   0.94296   0.00000  Uiso   1.00
C234   C     0.17495   0.20561   0.89956   0.00000  Uiso   1.00
C235   C     0.31258   0.20530   0.82083   0.00000  Uiso   1.00
C236   C     0.04688   0.17686   0.08764   0.00000  Uiso   1.00
C237   C     0.06298   0.20447   0.13502   0.00000  Uiso   1.00
C238   C     0.14237   0.18868   0.17945   0.00000  Uiso   1.00
C239   C     0.26108   0.17857   0.26272   0.00000  Uiso   1.00
C240   C     0.86442   0.14954   0.02832   0.00000  Uiso   1.00
C241   C     0.72709   0.15417   0.02583   0.00000  Uiso   1.00
C242   C     0.65285   0.11538   0.02033   0.00000  Uiso   1.00
C243   C     0.48825   0.06285   0.01149   0.00000  Uiso   1.00
C244   C     0.07679   0.11034   0.02898   0.00000  Uiso   1.00
C245   C     0.12004   0.14127   0.98042   0.00000  Uiso   1.00
C246   C     0.20964   0.13074   0.93706   0.00000  Uiso   1.00
C247   C     0.23608   0.16364   0.89666   0.00000  Uiso   1.00
C248   C     0.10791   0.13496   0.08475   0.00000  Uiso   1.00
C249   C     0.18728   0.11913   0.12913   0.00000  Uiso   1.00
C250   C     0.20351   0.14671   0.17655   0.00000  Uiso   1.00
C251   C     0.92544   0.10764   0.02542   0.00000  Uiso   1.00
C252   C     0.85140   0.06884   0.01993   0.00000  Uiso   1.00
C253   C     0.71398   0.07341   0.01743   0.00000  Uiso   1.00
H254   H     0.91693   0.22009   0.03656   0.00000  Uiso   1.00
H255   H     0.03810   0.24850   0.94521   0.00000  Uiso   1.00
H256   H     0.01574   0.23688   0.13725   0.00000  Uiso   1.00
H257   H     0.67990   0.18660   0.02807   0.00000  Uiso   1.00
H258   H     0.19939   0.26152   0.84268   0.00000  Uiso   1.00
H259   H     0.15220   0.23703   0.24760   0.00000  Uiso   1.00
H260   H     0.44402   0.13099   0.01738   0.00000  Uiso   1.00
H261   H     0.12430   0.07772   0.02673   0.00000  Uiso   1.00
H262   H     0.25685   0.09832   0.93484   0.00000  Uiso   1.00
H263   H     0.23448   0.08671   0.12687   0.00000  Uiso   1.00
H264   H     0.89865   0.03642   0.01770   0.00000  Uiso   1.00
H265   H     0.37693   0.13964   0.83425   0.00000  Uiso   1.00
H266   H     0.32974   0.11515   0.23918   0.00000  Uiso   1.00
H267   H     0.62157   0.00911   0.00896   0.00000  Uiso   1.00
O268   O     0.37165   0.21670   0.77821   0.00000  Uiso   1.00
O269   O     0.30971   0.18457   0.30945   0.00000  Uiso   1.00
O270   O     0.38060   0.04545   0.00740   0.00000  Uiso   1.00
N271   N     0.22296   0.23001   0.85330   0.00000  Uiso   1.00
N272   N     0.17886   0.20711   0.23187   0.00000  Uiso   1.00
N273   N     0.51677   0.10797   0.01665   0.00000  Uiso   1.00
N274   N     0.31850   0.16442   0.84877   0.00000  Uiso   1.00
N275   N     0.27439   0.14153   0.22734   0.00000  Uiso   1.00
N276   N     0.61230   0.04239   0.01212   0.00000  Uiso   1.00
C277   C     0.46444   0.31253   0.96570   0.00000  Uiso   1.00
C278   C     0.55902   0.31684   0.01669   0.00000  Uiso   1.00
C279   C     0.58534   0.28392   0.05704   0.00000  Uiso   1.00
C280   C     0.67495   0.29439   0.10044   0.00000  Uiso   1.00
C281   C     0.81258   0.29470   0.17917   0.00000  Uiso   1.00
C282   C     0.54688   0.32314   0.91236   0.00000  Uiso   1.00
C283   C     0.56298   0.29553   0.86498   0.00000  Uiso   1.00
C284   C     0.64237   0.31132   0.82055   0.00000  Uiso   1.00
C285   C     0.76108   0.32143   0.73728   0.00000  Uiso   1.00
C286   C     0.36442   0.35046   0.97168   0.00000  Uiso   1.00
C287   C     0.22709   0.34583   0.97417   0.00000  Uiso   1.00
C288   C     0.15285   0.38462   0.97967   0.00000  Uiso   1.00
C289   C     0.98825   0.43715   0.98851   0.00000  Uiso   1.00
C290   C     0.57679   0.38966   0.97102   0.00000  Uiso   1.00
C291   C     0.62004   0.35873   0.01958   0.00000  Uiso   1.00
C292   C     0.70964   0.36926   0.06294   0.00000  Uiso   1.00
C293   C     0.73608   0.33636   0.10334   0.00000  Uiso   1.00
C294   C     0.60791   0.36504   0.91525   0.00000  Uiso   1.00
C295   C     0.68728   0.38087   0.87087   0.00000  Uiso   1.00
C296   C     0.70351   0.35329   0.82345   0.00000  Uiso   1.00
C297   C     0.42544   0.39236   0.97458   0.00000  Uiso   1.00
C298   C     0.35140   0.43116   0.98007   0.00000  Uiso   1.00
C299   C     0.21398   0.42659   0.98257   0.00000  Uiso   1.00
H300   H     0.41693   0.27991   0.96344   0.00000  Uiso   1.00
H301   H     0.53810   0.25150   0.05479   0.00000  Uiso   1.00
H302   H     0.51574   0.26312   0.86275   0.00000  Uiso   1.00
H303   H     0.17990   0.31340   0.97193   0.00000  Uiso   1.00
H304   H     0.69939   0.23848   0.15732   0.00000  Uiso   1.00
H305   H     0.65220   0.26297   0.75240   0.00000  Uiso   1.00
H306   H     0.94402   0.36901   0.98262   0.00000  Uiso   1.00
H307   H     0.62430   0.42228   0.97327   0.00000  Uiso   1.00
H308   H     0.75685   0.40168   0.06516   0.00000  Uiso   1.00
H309   H     0.73448   0.41329   0.87313   0.00000  Uiso   1.00
H310   H     0.39865   0.46358   0.98230   0.00000  Uiso   1.00
H311   H     0.87693   0.36036   0.16575   0.00000  Uiso   1.00
H312   H     0.82974   0.38485   0.76082   0.00000  Uiso   1.00
H313   H     0.12157   0.49089   0.99104   0.00000  Uiso   1.00
O314   O     0.87165   0.28330   0.22179   0.00000  Uiso   1.00
O315   O     0.80971   0.31543   0.69055   0.00000  Uiso   1.00
O316   O     0.88060   0.45455   0.99260   0.00000  Uiso   1.00
N317   N     0.72296   0.26999   0.14670   0.00000  Uiso   1.00
N318   N     0.67886   0.29289   0.76813   0.00000  Uiso   1.00
N319   N     0.01677   0.39203   0.98335   0.00000  Uiso   1.00
N320   N     0.81850   0.33558   0.15123   0.00000  Uiso   1.00
N321   N     0.77439   0.35847   0.77266   0.00000  Uiso   1.00
N322   N     0.11230   0.45761   0.98788   0.00000  Uiso   1.00
C323   C     0.03556   0.18747   0.46570   0.00000  Uiso   1.00
C324   C     0.94098   0.18316   0.51669   0.00000  Uiso   1.00
C325   C     0.91466   0.21608   0.55704   0.00000  Uiso   1.00
C326   C     0.82505   0.20561   0.60044   0.00000  Uiso   1.00
C327   C     0.68742   0.20530   0.67917   0.00000  Uiso   1.00
C328   C     0.95312   0.17686   0.41236   0.00000  Uiso   1.00
C329   C     0.93702   0.20447   0.36498   0.00000  Uiso   1.00
C330   C     0.85763   0.18868   0.32055   0.00000  Uiso   1.00
C331   C     0.73892   0.17857   0.23728   0.00000  Uiso   1.00
C332   C     0.13558   0.14954   0.47168   0.00000  Uiso   1.00
C333   C     0.27291   0.15417   0.47417   0.00000  Uiso   1.00
C334   C     0.34715   0.11538   0.47967   0.00000  Uiso   1.00
C335   C     0.51175   0.06285   0.48851   0.00000  Uiso   1.00
C336   C     0.92321   0.11034   0.47102   0.00000  Uiso   1.00
C337   C     0.87996   0.14127   0.51958   0.00000  Uiso   1.00
C338   C     0.79036   0.13074   0.56294   0.00000  Uiso   1.00
C339   C     0.76392   0.16364   0.60334   0.00000  Uiso   1.00
C340   C     0.89209   0.13496   0.41525   0.00000  Uiso   1.00
C341   C     0.81272   0.11913   0.37087   0.00000  Uiso   1.00
C342   C     0.79649   0.14671   0.32345   0.00000  Uiso   1.00
C343   C     0.07456   0.10764   0.47458   0.00000  Uiso   1.00
C344   C     0.14860   0.06884   0.48007   0.00000  Uiso   1.00
C345   C     0.28602   0.07341   0.48257   0.00000  Uiso   1.00
H346   H     0.08307   0.22009   0.46344   0.00000  Uiso   1.00
H347   H     0.96190   0.24850   0.55479   0.00000  Uiso   1.00
H348   H     0.98426   0.23688   0.36275   0.00000  Uiso   1.00
H349   H     0.32010   0.18660   0.47193   0.00000  Uiso   1.00
H350   H     0.80061   0.26152   0.65732   0.00000  Uiso   1.00
H351   H     0.84780   0.23703   0.25240   0.00000  Uiso   1.00
H352   H     0.55598   0.13099   0.48262   0.00000  Uiso   1.00
H353   H     0.87570   0.07772   0.47327   0.00000  Uiso   1.00
H354   H     0.74315   0.09832   0.56516   0.00000  Uiso   1.00
H355   H     0.76552   0.08671   0.37313   0.00000  Uiso   1.00
H356   H     0.10135   0.03642   0.48230   0.00000  Uiso   1.00
H357   H     0.62307   0.13964   0.66575   0.00000  Uiso   1.00
H358   H     0.67026   0.11515   0.26082   0.00000  Uiso   1.00
H359   H     0.37843   0.00911   0.49104   0.00000  Uiso   1.00
O360   O     0.62835   0.21670   0.72179   0.00000  Uiso   1.00
O361   O     0.69029   0.18457   0.19055   0.00000  Uiso   1.00
O362   O     0.61940   0.04545   0.49260   0.00000  Uiso   1.00
N363   N     0.77704   0.23001   0.64670   0.00000  Uiso   1.00
N364   N     0.82114   0.20711   0.26813   0.00000  Uiso   1.00
N365   N     0.48323   0.10797   0.48335   0.00000  Uiso   1.00
N366   N     0.68150   0.16442   0.65123   0.00000  Uiso   1.00
N367   N     0.72561   0.14153   0.27266   0.00000  Uiso   1.00
N368   N     0.38770   0.04239   0.48788   0.00000  Uiso   1.00
