data_job_03151
_audit_creation_date              2018-12-19
_audit_creation_method            'Materials Studio'
_symmetry_space_group_name_H-M    'P1'
_symmetry_Int_Tables_number       1
_symmetry_cell_setting            triclinic
loop_
_symmetry_equiv_pos_as_xyz
  x,y,z
_cell_length_a                    14.6340
_cell_length_b                    19.7666
_cell_length_c                    20.2331
_cell_angle_alpha                 90.0000
_cell_angle_beta                  90.0000
_cell_angle_gamma                 90.0000
loop_
_atom_site_label
_atom_site_type_symbol
_atom_site_fract_x
_atom_site_fract_y
_atom_site_fract_z
_atom_site_U_iso_or_equiv
_atom_site_adp_type
_atom_site_occupancy
C1     C     0.21283   0.49870   0.11490   0.00000  Uiso   1.00
C2     C     0.31516   0.49652   0.12899   0.00000  Uiso   1.00
C3     C     0.35932   0.44938   0.16852   0.00000  Uiso   1.00
C4     C     0.45332   0.45604   0.17520   0.00000  Uiso   1.00
C5     C     0.60490   0.44476   0.20192   0.00000  Uiso   1.00
C6     C     0.18077   0.56893   0.13578   0.00000  Uiso   1.00
C7     C     0.11192   0.58266   0.18101   0.00000  Uiso   1.00
C8     C     0.09278   0.65028   0.19339   0.00000  Uiso   1.00
C9     C     0.03566   0.75142   0.23061   0.00000  Uiso   1.00
C10    C     0.20315   0.49623   0.03990   0.00000  Uiso   1.00
C11    C     0.15310   0.44884   0.00452   0.00000  Uiso   1.00
C12    C     0.15278   0.45526   0.93619   0.00000  Uiso   1.00
C13    C     0.13041   0.44352   0.82456   0.00000  Uiso   1.00
C14    C     0.30123   0.59437   0.05646   0.00000  Uiso   1.00
C15    C     0.36317   0.54849   0.09724   0.00000  Uiso   1.00
C16    C     0.45712   0.55522   0.10386   0.00000  Uiso   1.00
C17    C     0.50142   0.50809   0.14339   0.00000  Uiso   1.00
C18    C     0.22877   0.62089   0.10403   0.00000  Uiso   1.00
C19    C     0.20972   0.68851   0.11635   0.00000  Uiso   1.00
C20    C     0.14088   0.70234   0.16159   0.00000  Uiso   1.00
C21    C     0.25116   0.54819   0.00816   0.00000  Uiso   1.00
C22    C     0.25091   0.55469   0.93986   0.00000  Uiso   1.00
C23    C     0.20088   0.50732   0.90439   0.00000  Uiso   1.00
H24    H     0.17545   0.45825   0.13962   0.00000  Uiso   1.00
H25    H     0.32214   0.40917   0.19308   0.00000  Uiso   1.00
H26    H     0.07478   0.54244   0.20556   0.00000  Uiso   1.00
H27    H     0.11596   0.40864   0.02911   0.00000  Uiso   1.00
H28    H     0.50595   0.37769   0.23838   0.00000  Uiso   1.00
H29    H     0.98434   0.65869   0.26467   0.00000  Uiso   1.00
H30    H     0.07117   0.37655   0.89258   0.00000  Uiso   1.00
H31    H     0.33860   0.63483   0.03174   0.00000  Uiso   1.00
H32    H     0.49426   0.59544   0.07929   0.00000  Uiso   1.00
H33    H     0.24689   0.72871   0.09177   0.00000  Uiso   1.00
H34    H     0.28807   0.59491   0.91531   0.00000  Uiso   1.00
H35    H     0.64564   0.52887   0.14602   0.00000  Uiso   1.00
H36    H     0.12403   0.80987   0.17231   0.00000  Uiso   1.00
H37    H     0.21086   0.52773   0.80022   0.00000  Uiso   1.00
O38    O     0.67524   0.42420   0.22544   0.00000  Uiso   1.00
O39    O     0.99090   0.79285   0.25992   0.00000  Uiso   1.00
O40    O     0.10482   0.42269   0.77176   0.00000  Uiso   1.00
N41    N     0.51747   0.41867   0.21010   0.00000  Uiso   1.00
N42    N     0.02980   0.68139   0.23470   0.00000  Uiso   1.00
N43    N     0.11096   0.41762   0.88683   0.00000  Uiso   1.00
N44    N     0.59263   0.50002   0.16041   0.00000  Uiso   1.00
N45    N     0.10497   0.76274   0.18500   0.00000  Uiso   1.00
N46    N     0.18613   0.49897   0.83713   0.00000  Uiso   1.00
C47    C     0.28717   0.50130   0.61490   0.00000  Uiso   1.00
C48    C     0.18484   0.50348   0.62899   0.00000  Uiso   1.00
C49    C     0.14068   0.55062   0.66852   0.00000  Uiso   1.00
C50    C     0.04668   0.54396   0.67520   0.00000  Uiso   1.00
C51    C     0.89510   0.55524   0.70192   0.00000  Uiso   1.00
C52    C     0.31923   0.43107   0.63578   0.00000  Uiso   1.00
C53    C     0.38808   0.41734   0.68101   0.00000  Uiso   1.00
C54    C     0.40722   0.34972   0.69339   0.00000  Uiso   1.00
C55    C     0.46434   0.24858   0.73061   0.00000  Uiso   1.00
C56    C     0.29685   0.50377   0.53990   0.00000  Uiso   1.00
C57    C     0.34690   0.55116   0.50452   0.00000  Uiso   1.00
C58    C     0.34722   0.54474   0.43619   0.00000  Uiso   1.00
C59    C     0.36959   0.55648   0.32456   0.00000  Uiso   1.00
C60    C     0.19877   0.40563   0.55646   0.00000  Uiso   1.00
C61    C     0.13683   0.45151   0.59724   0.00000  Uiso   1.00
C62    C     0.04288   0.44478   0.60386   0.00000  Uiso   1.00
C63    C     0.99858   0.49191   0.64339   0.00000  Uiso   1.00
C64    C     0.27123   0.37911   0.60403   0.00000  Uiso   1.00
C65    C     0.29028   0.31149   0.61635   0.00000  Uiso   1.00
C66    C     0.35912   0.29766   0.66159   0.00000  Uiso   1.00
C67    C     0.24884   0.45181   0.50816   0.00000  Uiso   1.00
C68    C     0.24909   0.44531   0.43986   0.00000  Uiso   1.00
C69    C     0.29912   0.49268   0.40439   0.00000  Uiso   1.00
H70    H     0.32455   0.54175   0.63962   0.00000  Uiso   1.00
H71    H     0.17786   0.59083   0.69308   0.00000  Uiso   1.00
H72    H     0.42522   0.45756   0.70556   0.00000  Uiso   1.00
H73    H     0.38404   0.59136   0.52911   0.00000  Uiso   1.00
H74    H     0.99405   0.62231   0.73838   0.00000  Uiso   1.00
H75    H     0.51566   0.34131   0.76467   0.00000  Uiso   1.00
H76    H     0.42883   0.62345   0.39258   0.00000  Uiso   1.00
H77    H     0.16140   0.36517   0.53174   0.00000  Uiso   1.00
H78    H     0.00574   0.40456   0.57929   0.00000  Uiso   1.00
H79    H     0.25311   0.27129   0.59177   0.00000  Uiso   1.00
H80    H     0.21193   0.40509   0.41531   0.00000  Uiso   1.00
H81    H     0.85436   0.47113   0.64602   0.00000  Uiso   1.00
H82    H     0.37597   0.19013   0.67231   0.00000  Uiso   1.00
H83    H     0.28914   0.47227   0.30022   0.00000  Uiso   1.00
O84    O     0.82476   0.57580   0.72544   0.00000  Uiso   1.00
O85    O     0.50910   0.20715   0.75992   0.00000  Uiso   1.00
O86    O     0.39518   0.57731   0.27176   0.00000  Uiso   1.00
N87    N     0.98253   0.58133   0.71010   0.00000  Uiso   1.00
N88    N     0.47020   0.31861   0.73470   0.00000  Uiso   1.00
N89    N     0.38904   0.58238   0.38683   0.00000  Uiso   1.00
N90    N     0.90737   0.49998   0.66041   0.00000  Uiso   1.00
N91    N     0.39503   0.23726   0.68500   0.00000  Uiso   1.00
N92    N     0.31387   0.50103   0.33713   0.00000  Uiso   1.00
C93    C     0.78717   0.99870   0.38510   0.00000  Uiso   1.00
C94    C     0.68484   0.99652   0.37101   0.00000  Uiso   1.00
C95    C     0.64068   0.94938   0.33148   0.00000  Uiso   1.00
C96    C     0.54668   0.95604   0.32480   0.00000  Uiso   1.00
C97    C     0.39510   0.94476   0.29808   0.00000  Uiso   1.00
C98    C     0.81923   0.06893   0.36422   0.00000  Uiso   1.00
C99    C     0.88808   0.08266   0.31899   0.00000  Uiso   1.00
C100   C     0.90722   0.15028   0.30661   0.00000  Uiso   1.00
C101   C     0.96434   0.25142   0.26939   0.00000  Uiso   1.00
C102   C     0.79685   0.99623   0.46010   0.00000  Uiso   1.00
C103   C     0.84690   0.94884   0.49548   0.00000  Uiso   1.00
C104   C     0.84722   0.95526   0.56381   0.00000  Uiso   1.00
C105   C     0.86959   0.94352   0.67544   0.00000  Uiso   1.00
C106   C     0.69877   0.09437   0.44354   0.00000  Uiso   1.00
C107   C     0.63683   0.04849   0.40276   0.00000  Uiso   1.00
C108   C     0.54288   0.05522   0.39614   0.00000  Uiso   1.00
C109   C     0.49858   0.00809   0.35661   0.00000  Uiso   1.00
C110   C     0.77123   0.12089   0.39597   0.00000  Uiso   1.00
C111   C     0.79028   0.18851   0.38365   0.00000  Uiso   1.00
C112   C     0.85912   0.20234   0.33841   0.00000  Uiso   1.00
C113   C     0.74884   0.04819   0.49184   0.00000  Uiso   1.00
C114   C     0.74909   0.05469   0.56014   0.00000  Uiso   1.00
C115   C     0.79912   0.00732   0.59561   0.00000  Uiso   1.00
H116   H     0.82455   0.95825   0.36038   0.00000  Uiso   1.00
H117   H     0.67786   0.90917   0.30692   0.00000  Uiso   1.00
H118   H     0.92522   0.04244   0.29444   0.00000  Uiso   1.00
H119   H     0.88404   0.90864   0.47089   0.00000  Uiso   1.00
H120   H     0.49405   0.87769   0.26162   0.00000  Uiso   1.00
H121   H     0.01566   0.15869   0.23533   0.00000  Uiso   1.00
H122   H     0.92883   0.87655   0.60742   0.00000  Uiso   1.00
H123   H     0.66140   0.13483   0.46826   0.00000  Uiso   1.00
H124   H     0.50574   0.09544   0.42071   0.00000  Uiso   1.00
H125   H     0.75311   0.22871   0.40823   0.00000  Uiso   1.00
H126   H     0.71193   0.09491   0.58469   0.00000  Uiso   1.00
H127   H     0.35436   0.02887   0.35398   0.00000  Uiso   1.00
H128   H     0.87597   0.30987   0.32769   0.00000  Uiso   1.00
H129   H     0.78914   0.02773   0.69978   0.00000  Uiso   1.00
O130   O     0.32476   0.92420   0.27456   0.00000  Uiso   1.00
O131   O     0.00910   0.29285   0.24008   0.00000  Uiso   1.00
O132   O     0.89518   0.92269   0.72824   0.00000  Uiso   1.00
N133   N     0.48253   0.91867   0.28990   0.00000  Uiso   1.00
N134   N     0.97020   0.18139   0.26530   0.00000  Uiso   1.00
N135   N     0.88904   0.91762   0.61317   0.00000  Uiso   1.00
N136   N     0.40737   0.00002   0.33959   0.00000  Uiso   1.00
N137   N     0.89503   0.26274   0.31500   0.00000  Uiso   1.00
N138   N     0.81387   0.99897   0.66287   0.00000  Uiso   1.00
C139   C     0.71283   0.00130   0.88510   0.00000  Uiso   1.00
C140   C     0.81516   0.00348   0.87101   0.00000  Uiso   1.00
C141   C     0.85932   0.05062   0.83148   0.00000  Uiso   1.00
C142   C     0.95332   0.04396   0.82480   0.00000  Uiso   1.00
C143   C     0.10490   0.05524   0.79808   0.00000  Uiso   1.00
C144   C     0.68077   0.93107   0.86422   0.00000  Uiso   1.00
C145   C     0.61192   0.91734   0.81899   0.00000  Uiso   1.00
C146   C     0.59278   0.84972   0.80661   0.00000  Uiso   1.00
C147   C     0.53566   0.74858   0.76939   0.00000  Uiso   1.00
C148   C     0.70315   0.00377   0.96010   0.00000  Uiso   1.00
C149   C     0.65310   0.05116   0.99548   0.00000  Uiso   1.00
C150   C     0.65278   0.04474   0.06381   0.00000  Uiso   1.00
C151   C     0.63041   0.05648   0.17544   0.00000  Uiso   1.00
C152   C     0.80123   0.90563   0.94354   0.00000  Uiso   1.00
C153   C     0.86317   0.95151   0.90276   0.00000  Uiso   1.00
C154   C     0.95712   0.94478   0.89614   0.00000  Uiso   1.00
C155   C     0.00142   0.99191   0.85661   0.00000  Uiso   1.00
C156   C     0.72877   0.87911   0.89597   0.00000  Uiso   1.00
C157   C     0.70972   0.81149   0.88365   0.00000  Uiso   1.00
C158   C     0.64088   0.79766   0.83841   0.00000  Uiso   1.00
C159   C     0.75116   0.95181   0.99184   0.00000  Uiso   1.00
C160   C     0.75091   0.94531   0.06014   0.00000  Uiso   1.00
C161   C     0.70088   0.99268   0.09561   0.00000  Uiso   1.00
H162   H     0.67545   0.04175   0.86038   0.00000  Uiso   1.00
H163   H     0.82214   0.09083   0.80692   0.00000  Uiso   1.00
H164   H     0.57478   0.95756   0.79444   0.00000  Uiso   1.00
H165   H     0.61596   0.09136   0.97089   0.00000  Uiso   1.00
H166   H     0.00595   0.12231   0.76162   0.00000  Uiso   1.00
H167   H     0.48434   0.84131   0.73533   0.00000  Uiso   1.00
H168   H     0.57117   0.12345   0.10742   0.00000  Uiso   1.00
H169   H     0.83860   0.86517   0.96826   0.00000  Uiso   1.00
H170   H     0.99426   0.90456   0.92071   0.00000  Uiso   1.00
H171   H     0.74689   0.77129   0.90823   0.00000  Uiso   1.00
H172   H     0.78807   0.90509   0.08469   0.00000  Uiso   1.00
H173   H     0.14564   0.97113   0.85398   0.00000  Uiso   1.00
H174   H     0.62403   0.69013   0.82769   0.00000  Uiso   1.00
H175   H     0.71086   0.97227   0.19978   0.00000  Uiso   1.00
O176   O     0.17524   0.07580   0.77456   0.00000  Uiso   1.00
O177   O     0.49090   0.70715   0.74008   0.00000  Uiso   1.00
O178   O     0.60482   0.07731   0.22824   0.00000  Uiso   1.00
N179   N     0.01747   0.08133   0.78990   0.00000  Uiso   1.00
N180   N     0.52980   0.81861   0.76530   0.00000  Uiso   1.00
N181   N     0.61096   0.08238   0.11317   0.00000  Uiso   1.00
N182   N     0.09263   0.99998   0.83959   0.00000  Uiso   1.00
N183   N     0.60497   0.73726   0.81500   0.00000  Uiso   1.00
N184   N     0.68613   0.00103   0.16287   0.00000  Uiso   1.00
C185   C     0.78717   0.50130   0.88510   0.00000  Uiso   1.00
C186   C     0.68484   0.50348   0.87101   0.00000  Uiso   1.00
C187   C     0.64068   0.55062   0.83148   0.00000  Uiso   1.00
C188   C     0.54668   0.54396   0.82480   0.00000  Uiso   1.00
C189   C     0.39510   0.55524   0.79808   0.00000  Uiso   1.00
C190   C     0.81923   0.43107   0.86422   0.00000  Uiso   1.00
C191   C     0.88808   0.41734   0.81899   0.00000  Uiso   1.00
C192   C     0.90722   0.34972   0.80661   0.00000  Uiso   1.00
C193   C     0.96434   0.24858   0.76939   0.00000  Uiso   1.00
C194   C     0.79685   0.50377   0.96010   0.00000  Uiso   1.00
C195   C     0.84690   0.55116   0.99548   0.00000  Uiso   1.00
C196   C     0.84722   0.54474   0.06381   0.00000  Uiso   1.00
C197   C     0.86959   0.55648   0.17544   0.00000  Uiso   1.00
C198   C     0.69877   0.40563   0.94354   0.00000  Uiso   1.00
C199   C     0.63683   0.45151   0.90276   0.00000  Uiso   1.00
C200   C     0.54288   0.44478   0.89614   0.00000  Uiso   1.00
C201   C     0.49858   0.49191   0.85661   0.00000  Uiso   1.00
C202   C     0.77123   0.37911   0.89597   0.00000  Uiso   1.00
C203   C     0.79028   0.31149   0.88365   0.00000  Uiso   1.00
C204   C     0.85912   0.29766   0.83841   0.00000  Uiso   1.00
C205   C     0.74884   0.45181   0.99184   0.00000  Uiso   1.00
C206   C     0.74909   0.44531   0.06014   0.00000  Uiso   1.00
C207   C     0.79912   0.49268   0.09561   0.00000  Uiso   1.00
H208   H     0.82455   0.54175   0.86038   0.00000  Uiso   1.00
H209   H     0.67786   0.59083   0.80692   0.00000  Uiso   1.00
H210   H     0.92522   0.45756   0.79444   0.00000  Uiso   1.00
H211   H     0.88404   0.59136   0.97089   0.00000  Uiso   1.00
H212   H     0.49405   0.62231   0.76162   0.00000  Uiso   1.00
H213   H     0.01566   0.34131   0.73533   0.00000  Uiso   1.00
H214   H     0.92883   0.62345   0.10742   0.00000  Uiso   1.00
H215   H     0.66140   0.36517   0.96826   0.00000  Uiso   1.00
H216   H     0.50574   0.40456   0.92071   0.00000  Uiso   1.00
H217   H     0.75311   0.27129   0.90823   0.00000  Uiso   1.00
H218   H     0.71193   0.40509   0.08469   0.00000  Uiso   1.00
H219   H     0.35436   0.47113   0.85398   0.00000  Uiso   1.00
H220   H     0.87597   0.19013   0.82769   0.00000  Uiso   1.00
H221   H     0.78914   0.47227   0.19978   0.00000  Uiso   1.00
O222   O     0.32476   0.57580   0.77456   0.00000  Uiso   1.00
O223   O     0.00910   0.20715   0.74008   0.00000  Uiso   1.00
O224   O     0.89518   0.57731   0.22824   0.00000  Uiso   1.00
N225   N     0.48253   0.58133   0.78990   0.00000  Uiso   1.00
N226   N     0.97020   0.31861   0.76530   0.00000  Uiso   1.00
N227   N     0.88904   0.58238   0.11317   0.00000  Uiso   1.00
N228   N     0.40737   0.49998   0.83959   0.00000  Uiso   1.00
N229   N     0.89503   0.23726   0.81500   0.00000  Uiso   1.00
N230   N     0.81387   0.50103   0.16287   0.00000  Uiso   1.00
C231   C     0.71283   0.49870   0.38510   0.00000  Uiso   1.00
C232   C     0.81516   0.49652   0.37101   0.00000  Uiso   1.00
C233   C     0.85932   0.44938   0.33148   0.00000  Uiso   1.00
C234   C     0.95332   0.45604   0.32480   0.00000  Uiso   1.00
C235   C     0.10490   0.44476   0.29808   0.00000  Uiso   1.00
C236   C     0.68077   0.56893   0.36422   0.00000  Uiso   1.00
C237   C     0.61192   0.58266   0.31899   0.00000  Uiso   1.00
C238   C     0.59278   0.65028   0.30661   0.00000  Uiso   1.00
C239   C     0.53566   0.75142   0.26939   0.00000  Uiso   1.00
C240   C     0.70315   0.49623   0.46010   0.00000  Uiso   1.00
C241   C     0.65310   0.44884   0.49548   0.00000  Uiso   1.00
C242   C     0.65278   0.45526   0.56381   0.00000  Uiso   1.00
C243   C     0.63041   0.44352   0.67544   0.00000  Uiso   1.00
C244   C     0.80123   0.59437   0.44354   0.00000  Uiso   1.00
C245   C     0.86317   0.54849   0.40276   0.00000  Uiso   1.00
C246   C     0.95712   0.55522   0.39614   0.00000  Uiso   1.00
C247   C     0.00142   0.50809   0.35661   0.00000  Uiso   1.00
C248   C     0.72877   0.62089   0.39597   0.00000  Uiso   1.00
C249   C     0.70972   0.68851   0.38365   0.00000  Uiso   1.00
C250   C     0.64088   0.70234   0.33841   0.00000  Uiso   1.00
C251   C     0.75116   0.54819   0.49184   0.00000  Uiso   1.00
C252   C     0.75091   0.55469   0.56014   0.00000  Uiso   1.00
C253   C     0.70088   0.50732   0.59561   0.00000  Uiso   1.00
H254   H     0.67545   0.45825   0.36038   0.00000  Uiso   1.00
H255   H     0.82214   0.40917   0.30692   0.00000  Uiso   1.00
H256   H     0.57478   0.54244   0.29444   0.00000  Uiso   1.00
H257   H     0.61596   0.40864   0.47089   0.00000  Uiso   1.00
H258   H     0.00595   0.37769   0.26162   0.00000  Uiso   1.00
H259   H     0.48434   0.65869   0.23533   0.00000  Uiso   1.00
H260   H     0.57117   0.37655   0.60742   0.00000  Uiso   1.00
H261   H     0.83860   0.63483   0.46826   0.00000  Uiso   1.00
H262   H     0.99426   0.59544   0.42071   0.00000  Uiso   1.00
H263   H     0.74689   0.72871   0.40823   0.00000  Uiso   1.00
H264   H     0.78807   0.59491   0.58469   0.00000  Uiso   1.00
H265   H     0.14564   0.52887   0.35398   0.00000  Uiso   1.00
H266   H     0.62403   0.80987   0.32769   0.00000  Uiso   1.00
H267   H     0.71086   0.52773   0.69978   0.00000  Uiso   1.00
O268   O     0.17524   0.42420   0.27456   0.00000  Uiso   1.00
O269   O     0.49090   0.79285   0.24008   0.00000  Uiso   1.00
O270   O     0.60482   0.42269   0.72824   0.00000  Uiso   1.00
N271   N     0.01747   0.41867   0.28990   0.00000  Uiso   1.00
N272   N     0.52980   0.68139   0.26530   0.00000  Uiso   1.00
N273   N     0.61096   0.41762   0.61317   0.00000  Uiso   1.00
N274   N     0.09263   0.50002   0.33959   0.00000  Uiso   1.00
N275   N     0.60497   0.76274   0.31500   0.00000  Uiso   1.00
N276   N     0.68613   0.49897   0.66287   0.00000  Uiso   1.00
C277   C     0.21283   0.00130   0.61490   0.00000  Uiso   1.00
C278   C     0.31516   0.00348   0.62899   0.00000  Uiso   1.00
C279   C     0.35932   0.05062   0.66852   0.00000  Uiso   1.00
C280   C     0.45332   0.04396   0.67520   0.00000  Uiso   1.00
C281   C     0.60490   0.05524   0.70192   0.00000  Uiso   1.00
C282   C     0.18077   0.93107   0.63578   0.00000  Uiso   1.00
C283   C     0.11192   0.91734   0.68101   0.00000  Uiso   1.00
C284   C     0.09278   0.84972   0.69339   0.00000  Uiso   1.00
C285   C     0.03566   0.74858   0.73061   0.00000  Uiso   1.00
C286   C     0.20315   0.00377   0.53990   0.00000  Uiso   1.00
C287   C     0.15310   0.05116   0.50452   0.00000  Uiso   1.00
C288   C     0.15278   0.04474   0.43619   0.00000  Uiso   1.00
C289   C     0.13041   0.05648   0.32456   0.00000  Uiso   1.00
C290   C     0.30123   0.90563   0.55646   0.00000  Uiso   1.00
C291   C     0.36317   0.95151   0.59724   0.00000  Uiso   1.00
C292   C     0.45712   0.94478   0.60386   0.00000  Uiso   1.00
C293   C     0.50142   0.99191   0.64339   0.00000  Uiso   1.00
C294   C     0.22877   0.87911   0.60403   0.00000  Uiso   1.00
C295   C     0.20972   0.81149   0.61635   0.00000  Uiso   1.00
C296   C     0.14088   0.79766   0.66159   0.00000  Uiso   1.00
C297   C     0.25116   0.95181   0.50816   0.00000  Uiso   1.00
C298   C     0.25091   0.94531   0.43986   0.00000  Uiso   1.00
C299   C     0.20088   0.99268   0.40439   0.00000  Uiso   1.00
H300   H     0.17545   0.04175   0.63962   0.00000  Uiso   1.00
H301   H     0.32214   0.09083   0.69308   0.00000  Uiso   1.00
H302   H     0.07478   0.95756   0.70556   0.00000  Uiso   1.00
H303   H     0.11596   0.09136   0.52911   0.00000  Uiso   1.00
H304   H     0.50595   0.12231   0.73838   0.00000  Uiso   1.00
H305   H     0.98434   0.84131   0.76467   0.00000  Uiso   1.00
H306   H     0.07117   0.12345   0.39258   0.00000  Uiso   1.00
H307   H     0.33860   0.86517   0.53174   0.00000  Uiso   1.00
H308   H     0.49426   0.90456   0.57929   0.00000  Uiso   1.00
H309   H     0.24689   0.77129   0.59177   0.00000  Uiso   1.00
H310   H     0.28807   0.90509   0.41531   0.00000  Uiso   1.00
H311   H     0.64564   0.97113   0.64602   0.00000  Uiso   1.00
H312   H     0.12403   0.69013   0.67231   0.00000  Uiso   1.00
H313   H     0.21086   0.97227   0.30022   0.00000  Uiso   1.00
O314   O     0.67524   0.07580   0.72544   0.00000  Uiso   1.00
O315   O     0.99090   0.70715   0.75992   0.00000  Uiso   1.00
O316   O     0.10482   0.07731   0.27176   0.00000  Uiso   1.00
N317   N     0.51747   0.08133   0.71010   0.00000  Uiso   1.00
N318   N     0.02980   0.81861   0.73470   0.00000  Uiso   1.00
N319   N     0.11096   0.08238   0.38683   0.00000  Uiso   1.00
N320   N     0.59263   0.99998   0.66041   0.00000  Uiso   1.00
N321   N     0.10497   0.73726   0.68500   0.00000  Uiso   1.00
N322   N     0.18613   0.00103   0.33713   0.00000  Uiso   1.00
C323   C     0.28717   0.99870   0.11490   0.00000  Uiso   1.00
C324   C     0.18484   0.99652   0.12899   0.00000  Uiso   1.00
C325   C     0.14068   0.94938   0.16852   0.00000  Uiso   1.00
C326   C     0.04668   0.95604   0.17520   0.00000  Uiso   1.00
C327   C     0.89510   0.94476   0.20192   0.00000  Uiso   1.00
C328   C     0.31923   0.06893   0.13578   0.00000  Uiso   1.00
C329   C     0.38808   0.08266   0.18101   0.00000  Uiso   1.00
C330   C     0.40722   0.15028   0.19339   0.00000  Uiso   1.00
C331   C     0.46434   0.25142   0.23061   0.00000  Uiso   1.00
C332   C     0.29685   0.99623   0.03990   0.00000  Uiso   1.00
C333   C     0.34690   0.94884   0.00452   0.00000  Uiso   1.00
C334   C     0.34722   0.95526   0.93619   0.00000  Uiso   1.00
C335   C     0.36959   0.94352   0.82456   0.00000  Uiso   1.00
C336   C     0.19877   0.09437   0.05646   0.00000  Uiso   1.00
C337   C     0.13683   0.04849   0.09724   0.00000  Uiso   1.00
C338   C     0.04288   0.05522   0.10386   0.00000  Uiso   1.00
C339   C     0.99858   0.00809   0.14339   0.00000  Uiso   1.00
C340   C     0.27123   0.12089   0.10403   0.00000  Uiso   1.00
C341   C     0.29028   0.18851   0.11635   0.00000  Uiso   1.00
C342   C     0.35912   0.20234   0.16159   0.00000  Uiso   1.00
C343   C     0.24884   0.04819   0.00816   0.00000  Uiso   1.00
C344   C     0.24909   0.05469   0.93986   0.00000  Uiso   1.00
C345   C     0.29912   0.00732   0.90439   0.00000  Uiso   1.00
H346   H     0.32455   0.95825   0.13962   0.00000  Uiso   1.00
H347   H     0.17786   0.90917   0.19308   0.00000  Uiso   1.00
H348   H     0.42522   0.04244   0.20556   0.00000  Uiso   1.00
H349   H     0.38404   0.90864   0.02911   0.00000  Uiso   1.00
H350   H     0.99405   0.87769   0.23838   0.00000  Uiso   1.00
H351   H     0.51566   0.15869   0.26467   0.00000  Uiso   1.00
H352   H     0.42883   0.87655   0.89258   0.00000  Uiso   1.00
H353   H     0.16140   0.13483   0.03174   0.00000  Uiso   1.00
H354   H     0.00574   0.09544   0.07929   0.00000  Uiso   1.00
H355   H     0.25311   0.22871   0.09177   0.00000  Uiso   1.00
H356   H     0.21193   0.09491   0.91531   0.00000  Uiso   1.00
H357   H     0.85436   0.02887   0.14602   0.00000  Uiso   1.00
H358   H     0.37597   0.30987   0.17231   0.00000  Uiso   1.00
H359   H     0.28914   0.02773   0.80022   0.00000  Uiso   1.00
O360   O     0.82476   0.92420   0.22544   0.00000  Uiso   1.00
O361   O     0.50910   0.29285   0.25992   0.00000  Uiso   1.00
O362   O     0.39518   0.92269   0.77176   0.00000  Uiso   1.00
N363   N     0.98253   0.91867   0.21010   0.00000  Uiso   1.00
N364   N     0.47020   0.18139   0.23470   0.00000  Uiso   1.00
N365   N     0.38904   0.91762   0.88683   0.00000  Uiso   1.00
N366   N     0.90737   0.00002   0.16041   0.00000  Uiso   1.00
N367   N     0.39503   0.26274   0.18500   0.00000  Uiso   1.00
N368   N     0.31387   0.99897   0.83713   0.00000  Uiso   1.00
