data_job_05476
_audit_creation_date              2018-12-19
_audit_creation_method            'Materials Studio'
_symmetry_space_group_name_H-M    'P1'
_symmetry_Int_Tables_number       1
_symmetry_cell_setting            triclinic
loop_
_symmetry_equiv_pos_as_xyz
  x,y,z
_cell_length_a                    15.2443
_cell_length_b                    12.4602
_cell_length_c                    31.3977
_cell_angle_alpha                 90.0000
_cell_angle_beta                  110.9743
_cell_angle_gamma                 90.0000
loop_
_atom_site_label
_atom_site_type_symbol
_atom_site_fract_x
_atom_site_fract_y
_atom_site_fract_z
_atom_site_U_iso_or_equiv
_atom_site_adp_type
_atom_site_occupancy
C1     C     0.11084   0.33380   0.10111   0.00000  Uiso   1.00
C2     C     0.00701   0.35015   0.07303   0.00000  Uiso   1.00
C3     C     0.96530   0.33694   0.02617   0.00000  Uiso   1.00
C4     C     0.86934   0.35578   0.00688   0.00000  Uiso   1.00
C5     C     0.71607   0.37651   0.95921   0.00000  Uiso   1.00
C6     C     0.14498   0.43908   0.12638   0.00000  Uiso   1.00
C7     C     0.21929   0.50064   0.12438   0.00000  Uiso   1.00
C8     C     0.23948   0.59433   0.15001   0.00000  Uiso   1.00
C9     C     0.30046   0.75310   0.18519   0.00000  Uiso   1.00
C10    C     0.11458   0.25120   0.13756   0.00000  Uiso   1.00
C11    C     0.16334   0.15479   0.14498   0.00000  Uiso   1.00
C12    C     0.15795   0.09031   0.18002   0.00000  Uiso   1.00
C13    C     0.17173   0.95736   0.23257   0.00000  Uiso   1.00
C14    C     0.01458   0.39074   0.15017   0.00000  Uiso   1.00
C15    C     0.95473   0.38108   0.09968   0.00000  Uiso   1.00
C16    C     0.85880   0.39994   0.08045   0.00000  Uiso   1.00
C17    C     0.81696   0.38676   0.03358   0.00000  Uiso   1.00
C18    C     0.09270   0.47001   0.15302   0.00000  Uiso   1.00
C19    C     0.11279   0.56364   0.17866   0.00000  Uiso   1.00
C20    C     0.18710   0.62532   0.17670   0.00000  Uiso   1.00
C21    C     0.06229   0.28213   0.16421   0.00000  Uiso   1.00
C22    C     0.05684   0.21779   0.19925   0.00000  Uiso   1.00
C23    C     0.10558   0.12130   0.20672   0.00000  Uiso   1.00
H24    H     0.15155   0.30973   0.08037   0.00000  Uiso   1.00
H25    H     0.00579   0.31301   0.00556   0.00000  Uiso   1.00
H26    H     0.25974   0.47668   0.10376   0.00000  Uiso   1.00
H27    H     0.20380   0.13088   0.12435   0.00000  Uiso   1.00
H28    H     0.82113   0.33034   0.93437   0.00000  Uiso   1.00
H29    H     0.35663   0.67541   0.14144   0.00000  Uiso   1.00
H30    H     0.23866   0.94624   0.18486   0.00000  Uiso   1.00
H31    H     0.97388   0.41482   0.17092   0.00000  Uiso   1.00
H32    H     0.81836   0.42387   0.10108   0.00000  Uiso   1.00
H33    H     0.07232   0.58754   0.19928   0.00000  Uiso   1.00
H34    H     0.01637   0.24175   0.21987   0.00000  Uiso   1.00
H35    H     0.66901   0.42032   0.01190   0.00000  Uiso   1.00
H36    H     0.20451   0.76539   0.21897   0.00000  Uiso   1.00
H37    H     0.08654   0.03622   0.26238   0.00000  Uiso   1.00
O38    O     0.64598   0.37942   0.92556   0.00000  Uiso   1.00
O39    O     0.34854   0.83213   0.19723   0.00000  Uiso   1.00
O40    O     0.19376   0.87547   0.25419   0.00000  Uiso   1.00
N41    N     0.80667   0.35025   0.96221   0.00000  Uiso   1.00
N42    N     0.30732   0.67288   0.15580   0.00000  Uiso   1.00
N43    N     0.19705   0.99118   0.19639   0.00000  Uiso   1.00
N44    N     0.72481   0.39867   0.00392   0.00000  Uiso   1.00
N45    N     0.22546   0.72130   0.19751   0.00000  Uiso   1.00
N46    N     0.11519   0.03960   0.23811   0.00000  Uiso   1.00
C47    C     0.61084   0.83380   0.10111   0.00000  Uiso   1.00
C48    C     0.50701   0.85015   0.07303   0.00000  Uiso   1.00
C49    C     0.46530   0.83694   0.02617   0.00000  Uiso   1.00
C50    C     0.36934   0.85578   0.00688   0.00000  Uiso   1.00
C51    C     0.21607   0.87651   0.95921   0.00000  Uiso   1.00
C52    C     0.64498   0.93908   0.12638   0.00000  Uiso   1.00
C53    C     0.71929   0.00064   0.12438   0.00000  Uiso   1.00
C54    C     0.73948   0.09433   0.15001   0.00000  Uiso   1.00
C55    C     0.80046   0.25310   0.18519   0.00000  Uiso   1.00
C56    C     0.61458   0.75120   0.13756   0.00000  Uiso   1.00
C57    C     0.66334   0.65479   0.14498   0.00000  Uiso   1.00
C58    C     0.65795   0.59031   0.18002   0.00000  Uiso   1.00
C59    C     0.67173   0.45736   0.23257   0.00000  Uiso   1.00
C60    C     0.51458   0.89074   0.15017   0.00000  Uiso   1.00
C61    C     0.45473   0.88108   0.09968   0.00000  Uiso   1.00
C62    C     0.35880   0.89994   0.08045   0.00000  Uiso   1.00
C63    C     0.31696   0.88676   0.03358   0.00000  Uiso   1.00
C64    C     0.59270   0.97001   0.15302   0.00000  Uiso   1.00
C65    C     0.61279   0.06364   0.17866   0.00000  Uiso   1.00
C66    C     0.68710   0.12532   0.17670   0.00000  Uiso   1.00
C67    C     0.56229   0.78213   0.16421   0.00000  Uiso   1.00
C68    C     0.55684   0.71779   0.19925   0.00000  Uiso   1.00
C69    C     0.60558   0.62130   0.20672   0.00000  Uiso   1.00
H70    H     0.65155   0.80973   0.08037   0.00000  Uiso   1.00
H71    H     0.50579   0.81301   0.00556   0.00000  Uiso   1.00
H72    H     0.75974   0.97668   0.10376   0.00000  Uiso   1.00
H73    H     0.70380   0.63088   0.12435   0.00000  Uiso   1.00
H74    H     0.32113   0.83034   0.93437   0.00000  Uiso   1.00
H75    H     0.85663   0.17541   0.14144   0.00000  Uiso   1.00
H76    H     0.73866   0.44624   0.18486   0.00000  Uiso   1.00
H77    H     0.47388   0.91482   0.17092   0.00000  Uiso   1.00
H78    H     0.31836   0.92387   0.10108   0.00000  Uiso   1.00
H79    H     0.57232   0.08754   0.19928   0.00000  Uiso   1.00
H80    H     0.51637   0.74175   0.21987   0.00000  Uiso   1.00
H81    H     0.16901   0.92032   0.01190   0.00000  Uiso   1.00
H82    H     0.70451   0.26539   0.21897   0.00000  Uiso   1.00
H83    H     0.58654   0.53622   0.26238   0.00000  Uiso   1.00
O84    O     0.14598   0.87942   0.92556   0.00000  Uiso   1.00
O85    O     0.84854   0.33213   0.19723   0.00000  Uiso   1.00
O86    O     0.69376   0.37547   0.25419   0.00000  Uiso   1.00
N87    N     0.30667   0.85025   0.96221   0.00000  Uiso   1.00
N88    N     0.80732   0.17288   0.15580   0.00000  Uiso   1.00
N89    N     0.69705   0.49118   0.19639   0.00000  Uiso   1.00
N90    N     0.22481   0.89867   0.00392   0.00000  Uiso   1.00
N91    N     0.72546   0.22130   0.19751   0.00000  Uiso   1.00
N92    N     0.61519   0.53960   0.23811   0.00000  Uiso   1.00
C93    C     0.88916   0.33380   0.39889   0.00000  Uiso   1.00
C94    C     0.99299   0.35015   0.42697   0.00000  Uiso   1.00
C95    C     0.03470   0.33694   0.47383   0.00000  Uiso   1.00
C96    C     0.13066   0.35578   0.49312   0.00000  Uiso   1.00
C97    C     0.28393   0.37651   0.54079   0.00000  Uiso   1.00
C98    C     0.85502   0.43908   0.37362   0.00000  Uiso   1.00
C99    C     0.78071   0.50064   0.37562   0.00000  Uiso   1.00
C100   C     0.76052   0.59433   0.34999   0.00000  Uiso   1.00
C101   C     0.69954   0.75310   0.31481   0.00000  Uiso   1.00
C102   C     0.88542   0.25120   0.36244   0.00000  Uiso   1.00
C103   C     0.83666   0.15479   0.35502   0.00000  Uiso   1.00
C104   C     0.84205   0.09031   0.31998   0.00000  Uiso   1.00
C105   C     0.82827   0.95736   0.26743   0.00000  Uiso   1.00
C106   C     0.98542   0.39074   0.34983   0.00000  Uiso   1.00
C107   C     0.04527   0.38108   0.40032   0.00000  Uiso   1.00
C108   C     0.14120   0.39994   0.41955   0.00000  Uiso   1.00
C109   C     0.18304   0.38676   0.46642   0.00000  Uiso   1.00
C110   C     0.90730   0.47001   0.34698   0.00000  Uiso   1.00
C111   C     0.88721   0.56364   0.32134   0.00000  Uiso   1.00
C112   C     0.81290   0.62532   0.32330   0.00000  Uiso   1.00
C113   C     0.93771   0.28213   0.33579   0.00000  Uiso   1.00
C114   C     0.94316   0.21779   0.30075   0.00000  Uiso   1.00
C115   C     0.89442   0.12130   0.29328   0.00000  Uiso   1.00
H116   H     0.84845   0.30973   0.41963   0.00000  Uiso   1.00
H117   H     0.99421   0.31301   0.49444   0.00000  Uiso   1.00
H118   H     0.74026   0.47668   0.39624   0.00000  Uiso   1.00
H119   H     0.79620   0.13088   0.37565   0.00000  Uiso   1.00
H120   H     0.17887   0.33034   0.56563   0.00000  Uiso   1.00
H121   H     0.64337   0.67541   0.35856   0.00000  Uiso   1.00
H122   H     0.76134   0.94624   0.31514   0.00000  Uiso   1.00
H123   H     0.02612   0.41482   0.32908   0.00000  Uiso   1.00
H124   H     0.18164   0.42387   0.39892   0.00000  Uiso   1.00
H125   H     0.92768   0.58754   0.30072   0.00000  Uiso   1.00
H126   H     0.98363   0.24175   0.28013   0.00000  Uiso   1.00
H127   H     0.33099   0.42032   0.48810   0.00000  Uiso   1.00
H128   H     0.79549   0.76539   0.28103   0.00000  Uiso   1.00
H129   H     0.91346   0.03622   0.23762   0.00000  Uiso   1.00
O130   O     0.35402   0.37942   0.57444   0.00000  Uiso   1.00
O131   O     0.65146   0.83213   0.30277   0.00000  Uiso   1.00
O132   O     0.80624   0.87547   0.24581   0.00000  Uiso   1.00
N133   N     0.19333   0.35025   0.53779   0.00000  Uiso   1.00
N134   N     0.69268   0.67288   0.34420   0.00000  Uiso   1.00
N135   N     0.80295   0.99118   0.30361   0.00000  Uiso   1.00
N136   N     0.27519   0.39867   0.49608   0.00000  Uiso   1.00
N137   N     0.77454   0.72130   0.30249   0.00000  Uiso   1.00
N138   N     0.88481   0.03960   0.26189   0.00000  Uiso   1.00
C139   C     0.38916   0.83380   0.39889   0.00000  Uiso   1.00
C140   C     0.49299   0.85015   0.42697   0.00000  Uiso   1.00
C141   C     0.53470   0.83694   0.47383   0.00000  Uiso   1.00
C142   C     0.63066   0.85578   0.49312   0.00000  Uiso   1.00
C143   C     0.78393   0.87651   0.54079   0.00000  Uiso   1.00
C144   C     0.35502   0.93908   0.37362   0.00000  Uiso   1.00
C145   C     0.28071   0.00064   0.37562   0.00000  Uiso   1.00
C146   C     0.26052   0.09433   0.34999   0.00000  Uiso   1.00
C147   C     0.19954   0.25310   0.31481   0.00000  Uiso   1.00
C148   C     0.38542   0.75120   0.36244   0.00000  Uiso   1.00
C149   C     0.33666   0.65479   0.35502   0.00000  Uiso   1.00
C150   C     0.34205   0.59031   0.31998   0.00000  Uiso   1.00
C151   C     0.32827   0.45736   0.26743   0.00000  Uiso   1.00
C152   C     0.48542   0.89074   0.34983   0.00000  Uiso   1.00
C153   C     0.54527   0.88108   0.40032   0.00000  Uiso   1.00
C154   C     0.64120   0.89994   0.41955   0.00000  Uiso   1.00
C155   C     0.68304   0.88676   0.46642   0.00000  Uiso   1.00
C156   C     0.40730   0.97001   0.34698   0.00000  Uiso   1.00
C157   C     0.38721   0.06364   0.32134   0.00000  Uiso   1.00
C158   C     0.31290   0.12532   0.32330   0.00000  Uiso   1.00
C159   C     0.43771   0.78213   0.33579   0.00000  Uiso   1.00
C160   C     0.44316   0.71779   0.30075   0.00000  Uiso   1.00
C161   C     0.39442   0.62130   0.29328   0.00000  Uiso   1.00
H162   H     0.34845   0.80973   0.41963   0.00000  Uiso   1.00
H163   H     0.49421   0.81301   0.49444   0.00000  Uiso   1.00
H164   H     0.24026   0.97668   0.39624   0.00000  Uiso   1.00
H165   H     0.29620   0.63088   0.37565   0.00000  Uiso   1.00
H166   H     0.67887   0.83034   0.56563   0.00000  Uiso   1.00
H167   H     0.14337   0.17541   0.35856   0.00000  Uiso   1.00
H168   H     0.26134   0.44624   0.31514   0.00000  Uiso   1.00
H169   H     0.52612   0.91482   0.32908   0.00000  Uiso   1.00
H170   H     0.68164   0.92387   0.39892   0.00000  Uiso   1.00
H171   H     0.42768   0.08754   0.30072   0.00000  Uiso   1.00
H172   H     0.48363   0.74175   0.28013   0.00000  Uiso   1.00
H173   H     0.83099   0.92032   0.48810   0.00000  Uiso   1.00
H174   H     0.29549   0.26539   0.28103   0.00000  Uiso   1.00
H175   H     0.41346   0.53622   0.23762   0.00000  Uiso   1.00
O176   O     0.85402   0.87942   0.57444   0.00000  Uiso   1.00
O177   O     0.15146   0.33213   0.30277   0.00000  Uiso   1.00
O178   O     0.30624   0.37547   0.24581   0.00000  Uiso   1.00
N179   N     0.69333   0.85025   0.53779   0.00000  Uiso   1.00
N180   N     0.19268   0.17288   0.34420   0.00000  Uiso   1.00
N181   N     0.30295   0.49118   0.30361   0.00000  Uiso   1.00
N182   N     0.77519   0.89867   0.49608   0.00000  Uiso   1.00
N183   N     0.27454   0.22130   0.30249   0.00000  Uiso   1.00
N184   N     0.38481   0.53960   0.26189   0.00000  Uiso   1.00
C185   C     0.88916   0.66620   0.89889   0.00000  Uiso   1.00
C186   C     0.99299   0.64985   0.92697   0.00000  Uiso   1.00
C187   C     0.03470   0.66306   0.97383   0.00000  Uiso   1.00
C188   C     0.13066   0.64422   0.99312   0.00000  Uiso   1.00
C189   C     0.28393   0.62349   0.04079   0.00000  Uiso   1.00
C190   C     0.85502   0.56092   0.87362   0.00000  Uiso   1.00
C191   C     0.78071   0.49936   0.87562   0.00000  Uiso   1.00
C192   C     0.76052   0.40567   0.84999   0.00000  Uiso   1.00
C193   C     0.69954   0.24690   0.81481   0.00000  Uiso   1.00
C194   C     0.88542   0.74880   0.86244   0.00000  Uiso   1.00
C195   C     0.83666   0.84521   0.85502   0.00000  Uiso   1.00
C196   C     0.84205   0.90969   0.81998   0.00000  Uiso   1.00
C197   C     0.82827   0.04264   0.76743   0.00000  Uiso   1.00
C198   C     0.98542   0.60926   0.84983   0.00000  Uiso   1.00
C199   C     0.04527   0.61892   0.90032   0.00000  Uiso   1.00
C200   C     0.14120   0.60006   0.91955   0.00000  Uiso   1.00
C201   C     0.18304   0.61324   0.96642   0.00000  Uiso   1.00
C202   C     0.90730   0.52999   0.84698   0.00000  Uiso   1.00
C203   C     0.88721   0.43636   0.82134   0.00000  Uiso   1.00
C204   C     0.81290   0.37468   0.82330   0.00000  Uiso   1.00
C205   C     0.93771   0.71787   0.83579   0.00000  Uiso   1.00
C206   C     0.94316   0.78221   0.80075   0.00000  Uiso   1.00
C207   C     0.89442   0.87870   0.79328   0.00000  Uiso   1.00
H208   H     0.84845   0.69027   0.91963   0.00000  Uiso   1.00
H209   H     0.99421   0.68699   0.99444   0.00000  Uiso   1.00
H210   H     0.74026   0.52332   0.89624   0.00000  Uiso   1.00
H211   H     0.79620   0.86912   0.87565   0.00000  Uiso   1.00
H212   H     0.17887   0.66966   0.06563   0.00000  Uiso   1.00
H213   H     0.64337   0.32459   0.85856   0.00000  Uiso   1.00
H214   H     0.76134   0.05376   0.81514   0.00000  Uiso   1.00
H215   H     0.02612   0.58518   0.82908   0.00000  Uiso   1.00
H216   H     0.18164   0.57613   0.89892   0.00000  Uiso   1.00
H217   H     0.92768   0.41246   0.80072   0.00000  Uiso   1.00
H218   H     0.98363   0.75825   0.78013   0.00000  Uiso   1.00
H219   H     0.33099   0.57968   0.98810   0.00000  Uiso   1.00
H220   H     0.79549   0.23461   0.78103   0.00000  Uiso   1.00
H221   H     0.91346   0.96378   0.73762   0.00000  Uiso   1.00
O222   O     0.35402   0.62058   0.07444   0.00000  Uiso   1.00
O223   O     0.65146   0.16787   0.80277   0.00000  Uiso   1.00
O224   O     0.80624   0.12453   0.74581   0.00000  Uiso   1.00
N225   N     0.19333   0.64975   0.03779   0.00000  Uiso   1.00
N226   N     0.69268   0.32712   0.84420   0.00000  Uiso   1.00
N227   N     0.80295   0.00882   0.80361   0.00000  Uiso   1.00
N228   N     0.27519   0.60133   0.99608   0.00000  Uiso   1.00
N229   N     0.77454   0.27870   0.80249   0.00000  Uiso   1.00
N230   N     0.88481   0.96040   0.76189   0.00000  Uiso   1.00
C231   C     0.38916   0.16620   0.89889   0.00000  Uiso   1.00
C232   C     0.49299   0.14985   0.92697   0.00000  Uiso   1.00
C233   C     0.53470   0.16306   0.97383   0.00000  Uiso   1.00
C234   C     0.63066   0.14422   0.99312   0.00000  Uiso   1.00
C235   C     0.78393   0.12349   0.04079   0.00000  Uiso   1.00
C236   C     0.35502   0.06092   0.87362   0.00000  Uiso   1.00
C237   C     0.28071   0.99936   0.87562   0.00000  Uiso   1.00
C238   C     0.26052   0.90567   0.84999   0.00000  Uiso   1.00
C239   C     0.19954   0.74690   0.81481   0.00000  Uiso   1.00
C240   C     0.38542   0.24880   0.86244   0.00000  Uiso   1.00
C241   C     0.33666   0.34521   0.85502   0.00000  Uiso   1.00
C242   C     0.34205   0.40969   0.81998   0.00000  Uiso   1.00
C243   C     0.32827   0.54264   0.76743   0.00000  Uiso   1.00
C244   C     0.48542   0.10926   0.84983   0.00000  Uiso   1.00
C245   C     0.54527   0.11892   0.90032   0.00000  Uiso   1.00
C246   C     0.64120   0.10006   0.91955   0.00000  Uiso   1.00
C247   C     0.68304   0.11324   0.96642   0.00000  Uiso   1.00
C248   C     0.40730   0.02999   0.84698   0.00000  Uiso   1.00
C249   C     0.38721   0.93636   0.82134   0.00000  Uiso   1.00
C250   C     0.31290   0.87468   0.82330   0.00000  Uiso   1.00
C251   C     0.43771   0.21787   0.83579   0.00000  Uiso   1.00
C252   C     0.44316   0.28221   0.80075   0.00000  Uiso   1.00
C253   C     0.39442   0.37870   0.79328   0.00000  Uiso   1.00
H254   H     0.34845   0.19027   0.91963   0.00000  Uiso   1.00
H255   H     0.49421   0.18699   0.99444   0.00000  Uiso   1.00
H256   H     0.24026   0.02332   0.89624   0.00000  Uiso   1.00
H257   H     0.29620   0.36912   0.87565   0.00000  Uiso   1.00
H258   H     0.67887   0.16966   0.06563   0.00000  Uiso   1.00
H259   H     0.14337   0.82459   0.85856   0.00000  Uiso   1.00
H260   H     0.26134   0.55376   0.81514   0.00000  Uiso   1.00
H261   H     0.52612   0.08518   0.82908   0.00000  Uiso   1.00
H262   H     0.68164   0.07613   0.89892   0.00000  Uiso   1.00
H263   H     0.42768   0.91246   0.80072   0.00000  Uiso   1.00
H264   H     0.48363   0.25825   0.78013   0.00000  Uiso   1.00
H265   H     0.83099   0.07968   0.98810   0.00000  Uiso   1.00
H266   H     0.29549   0.73461   0.78103   0.00000  Uiso   1.00
H267   H     0.41346   0.46378   0.73762   0.00000  Uiso   1.00
O268   O     0.85402   0.12058   0.07444   0.00000  Uiso   1.00
O269   O     0.15146   0.66787   0.80277   0.00000  Uiso   1.00
O270   O     0.30624   0.62453   0.74581   0.00000  Uiso   1.00
N271   N     0.69333   0.14975   0.03779   0.00000  Uiso   1.00
N272   N     0.19268   0.82712   0.84420   0.00000  Uiso   1.00
N273   N     0.30295   0.50882   0.80361   0.00000  Uiso   1.00
N274   N     0.77519   0.10133   0.99608   0.00000  Uiso   1.00
N275   N     0.27454   0.77870   0.80249   0.00000  Uiso   1.00
N276   N     0.38481   0.46040   0.76189   0.00000  Uiso   1.00
C277   C     0.11084   0.66620   0.60111   0.00000  Uiso   1.00
C278   C     0.00701   0.64985   0.57303   0.00000  Uiso   1.00
C279   C     0.96530   0.66306   0.52617   0.00000  Uiso   1.00
C280   C     0.86934   0.64422   0.50688   0.00000  Uiso   1.00
C281   C     0.71607   0.62349   0.45921   0.00000  Uiso   1.00
C282   C     0.14498   0.56092   0.62638   0.00000  Uiso   1.00
C283   C     0.21929   0.49936   0.62438   0.00000  Uiso   1.00
C284   C     0.23948   0.40567   0.65001   0.00000  Uiso   1.00
C285   C     0.30046   0.24690   0.68519   0.00000  Uiso   1.00
C286   C     0.11458   0.74880   0.63756   0.00000  Uiso   1.00
C287   C     0.16334   0.84521   0.64498   0.00000  Uiso   1.00
C288   C     0.15795   0.90969   0.68002   0.00000  Uiso   1.00
C289   C     0.17173   0.04264   0.73257   0.00000  Uiso   1.00
C290   C     0.01458   0.60926   0.65017   0.00000  Uiso   1.00
C291   C     0.95473   0.61892   0.59968   0.00000  Uiso   1.00
C292   C     0.85880   0.60006   0.58045   0.00000  Uiso   1.00
C293   C     0.81696   0.61324   0.53358   0.00000  Uiso   1.00
C294   C     0.09270   0.52999   0.65302   0.00000  Uiso   1.00
C295   C     0.11279   0.43636   0.67866   0.00000  Uiso   1.00
C296   C     0.18710   0.37468   0.67670   0.00000  Uiso   1.00
C297   C     0.06229   0.71787   0.66421   0.00000  Uiso   1.00
C298   C     0.05684   0.78221   0.69925   0.00000  Uiso   1.00
C299   C     0.10558   0.87870   0.70672   0.00000  Uiso   1.00
H300   H     0.15155   0.69027   0.58037   0.00000  Uiso   1.00
H301   H     0.00579   0.68699   0.50556   0.00000  Uiso   1.00
H302   H     0.25974   0.52332   0.60376   0.00000  Uiso   1.00
H303   H     0.20380   0.86912   0.62435   0.00000  Uiso   1.00
H304   H     0.82113   0.66966   0.43437   0.00000  Uiso   1.00
H305   H     0.35663   0.32459   0.64144   0.00000  Uiso   1.00
H306   H     0.23866   0.05376   0.68486   0.00000  Uiso   1.00
H307   H     0.97388   0.58518   0.67092   0.00000  Uiso   1.00
H308   H     0.81836   0.57613   0.60108   0.00000  Uiso   1.00
H309   H     0.07232   0.41246   0.69928   0.00000  Uiso   1.00
H310   H     0.01637   0.75825   0.71987   0.00000  Uiso   1.00
H311   H     0.66901   0.57968   0.51190   0.00000  Uiso   1.00
H312   H     0.20451   0.23461   0.71897   0.00000  Uiso   1.00
H313   H     0.08654   0.96378   0.76238   0.00000  Uiso   1.00
O314   O     0.64598   0.62058   0.42556   0.00000  Uiso   1.00
O315   O     0.34854   0.16787   0.69723   0.00000  Uiso   1.00
O316   O     0.19376   0.12453   0.75419   0.00000  Uiso   1.00
N317   N     0.80667   0.64975   0.46221   0.00000  Uiso   1.00
N318   N     0.30732   0.32712   0.65580   0.00000  Uiso   1.00
N319   N     0.19705   0.00882   0.69639   0.00000  Uiso   1.00
N320   N     0.72481   0.60133   0.50392   0.00000  Uiso   1.00
N321   N     0.22546   0.27870   0.69751   0.00000  Uiso   1.00
N322   N     0.11519   0.96040   0.73811   0.00000  Uiso   1.00
C323   C     0.61084   0.16620   0.60111   0.00000  Uiso   1.00
C324   C     0.50701   0.14985   0.57303   0.00000  Uiso   1.00
C325   C     0.46530   0.16306   0.52617   0.00000  Uiso   1.00
C326   C     0.36934   0.14422   0.50688   0.00000  Uiso   1.00
C327   C     0.21607   0.12349   0.45921   0.00000  Uiso   1.00
C328   C     0.64498   0.06092   0.62638   0.00000  Uiso   1.00
C329   C     0.71929   0.99936   0.62438   0.00000  Uiso   1.00
C330   C     0.73948   0.90567   0.65001   0.00000  Uiso   1.00
C331   C     0.80046   0.74690   0.68519   0.00000  Uiso   1.00
C332   C     0.61458   0.24880   0.63756   0.00000  Uiso   1.00
C333   C     0.66334   0.34521   0.64498   0.00000  Uiso   1.00
C334   C     0.65795   0.40969   0.68002   0.00000  Uiso   1.00
C335   C     0.67173   0.54264   0.73257   0.00000  Uiso   1.00
C336   C     0.51458   0.10926   0.65017   0.00000  Uiso   1.00
C337   C     0.45473   0.11892   0.59968   0.00000  Uiso   1.00
C338   C     0.35880   0.10006   0.58045   0.00000  Uiso   1.00
C339   C     0.31696   0.11324   0.53358   0.00000  Uiso   1.00
C340   C     0.59270   0.02999   0.65302   0.00000  Uiso   1.00
C341   C     0.61279   0.93636   0.67866   0.00000  Uiso   1.00
C342   C     0.68710   0.87468   0.67670   0.00000  Uiso   1.00
C343   C     0.56229   0.21787   0.66421   0.00000  Uiso   1.00
C344   C     0.55684   0.28221   0.69925   0.00000  Uiso   1.00
C345   C     0.60558   0.37870   0.70672   0.00000  Uiso   1.00
H346   H     0.65155   0.19027   0.58037   0.00000  Uiso   1.00
H347   H     0.50579   0.18699   0.50556   0.00000  Uiso   1.00
H348   H     0.75974   0.02332   0.60376   0.00000  Uiso   1.00
H349   H     0.70380   0.36912   0.62435   0.00000  Uiso   1.00
H350   H     0.32113   0.16966   0.43437   0.00000  Uiso   1.00
H351   H     0.85663   0.82459   0.64144   0.00000  Uiso   1.00
H352   H     0.73866   0.55376   0.68486   0.00000  Uiso   1.00
H353   H     0.47388   0.08518   0.67092   0.00000  Uiso   1.00
H354   H     0.31836   0.07613   0.60108   0.00000  Uiso   1.00
H355   H     0.57232   0.91246   0.69928   0.00000  Uiso   1.00
H356   H     0.51637   0.25825   0.71987   0.00000  Uiso   1.00
H357   H     0.16901   0.07968   0.51190   0.00000  Uiso   1.00
H358   H     0.70451   0.73461   0.71897   0.00000  Uiso   1.00
H359   H     0.58654   0.46378   0.76238   0.00000  Uiso   1.00
O360   O     0.14598   0.12058   0.42556   0.00000  Uiso   1.00
O361   O     0.84854   0.66787   0.69723   0.00000  Uiso   1.00
O362   O     0.69376   0.62453   0.75419   0.00000  Uiso   1.00
N363   N     0.30667   0.14975   0.46221   0.00000  Uiso   1.00
N364   N     0.80732   0.82712   0.65580   0.00000  Uiso   1.00
N365   N     0.69705   0.50882   0.69639   0.00000  Uiso   1.00
N366   N     0.22481   0.10133   0.50392   0.00000  Uiso   1.00
N367   N     0.72546   0.77870   0.69751   0.00000  Uiso   1.00
N368   N     0.61519   0.46040   0.73811   0.00000  Uiso   1.00
