data_job_05012
_audit_creation_date              2018-12-19
_audit_creation_method            'Materials Studio'
_symmetry_space_group_name_H-M    'P1'
_symmetry_Int_Tables_number       1
_symmetry_cell_setting            triclinic
loop_
_symmetry_equiv_pos_as_xyz
  x,y,z
_cell_length_a                    26.4809
_cell_length_b                    7.0697
_cell_length_c                    12.3218
_cell_angle_alpha                 90.0000
_cell_angle_beta                  90.0000
_cell_angle_gamma                 90.0000
loop_
_atom_site_label
_atom_site_type_symbol
_atom_site_fract_x
_atom_site_fract_y
_atom_site_fract_z
_atom_site_U_iso_or_equiv
_atom_site_adp_type
_atom_site_occupancy
C1     C     0.86799   0.44467   0.26515   0.00000  Uiso   1.00
C2     C     0.88900   0.40263   0.37783   0.00000  Uiso   1.00
C3     C     0.91277   0.53188   0.44548   0.00000  Uiso   1.00
C4     C     0.92932   0.46564   0.54541   0.00000  Uiso   1.00
C5     C     0.96303   0.42906   0.71562   0.00000  Uiso   1.00
C6     C     0.89369   0.30551   0.18839   0.00000  Uiso   1.00
C7     C     0.92139   0.35311   0.09675   0.00000  Uiso   1.00
C8     C     0.94188   0.20509   0.03721   0.00000  Uiso   1.00
C9     C     0.98283   0.01773   0.91327   0.00000  Uiso   1.00
C10    C     0.81247   0.38771   0.26841   0.00000  Uiso   1.00
C11    C     0.77188   0.50440   0.24402   0.00000  Uiso   1.00
C12    C     0.72400   0.42558   0.25182   0.00000  Uiso   1.00
C13    C     0.63885   0.36585   0.25212   0.00000  Uiso   1.00
C14    C     0.85512   0.09717   0.32232   0.00000  Uiso   1.00
C15    C     0.88201   0.21389   0.40888   0.00000  Uiso   1.00
C16    C     0.89853   0.14742   0.50873   0.00000  Uiso   1.00
C17    C     0.92231   0.27655   0.57652   0.00000  Uiso   1.00
C18    C     0.88670   0.11677   0.21944   0.00000  Uiso   1.00
C19    C     0.90715   0.96865   0.16001   0.00000  Uiso   1.00
C20    C     0.93488   0.01601   0.06832   0.00000  Uiso   1.00
C21    C     0.80548   0.19897   0.29946   0.00000  Uiso   1.00
C22    C     0.75765   0.11994   0.30728   0.00000  Uiso   1.00
C23    C     0.71699   0.23649   0.28293   0.00000  Uiso   1.00
H24    H     0.87343   0.59160   0.24097   0.00000  Uiso   1.00
H25    H     0.91817   0.67794   0.42141   0.00000  Uiso   1.00
H26    H     0.92679   0.49918   0.07274   0.00000  Uiso   1.00
H27    H     0.77731   0.65045   0.21999   0.00000  Uiso   1.00
H28    H     0.96471   0.69039   0.63515   0.00000  Uiso   1.00
H29    H     0.98286   0.31349   0.89993   0.00000  Uiso   1.00
H30    H     0.66765   0.63247   0.21044   0.00000  Uiso   1.00
H31    H     0.84968   0.95022   0.34649   0.00000  Uiso   1.00
H32    H     0.89311   0.00135   0.53274   0.00000  Uiso   1.00
H33    H     0.90173   0.82261   0.18406   0.00000  Uiso   1.00
H34    H     0.75225   0.97388   0.33132   0.00000  Uiso   1.00
H35    H     0.94437   0.14125   0.72551   0.00000  Uiso   1.00
H36    H     0.96252   0.76435   0.99028   0.00000  Uiso   1.00
H37    H     0.64731   0.08333   0.30080   0.00000  Uiso   1.00
O38    O     0.98355   0.46102   0.80093   0.00000  Uiso   1.00
O39    O     0.00736   0.96654   0.83634   0.00000  Uiso   1.00
O40    O     0.59382   0.38504   0.24372   0.00000  Uiso   1.00
N41    N     0.95395   0.55414   0.63087   0.00000  Uiso   1.00
N42    N     0.97093   0.20176   0.94349   0.00000  Uiso   1.00
N43    N     0.67624   0.49997   0.23376   0.00000  Uiso   1.00
N44    N     0.94301   0.25866   0.67949   0.00000  Uiso   1.00
N45    N     0.95998   0.90628   0.99211   0.00000  Uiso   1.00
N46    N     0.66529   0.20449   0.28238   0.00000  Uiso   1.00
C47    C     0.13201   0.55533   0.76515   0.00000  Uiso   1.00
C48    C     0.11100   0.59737   0.87783   0.00000  Uiso   1.00
C49    C     0.08723   0.46812   0.94548   0.00000  Uiso   1.00
C50    C     0.07068   0.53436   0.04541   0.00000  Uiso   1.00
C51    C     0.03697   0.57094   0.21562   0.00000  Uiso   1.00
C52    C     0.10631   0.69449   0.68839   0.00000  Uiso   1.00
C53    C     0.07861   0.64689   0.59675   0.00000  Uiso   1.00
C54    C     0.05812   0.79491   0.53721   0.00000  Uiso   1.00
C55    C     0.01717   0.98227   0.41327   0.00000  Uiso   1.00
C56    C     0.18753   0.61229   0.76841   0.00000  Uiso   1.00
C57    C     0.22812   0.49560   0.74402   0.00000  Uiso   1.00
C58    C     0.27600   0.57442   0.75182   0.00000  Uiso   1.00
C59    C     0.36115   0.63415   0.75212   0.00000  Uiso   1.00
C60    C     0.14488   0.90283   0.82232   0.00000  Uiso   1.00
C61    C     0.11799   0.78611   0.90888   0.00000  Uiso   1.00
C62    C     0.10147   0.85258   0.00873   0.00000  Uiso   1.00
C63    C     0.07769   0.72345   0.07652   0.00000  Uiso   1.00
C64    C     0.11330   0.88323   0.71944   0.00000  Uiso   1.00
C65    C     0.09285   0.03135   0.66001   0.00000  Uiso   1.00
C66    C     0.06512   0.98399   0.56832   0.00000  Uiso   1.00
C67    C     0.19452   0.80103   0.79946   0.00000  Uiso   1.00
C68    C     0.24235   0.88006   0.80728   0.00000  Uiso   1.00
C69    C     0.28301   0.76351   0.78293   0.00000  Uiso   1.00
H70    H     0.12657   0.40840   0.74097   0.00000  Uiso   1.00
H71    H     0.08183   0.32206   0.92141   0.00000  Uiso   1.00
H72    H     0.07321   0.50082   0.57274   0.00000  Uiso   1.00
H73    H     0.22269   0.34955   0.71999   0.00000  Uiso   1.00
H74    H     0.03529   0.30961   0.13515   0.00000  Uiso   1.00
H75    H     0.01714   0.68651   0.39993   0.00000  Uiso   1.00
H76    H     0.33235   0.36753   0.71044   0.00000  Uiso   1.00
H77    H     0.15032   0.04978   0.84649   0.00000  Uiso   1.00
H78    H     0.10689   0.99865   0.03274   0.00000  Uiso   1.00
H79    H     0.09827   0.17739   0.68406   0.00000  Uiso   1.00
H80    H     0.24775   0.02612   0.83132   0.00000  Uiso   1.00
H81    H     0.05563   0.85875   0.22551   0.00000  Uiso   1.00
H82    H     0.03748   0.23565   0.49028   0.00000  Uiso   1.00
H83    H     0.35269   0.91667   0.80080   0.00000  Uiso   1.00
O84    O     0.01645   0.53898   0.30093   0.00000  Uiso   1.00
O85    O     0.99264   0.03346   0.33634   0.00000  Uiso   1.00
O86    O     0.40618   0.61496   0.74372   0.00000  Uiso   1.00
N87    N     0.04605   0.44586   0.13087   0.00000  Uiso   1.00
N88    N     0.02907   0.79824   0.44349   0.00000  Uiso   1.00
N89    N     0.32376   0.50003   0.73376   0.00000  Uiso   1.00
N90    N     0.05699   0.74134   0.17949   0.00000  Uiso   1.00
N91    N     0.04002   0.09372   0.49211   0.00000  Uiso   1.00
N92    N     0.33471   0.79551   0.78238   0.00000  Uiso   1.00
C93    C     0.36799   0.05533   0.26515   0.00000  Uiso   1.00
C94    C     0.38900   0.09737   0.37783   0.00000  Uiso   1.00
C95    C     0.41277   0.96812   0.44548   0.00000  Uiso   1.00
C96    C     0.42932   0.03436   0.54541   0.00000  Uiso   1.00
C97    C     0.46303   0.07094   0.71562   0.00000  Uiso   1.00
C98    C     0.39369   0.19449   0.18839   0.00000  Uiso   1.00
C99    C     0.42139   0.14689   0.09675   0.00000  Uiso   1.00
C100   C     0.44188   0.29491   0.03721   0.00000  Uiso   1.00
C101   C     0.48283   0.48227   0.91327   0.00000  Uiso   1.00
C102   C     0.31247   0.11229   0.26841   0.00000  Uiso   1.00
C103   C     0.27188   0.99560   0.24402   0.00000  Uiso   1.00
C104   C     0.22400   0.07442   0.25182   0.00000  Uiso   1.00
C105   C     0.13885   0.13415   0.25212   0.00000  Uiso   1.00
C106   C     0.35512   0.40283   0.32232   0.00000  Uiso   1.00
C107   C     0.38201   0.28611   0.40888   0.00000  Uiso   1.00
C108   C     0.39853   0.35258   0.50873   0.00000  Uiso   1.00
C109   C     0.42231   0.22345   0.57652   0.00000  Uiso   1.00
C110   C     0.38670   0.38323   0.21944   0.00000  Uiso   1.00
C111   C     0.40715   0.53135   0.16001   0.00000  Uiso   1.00
C112   C     0.43488   0.48399   0.06832   0.00000  Uiso   1.00
C113   C     0.30548   0.30103   0.29946   0.00000  Uiso   1.00
C114   C     0.25765   0.38006   0.30728   0.00000  Uiso   1.00
C115   C     0.21699   0.26351   0.28293   0.00000  Uiso   1.00
H116   H     0.37343   0.90840   0.24097   0.00000  Uiso   1.00
H117   H     0.41817   0.82206   0.42141   0.00000  Uiso   1.00
H118   H     0.42679   0.00082   0.07274   0.00000  Uiso   1.00
H119   H     0.27731   0.84955   0.21999   0.00000  Uiso   1.00
H120   H     0.46471   0.80961   0.63515   0.00000  Uiso   1.00
H121   H     0.48286   0.18651   0.89993   0.00000  Uiso   1.00
H122   H     0.16765   0.86753   0.21044   0.00000  Uiso   1.00
H123   H     0.34968   0.54978   0.34649   0.00000  Uiso   1.00
H124   H     0.39311   0.49865   0.53274   0.00000  Uiso   1.00
H125   H     0.40173   0.67739   0.18406   0.00000  Uiso   1.00
H126   H     0.25225   0.52612   0.33132   0.00000  Uiso   1.00
H127   H     0.44437   0.35875   0.72551   0.00000  Uiso   1.00
H128   H     0.46252   0.73565   0.99028   0.00000  Uiso   1.00
H129   H     0.14731   0.41667   0.30080   0.00000  Uiso   1.00
O130   O     0.48355   0.03898   0.80093   0.00000  Uiso   1.00
O131   O     0.50736   0.53346   0.83634   0.00000  Uiso   1.00
O132   O     0.09382   0.11496   0.24372   0.00000  Uiso   1.00
N133   N     0.45395   0.94586   0.63087   0.00000  Uiso   1.00
N134   N     0.47093   0.29824   0.94349   0.00000  Uiso   1.00
N135   N     0.17624   0.00003   0.23376   0.00000  Uiso   1.00
N136   N     0.44301   0.24134   0.67949   0.00000  Uiso   1.00
N137   N     0.45998   0.59372   0.99211   0.00000  Uiso   1.00
N138   N     0.16529   0.29551   0.28238   0.00000  Uiso   1.00
C139   C     0.63201   0.94467   0.76515   0.00000  Uiso   1.00
C140   C     0.61100   0.90263   0.87783   0.00000  Uiso   1.00
C141   C     0.58723   0.03188   0.94548   0.00000  Uiso   1.00
C142   C     0.57068   0.96564   0.04541   0.00000  Uiso   1.00
C143   C     0.53697   0.92906   0.21562   0.00000  Uiso   1.00
C144   C     0.60631   0.80551   0.68839   0.00000  Uiso   1.00
C145   C     0.57861   0.85311   0.59675   0.00000  Uiso   1.00
C146   C     0.55812   0.70509   0.53721   0.00000  Uiso   1.00
C147   C     0.51717   0.51773   0.41327   0.00000  Uiso   1.00
C148   C     0.68753   0.88771   0.76841   0.00000  Uiso   1.00
C149   C     0.72812   0.00440   0.74402   0.00000  Uiso   1.00
C150   C     0.77600   0.92558   0.75182   0.00000  Uiso   1.00
C151   C     0.86115   0.86585   0.75212   0.00000  Uiso   1.00
C152   C     0.64488   0.59717   0.82232   0.00000  Uiso   1.00
C153   C     0.61799   0.71389   0.90888   0.00000  Uiso   1.00
C154   C     0.60147   0.64742   0.00873   0.00000  Uiso   1.00
C155   C     0.57769   0.77655   0.07652   0.00000  Uiso   1.00
C156   C     0.61330   0.61677   0.71944   0.00000  Uiso   1.00
C157   C     0.59285   0.46865   0.66001   0.00000  Uiso   1.00
C158   C     0.56512   0.51601   0.56832   0.00000  Uiso   1.00
C159   C     0.69452   0.69897   0.79946   0.00000  Uiso   1.00
C160   C     0.74235   0.61994   0.80728   0.00000  Uiso   1.00
C161   C     0.78301   0.73649   0.78293   0.00000  Uiso   1.00
H162   H     0.62657   0.09160   0.74097   0.00000  Uiso   1.00
H163   H     0.58183   0.17794   0.92141   0.00000  Uiso   1.00
H164   H     0.57321   0.99918   0.57274   0.00000  Uiso   1.00
H165   H     0.72269   0.15045   0.71999   0.00000  Uiso   1.00
H166   H     0.53529   0.19039   0.13515   0.00000  Uiso   1.00
H167   H     0.51714   0.81349   0.39993   0.00000  Uiso   1.00
H168   H     0.83235   0.13247   0.71044   0.00000  Uiso   1.00
H169   H     0.65032   0.45022   0.84649   0.00000  Uiso   1.00
H170   H     0.60689   0.50135   0.03274   0.00000  Uiso   1.00
H171   H     0.59827   0.32261   0.68406   0.00000  Uiso   1.00
H172   H     0.74775   0.47388   0.83132   0.00000  Uiso   1.00
H173   H     0.55563   0.64125   0.22551   0.00000  Uiso   1.00
H174   H     0.53748   0.26435   0.49028   0.00000  Uiso   1.00
H175   H     0.85269   0.58333   0.80080   0.00000  Uiso   1.00
O176   O     0.51645   0.96102   0.30093   0.00000  Uiso   1.00
O177   O     0.49264   0.46654   0.33634   0.00000  Uiso   1.00
O178   O     0.90618   0.88504   0.74372   0.00000  Uiso   1.00
N179   N     0.54605   0.05414   0.13087   0.00000  Uiso   1.00
N180   N     0.52907   0.70176   0.44349   0.00000  Uiso   1.00
N181   N     0.82376   0.99997   0.73376   0.00000  Uiso   1.00
N182   N     0.55699   0.75866   0.17949   0.00000  Uiso   1.00
N183   N     0.54002   0.40628   0.49211   0.00000  Uiso   1.00
N184   N     0.83471   0.70449   0.78238   0.00000  Uiso   1.00
