data_job_02968
_audit_creation_date              2018-12-19
_audit_creation_method            'Materials Studio'
_symmetry_space_group_name_H-M    'P1'
_symmetry_Int_Tables_number       1
_symmetry_cell_setting            triclinic
loop_
_symmetry_equiv_pos_as_xyz
  x,y,z
_cell_length_a                    26.6745
_cell_length_b                    26.6745
_cell_length_c                    7.1241
_cell_angle_alpha                 90.0000
_cell_angle_beta                  90.0000
_cell_angle_gamma                 90.0000
loop_
_atom_site_label
_atom_site_type_symbol
_atom_site_fract_x
_atom_site_fract_y
_atom_site_fract_z
_atom_site_U_iso_or_equiv
_atom_site_adp_type
_atom_site_occupancy
C1     C     0.05015   0.65574   0.10762   0.00000  Uiso   1.00
C2     C     0.08826   0.68668   0.99786   0.00000  Uiso   1.00
C3     C     0.12740   0.71410   0.07485   0.00000  Uiso   1.00
C4     C     0.15814   0.73989   0.95071   0.00000  Uiso   1.00
C5     C     0.21852   0.78819   0.80982   0.00000  Uiso   1.00
C6     C     0.99873   0.67578   0.05183   0.00000  Uiso   1.00
C7     C     0.96259   0.69403   0.17420   0.00000  Uiso   1.00
C8     C     0.91796   0.71064   0.09549   0.00000  Uiso   1.00
C9     C     0.83934   0.74199   0.03840   0.00000  Uiso   1.00
C10    C     0.05319   0.60273   0.02829   0.00000  Uiso   1.00
C11    C     0.06283   0.55956   0.13086   0.00000  Uiso   1.00
C12    C     0.06404   0.51467   0.03233   0.00000  Uiso   1.00
C13    C     0.06998   0.43260   0.93868   0.00000  Uiso   1.00
C14    C     0.03515   0.65277   0.75027   0.00000  Uiso   1.00
C15    C     0.08010   0.68506   0.80377   0.00000  Uiso   1.00
C16    C     0.11079   0.71082   0.67948   0.00000  Uiso   1.00
C17    C     0.14997   0.73827   0.75626   0.00000  Uiso   1.00
C18    C     0.99057   0.67417   0.85774   0.00000  Uiso   1.00
C19    C     0.94599   0.69075   0.77883   0.00000  Uiso   1.00
C20    C     0.90980   0.70903   0.90105   0.00000  Uiso   1.00
C21    C     0.04504   0.60112   0.83419   0.00000  Uiso   1.00
C22    C     0.04623   0.55628   0.73549   0.00000  Uiso   1.00
C23    C     0.05588   0.51305   0.83788   0.00000  Uiso   1.00
H24    H     0.05650   0.65700   0.25874   0.00000  Uiso   1.00
H25    H     0.13369   0.71534   0.22507   0.00000  Uiso   1.00
H26    H     0.96891   0.69527   0.32440   0.00000  Uiso   1.00
H27    H     0.06914   0.56083   0.28106   0.00000  Uiso   1.00
H28    H     0.21566   0.77933   0.10214   0.00000  Uiso   1.00
H29    H     0.86821   0.73700   0.31160   0.00000  Uiso   1.00
H30    H     0.07956   0.45349   0.22021   0.00000  Uiso   1.00
H31    H     0.02880   0.65151   0.59915   0.00000  Uiso   1.00
H32    H     0.10448   0.70956   0.52928   0.00000  Uiso   1.00
H33    H     0.93969   0.68949   0.62862   0.00000  Uiso   1.00
H34    H     0.03992   0.55505   0.58528   0.00000  Uiso   1.00
H35    H     0.19195   0.77464   0.53742   0.00000  Uiso   1.00
H36    H     0.84450   0.73231   0.74688   0.00000  Uiso   1.00
H37    H     0.05585   0.44880   0.65549   0.00000  Uiso   1.00
O38    O     0.25408   0.81529   0.78572   0.00000  Uiso   1.00
O39    O     0.79823   0.75974   0.06054   0.00000  Uiso   1.00
O40    O     0.07552   0.38778   0.94063   0.00000  Uiso   1.00
N41    N     0.19970   0.77026   0.97882   0.00000  Uiso   1.00
N42    N     0.87486   0.73068   0.17465   0.00000  Uiso   1.00
N43    N     0.07244   0.46563   0.08922   0.00000  Uiso   1.00
N44    N     0.18695   0.76773   0.67495   0.00000  Uiso   1.00
N45    N     0.86210   0.72816   0.87078   0.00000  Uiso   1.00
N46    N     0.05968   0.46310   0.78535   0.00000  Uiso   1.00
C47    C     0.94985   0.34426   0.60762   0.00000  Uiso   1.00
C48    C     0.91174   0.31332   0.49786   0.00000  Uiso   1.00
C49    C     0.87260   0.28590   0.57485   0.00000  Uiso   1.00
C50    C     0.84186   0.26011   0.45071   0.00000  Uiso   1.00
C51    C     0.78148   0.21181   0.30982   0.00000  Uiso   1.00
C52    C     0.00127   0.32422   0.55183   0.00000  Uiso   1.00
C53    C     0.03741   0.30597   0.67420   0.00000  Uiso   1.00
C54    C     0.08204   0.28936   0.59549   0.00000  Uiso   1.00
C55    C     0.16066   0.25801   0.53840   0.00000  Uiso   1.00
C56    C     0.94681   0.39727   0.52829   0.00000  Uiso   1.00
C57    C     0.93717   0.44044   0.63086   0.00000  Uiso   1.00
C58    C     0.93596   0.48533   0.53233   0.00000  Uiso   1.00
C59    C     0.93002   0.56740   0.43868   0.00000  Uiso   1.00
C60    C     0.96485   0.34723   0.25027   0.00000  Uiso   1.00
C61    C     0.91990   0.31494   0.30377   0.00000  Uiso   1.00
C62    C     0.88921   0.28918   0.17948   0.00000  Uiso   1.00
C63    C     0.85003   0.26173   0.25626   0.00000  Uiso   1.00
C64    C     0.00943   0.32583   0.35774   0.00000  Uiso   1.00
C65    C     0.05401   0.30925   0.27883   0.00000  Uiso   1.00
C66    C     0.09020   0.29097   0.40105   0.00000  Uiso   1.00
C67    C     0.95496   0.39888   0.33419   0.00000  Uiso   1.00
C68    C     0.95377   0.44372   0.23549   0.00000  Uiso   1.00
C69    C     0.94412   0.48695   0.33788   0.00000  Uiso   1.00
H70    H     0.94350   0.34300   0.75874   0.00000  Uiso   1.00
H71    H     0.86631   0.28466   0.72507   0.00000  Uiso   1.00
H72    H     0.03109   0.30473   0.82440   0.00000  Uiso   1.00
H73    H     0.93086   0.43917   0.78106   0.00000  Uiso   1.00
H74    H     0.78434   0.22067   0.60214   0.00000  Uiso   1.00
H75    H     0.13179   0.26300   0.81160   0.00000  Uiso   1.00
H76    H     0.92044   0.54651   0.72021   0.00000  Uiso   1.00
H77    H     0.97120   0.34849   0.09915   0.00000  Uiso   1.00
H78    H     0.89552   0.29044   0.02928   0.00000  Uiso   1.00
H79    H     0.06031   0.31051   0.12862   0.00000  Uiso   1.00
H80    H     0.96008   0.44495   0.08528   0.00000  Uiso   1.00
H81    H     0.80805   0.22536   0.03742   0.00000  Uiso   1.00
H82    H     0.15550   0.26769   0.24688   0.00000  Uiso   1.00
H83    H     0.94415   0.55120   0.15549   0.00000  Uiso   1.00
O84    O     0.74592   0.18471   0.28572   0.00000  Uiso   1.00
O85    O     0.20177   0.24026   0.56054   0.00000  Uiso   1.00
O86    O     0.92448   0.61222   0.44063   0.00000  Uiso   1.00
N87    N     0.80030   0.22974   0.47882   0.00000  Uiso   1.00
N88    N     0.12514   0.26932   0.67465   0.00000  Uiso   1.00
N89    N     0.92756   0.53437   0.58922   0.00000  Uiso   1.00
N90    N     0.81305   0.23227   0.17495   0.00000  Uiso   1.00
N91    N     0.13790   0.27184   0.37078   0.00000  Uiso   1.00
N92    N     0.94032   0.53690   0.28535   0.00000  Uiso   1.00
C93    C     0.34426   0.05015   0.35762   0.00000  Uiso   1.00
C94    C     0.31332   0.08826   0.24786   0.00000  Uiso   1.00
C95    C     0.28590   0.12740   0.32485   0.00000  Uiso   1.00
C96    C     0.26011   0.15814   0.20071   0.00000  Uiso   1.00
C97    C     0.21181   0.21852   0.05982   0.00000  Uiso   1.00
C98    C     0.32422   0.99873   0.30183   0.00000  Uiso   1.00
C99    C     0.30597   0.96259   0.42420   0.00000  Uiso   1.00
C100   C     0.28936   0.91796   0.34549   0.00000  Uiso   1.00
C101   C     0.25801   0.83934   0.28840   0.00000  Uiso   1.00
C102   C     0.39727   0.05319   0.27829   0.00000  Uiso   1.00
C103   C     0.44044   0.06283   0.38086   0.00000  Uiso   1.00
C104   C     0.48533   0.06404   0.28233   0.00000  Uiso   1.00
C105   C     0.56740   0.06998   0.18868   0.00000  Uiso   1.00
C106   C     0.34723   0.03515   0.00027   0.00000  Uiso   1.00
C107   C     0.31494   0.08010   0.05377   0.00000  Uiso   1.00
C108   C     0.28918   0.11079   0.92948   0.00000  Uiso   1.00
C109   C     0.26173   0.14997   0.00626   0.00000  Uiso   1.00
C110   C     0.32583   0.99057   0.10774   0.00000  Uiso   1.00
C111   C     0.30925   0.94599   0.02883   0.00000  Uiso   1.00
C112   C     0.29097   0.90980   0.15105   0.00000  Uiso   1.00
C113   C     0.39888   0.04504   0.08419   0.00000  Uiso   1.00
C114   C     0.44372   0.04623   0.98549   0.00000  Uiso   1.00
C115   C     0.48695   0.05588   0.08788   0.00000  Uiso   1.00
H116   H     0.34300   0.05650   0.50874   0.00000  Uiso   1.00
H117   H     0.28466   0.13369   0.47507   0.00000  Uiso   1.00
H118   H     0.30473   0.96891   0.57440   0.00000  Uiso   1.00
H119   H     0.43917   0.06914   0.53106   0.00000  Uiso   1.00
H120   H     0.22067   0.21566   0.35214   0.00000  Uiso   1.00
H121   H     0.26300   0.86821   0.56160   0.00000  Uiso   1.00
H122   H     0.54651   0.07956   0.47021   0.00000  Uiso   1.00
H123   H     0.34849   0.02880   0.84915   0.00000  Uiso   1.00
H124   H     0.29044   0.10448   0.77928   0.00000  Uiso   1.00
H125   H     0.31051   0.93969   0.87862   0.00000  Uiso   1.00
H126   H     0.44495   0.03992   0.83528   0.00000  Uiso   1.00
H127   H     0.22536   0.19195   0.78742   0.00000  Uiso   1.00
H128   H     0.26769   0.84450   0.99688   0.00000  Uiso   1.00
H129   H     0.55120   0.05585   0.90549   0.00000  Uiso   1.00
O130   O     0.18471   0.25408   0.03572   0.00000  Uiso   1.00
O131   O     0.24026   0.79823   0.31054   0.00000  Uiso   1.00
O132   O     0.61222   0.07552   0.19063   0.00000  Uiso   1.00
N133   N     0.22974   0.19970   0.22882   0.00000  Uiso   1.00
N134   N     0.26932   0.87486   0.42465   0.00000  Uiso   1.00
N135   N     0.53437   0.07244   0.33922   0.00000  Uiso   1.00
N136   N     0.23227   0.18695   0.92495   0.00000  Uiso   1.00
N137   N     0.27184   0.86210   0.12078   0.00000  Uiso   1.00
N138   N     0.53690   0.05968   0.03535   0.00000  Uiso   1.00
C139   C     0.65574   0.94985   0.85762   0.00000  Uiso   1.00
C140   C     0.68668   0.91174   0.74786   0.00000  Uiso   1.00
C141   C     0.71410   0.87260   0.82485   0.00000  Uiso   1.00
C142   C     0.73989   0.84186   0.70071   0.00000  Uiso   1.00
C143   C     0.78819   0.78148   0.55982   0.00000  Uiso   1.00
C144   C     0.67578   0.00127   0.80183   0.00000  Uiso   1.00
C145   C     0.69403   0.03741   0.92420   0.00000  Uiso   1.00
C146   C     0.71064   0.08204   0.84549   0.00000  Uiso   1.00
C147   C     0.74199   0.16066   0.78840   0.00000  Uiso   1.00
C148   C     0.60273   0.94681   0.77829   0.00000  Uiso   1.00
C149   C     0.55956   0.93717   0.88086   0.00000  Uiso   1.00
C150   C     0.51467   0.93596   0.78233   0.00000  Uiso   1.00
C151   C     0.43260   0.93002   0.68868   0.00000  Uiso   1.00
C152   C     0.65277   0.96485   0.50027   0.00000  Uiso   1.00
C153   C     0.68506   0.91990   0.55377   0.00000  Uiso   1.00
C154   C     0.71082   0.88921   0.42948   0.00000  Uiso   1.00
C155   C     0.73827   0.85003   0.50626   0.00000  Uiso   1.00
C156   C     0.67417   0.00943   0.60774   0.00000  Uiso   1.00
C157   C     0.69075   0.05401   0.52883   0.00000  Uiso   1.00
C158   C     0.70903   0.09020   0.65105   0.00000  Uiso   1.00
C159   C     0.60112   0.95496   0.58419   0.00000  Uiso   1.00
C160   C     0.55628   0.95377   0.48549   0.00000  Uiso   1.00
C161   C     0.51305   0.94412   0.58788   0.00000  Uiso   1.00
H162   H     0.65700   0.94350   0.00874   0.00000  Uiso   1.00
H163   H     0.71534   0.86631   0.97507   0.00000  Uiso   1.00
H164   H     0.69527   0.03109   0.07440   0.00000  Uiso   1.00
H165   H     0.56083   0.93086   0.03106   0.00000  Uiso   1.00
H166   H     0.77933   0.78434   0.85214   0.00000  Uiso   1.00
H167   H     0.73700   0.13179   0.06160   0.00000  Uiso   1.00
H168   H     0.45349   0.92044   0.97021   0.00000  Uiso   1.00
H169   H     0.65151   0.97120   0.34915   0.00000  Uiso   1.00
H170   H     0.70956   0.89552   0.27928   0.00000  Uiso   1.00
H171   H     0.68949   0.06031   0.37862   0.00000  Uiso   1.00
H172   H     0.55505   0.96008   0.33528   0.00000  Uiso   1.00
H173   H     0.77464   0.80805   0.28742   0.00000  Uiso   1.00
H174   H     0.73231   0.15550   0.49688   0.00000  Uiso   1.00
H175   H     0.44880   0.94415   0.40549   0.00000  Uiso   1.00
O176   O     0.81529   0.74592   0.53572   0.00000  Uiso   1.00
O177   O     0.75974   0.20177   0.81054   0.00000  Uiso   1.00
O178   O     0.38778   0.92448   0.69063   0.00000  Uiso   1.00
N179   N     0.77026   0.80030   0.72882   0.00000  Uiso   1.00
N180   N     0.73068   0.12514   0.92465   0.00000  Uiso   1.00
N181   N     0.46563   0.92756   0.83922   0.00000  Uiso   1.00
N182   N     0.76773   0.81305   0.42495   0.00000  Uiso   1.00
N183   N     0.72816   0.13790   0.62078   0.00000  Uiso   1.00
N184   N     0.46310   0.94032   0.53535   0.00000  Uiso   1.00
