data_job_07106
_audit_creation_date              2018-12-19
_audit_creation_method            'Materials Studio'
_symmetry_space_group_name_H-M    'P1'
_symmetry_Int_Tables_number       1
_symmetry_cell_setting            triclinic
loop_
_symmetry_equiv_pos_as_xyz
  x,y,z
_cell_length_a                    21.2603
_cell_length_b                    20.7147
_cell_length_c                    22.3170
_cell_angle_alpha                 77.6448
_cell_angle_beta                  82.6293
_cell_angle_gamma                 69.0441
loop_
_atom_site_label
_atom_site_type_symbol
_atom_site_fract_x
_atom_site_fract_y
_atom_site_fract_z
_atom_site_U_iso_or_equiv
_atom_site_adp_type
_atom_site_occupancy
C1     C     0.66256   0.09976   0.95069   0.00000  Uiso   1.00
C2     C     0.69476   0.07539   0.89066   0.00000  Uiso   1.00
C3     C     0.67385   0.10967   0.83228   0.00000  Uiso   1.00
C4     C     0.70995   0.07888   0.78322   0.00000  Uiso   1.00
C5     C     0.75155   0.05058   0.68863   0.00000  Uiso   1.00
C6     C     0.64342   0.03896   0.99008   0.00000  Uiso   1.00
C7     C     0.57935   0.04261   0.01531   0.00000  Uiso   1.00
C8     C     0.57223   0.98116   0.04995   0.00000  Uiso   1.00
C9     C     0.53414   0.89632   0.10975   0.00000  Uiso   1.00
C10    C     0.71891   0.10568   0.98277   0.00000  Uiso   1.00
C11    C     0.71831   0.16542   0.00186   0.00000  Uiso   1.00
C12    C     0.77474   0.16013   0.03035   0.00000  Uiso   1.00
C13    C     0.85386   0.17887   0.07880   0.00000  Uiso   1.00
C14    C     0.76385   0.98413   0.96737   0.00000  Uiso   1.00
C15    C     0.74978   0.01258   0.89972   0.00000  Uiso   1.00
C16    C     0.78592   0.98174   0.85073   0.00000  Uiso   1.00
C17    C     0.76506   0.01596   0.79229   0.00000  Uiso   1.00
C18    C     0.69844   0.97616   0.99914   0.00000  Uiso   1.00
C19    C     0.69141   0.91468   0.03376   0.00000  Uiso   1.00
C20    C     0.62735   0.91824   0.05903   0.00000  Uiso   1.00
C21    C     0.77393   0.04287   0.99182   0.00000  Uiso   1.00
C22    C     0.83037   0.03749   0.02030   0.00000  Uiso   1.00
C23    C     0.82985   0.09721   0.03943   0.00000  Uiso   1.00
H24    H     0.61973   0.14865   0.94365   0.00000  Uiso   1.00
H25    H     0.63127   0.15827   0.82529   0.00000  Uiso   1.00
H26    H     0.53679   0.09123   0.00830   0.00000  Uiso   1.00
H27    H     0.67572   0.21401   0.99484   0.00000  Uiso   1.00
H28    H     0.66831   0.14122   0.69808   0.00000  Uiso   1.00
H29    H     0.46909   0.99986   0.08397   0.00000  Uiso   1.00
H30    H     0.76206   0.25878   0.05560   0.00000  Uiso   1.00
H31    H     0.80669   0.93523   0.97442   0.00000  Uiso   1.00
H32    H     0.82849   0.93313   0.85775   0.00000  Uiso   1.00
H33    H     0.73400   0.86609   0.04076   0.00000  Uiso   1.00
H34    H     0.87294   0.98888   0.02730   0.00000  Uiso   1.00
H35    H     0.82838   0.95849   0.72442   0.00000  Uiso   1.00
H36    H     0.62916   0.81713   0.11032   0.00000  Uiso   1.00
H37    H     0.92213   0.07605   0.08194   0.00000  Uiso   1.00
O38    O     0.75930   0.05231   0.63395   0.00000  Uiso   1.00
O39    O     0.49793   0.86687   0.14023   0.00000  Uiso   1.00
O40    O     0.88231   0.20656   0.10301   0.00000  Uiso   1.00
N41    N     0.70300   0.09851   0.72029   0.00000  Uiso   1.00
N42    N     0.51674   0.96635   0.08106   0.00000  Uiso   1.00
N43    N     0.79064   0.20841   0.05455   0.00000  Uiso   1.00
N44    N     0.78913   0.00018   0.73446   0.00000  Uiso   1.00
N45    N     0.60287   0.86802   0.09524   0.00000  Uiso   1.00
N46    N     0.87677   0.11008   0.06873   0.00000  Uiso   1.00
C47    C     0.92685   0.64817   0.03358   0.00000  Uiso   1.00
C48    C     0.85413   0.68656   0.01569   0.00000  Uiso   1.00
C49    C     0.79923   0.66612   0.03980   0.00000  Uiso   1.00
C50    C     0.73684   0.70831   0.01739   0.00000  Uiso   1.00
C51    C     0.62501   0.75870   0.99641   0.00000  Uiso   1.00
C52    C     0.96834   0.63231   0.97413   0.00000  Uiso   1.00
C53    C     0.00948   0.56626   0.96332   0.00000  Uiso   1.00
C54    C     0.04324   0.56279   0.90592   0.00000  Uiso   1.00
C55    C     0.10877   0.52896   0.82044   0.00000  Uiso   1.00
C56    C     0.94905   0.70189   0.05425   0.00000  Uiso   1.00
C57    C     0.97399   0.69435   0.11080   0.00000  Uiso   1.00
C58    C     0.99152   0.74946   0.12085   0.00000  Uiso   1.00
C59    C     0.02710   0.82367   0.15978   0.00000  Uiso   1.00
C60    C     0.91367   0.75944   0.95088   0.00000  Uiso   1.00
C61    C     0.84697   0.74699   0.97076   0.00000  Uiso   1.00
C62    C     0.78465   0.78923   0.94830   0.00000  Uiso   1.00
C63    C     0.72966   0.76886   0.97239   0.00000  Uiso   1.00
C64    C     0.96119   0.69274   0.92921   0.00000  Uiso   1.00
C65    C     0.99490   0.68936   0.87182   0.00000  Uiso   1.00
C66    C     0.03607   0.62333   0.86092   0.00000  Uiso   1.00
C67    C     0.94189   0.76233   0.00933   0.00000  Uiso   1.00
C68    C     0.95940   0.81746   0.01930   0.00000  Uiso   1.00
C69    C     0.98435   0.81000   0.07585   0.00000  Uiso   1.00
H70    H     0.93243   0.60112   0.06855   0.00000  Uiso   1.00
H71    H     0.80479   0.61934   0.07456   0.00000  Uiso   1.00
H72    H     0.01502   0.51950   0.99809   0.00000  Uiso   1.00
H73    H     0.97952   0.64757   0.14555   0.00000  Uiso   1.00
H74    H     0.66013   0.66619   0.06140   0.00000  Uiso   1.00
H75    H     0.10341   0.45567   0.90016   0.00000  Uiso   1.00
H76    H     0.02858   0.72573   0.21111   0.00000  Uiso   1.00
H77    H     0.90810   0.80649   0.91591   0.00000  Uiso   1.00
H78    H     0.77912   0.83599   0.91354   0.00000  Uiso   1.00
H79    H     0.98935   0.73614   0.83707   0.00000  Uiso   1.00
H80    H     0.95385   0.86422   0.98453   0.00000  Uiso   1.00
H81    H     0.63930   0.84203   0.93071   0.00000  Uiso   1.00
H82    H     0.08258   0.63151   0.76947   0.00000  Uiso   1.00
H83    H     0.00774   0.90157   0.08042   0.00000  Uiso   1.00
O84    O     0.56531   0.76980   0.99724   0.00000  Uiso   1.00
O85    O     0.14689   0.49361   0.78570   0.00000  Uiso   1.00
O86    O     0.04870   0.84792   0.19366   0.00000  Uiso   1.00
N87    N     0.67293   0.70353   0.03098   0.00000  Uiso   1.00
N88    N     0.08736   0.50671   0.88022   0.00000  Uiso   1.00
N89    N     0.01741   0.75918   0.17093   0.00000  Uiso   1.00
N90    N     0.66171   0.79815   0.96065   0.00000  Uiso   1.00
N91    N     0.07615   0.60133   0.80990   0.00000  Uiso   1.00
N92    N     0.00620   0.85380   0.10060   0.00000  Uiso   1.00
C93    C     0.08800   0.04660   0.56441   0.00000  Uiso   1.00
C94    C     0.06866   0.98666   0.60524   0.00000  Uiso   1.00
C95    C     0.09883   0.91587   0.60215   0.00000  Uiso   1.00
C96    C     0.07384   0.86924   0.64352   0.00000  Uiso   1.00
C97    C     0.05188   0.77262   0.70037   0.00000  Uiso   1.00
C98    C     0.02378   0.09724   0.53431   0.00000  Uiso   1.00
C99    C     0.01622   0.11943   0.47158   0.00000  Uiso   1.00
C100   C     0.95344   0.16589   0.45326   0.00000  Uiso   1.00
C101   C     0.86182   0.24099   0.39999   0.00000  Uiso   1.00
C102   C     0.10437   0.08541   0.60781   0.00000  Uiso   1.00
C103   C     0.16457   0.09766   0.60687   0.00000  Uiso   1.00
C104   C     0.16965   0.13417   0.65042   0.00000  Uiso   1.00
C105   C     0.20316   0.19089   0.71126   0.00000  Uiso   1.00
C106   C     0.98996   0.08968   0.64339   0.00000  Uiso   1.00
C107   C     0.01541   0.01007   0.64813   0.00000  Uiso   1.00
C108   C     0.99036   0.96353   0.68953   0.00000  Uiso   1.00
C109   C     0.02049   0.89268   0.68650   0.00000  Uiso   1.00
C110   C     0.97053   0.12064   0.57720   0.00000  Uiso   1.00
C111   C     0.90775   0.16709   0.55896   0.00000  Uiso   1.00
C112   C     0.90009   0.18933   0.49623   0.00000  Uiso   1.00
C113   C     0.05112   0.10881   0.65071   0.00000  Uiso   1.00
C114   C     0.05610   0.14532   0.69426   0.00000  Uiso   1.00
C115   C     0.11630   0.15762   0.69339   0.00000  Uiso   1.00
H116   H     0.12946   0.02838   0.53101   0.00000  Uiso   1.00
H117   H     0.14004   0.89778   0.56894   0.00000  Uiso   1.00
H118   H     0.05744   0.10132   0.43840   0.00000  Uiso   1.00
H119   H     0.20577   0.07954   0.57367   0.00000  Uiso   1.00
H120   H     0.12827   0.76331   0.62989   0.00000  Uiso   1.00
H121   H     0.95411   0.19249   0.35464   0.00000  Uiso   1.00
H122   H     0.26690   0.14658   0.63988   0.00000  Uiso   1.00
H123   H     0.94850   0.10790   0.67679   0.00000  Uiso   1.00
H124   H     0.94915   0.98166   0.72272   0.00000  Uiso   1.00
H125   H     0.86655   0.18519   0.59217   0.00000  Uiso   1.00
H126   H     0.01488   0.16342   0.72745   0.00000  Uiso   1.00
H127   H     0.97333   0.83138   0.75470   0.00000  Uiso   1.00
H128   H     0.79918   0.26057   0.47945   0.00000  Uiso   1.00
H129   H     0.11196   0.21465   0.76469   0.00000  Uiso   1.00
O130   O     0.05448   0.71287   0.71986   0.00000  Uiso   1.00
O131   O     0.82600   0.27594   0.35875   0.00000  Uiso   1.00
O132   O     0.23636   0.21571   0.73298   0.00000  Uiso   1.00
N133   N     0.09173   0.79665   0.65297   0.00000  Uiso   1.00
N134   N     0.92889   0.19790   0.39563   0.00000  Uiso   1.00
N135   N     0.22132   0.15500   0.66229   0.00000  Uiso   1.00
N136   N     0.00836   0.83328   0.72013   0.00000  Uiso   1.00
N137   N     0.84552   0.23453   0.46279   0.00000  Uiso   1.00
N138   N     0.13795   0.19163   0.72945   0.00000  Uiso   1.00
C139   C     0.99664   0.43352   0.61944   0.00000  Uiso   1.00
C140   C     0.02011   0.39712   0.56390   0.00000  Uiso   1.00
C141   C     0.05143   0.32537   0.56592   0.00000  Uiso   1.00
C142   C     0.06901   0.30244   0.51004   0.00000  Uiso   1.00
C143   C     0.10744   0.23875   0.43231   0.00000  Uiso   1.00
C144   C     0.92165   0.47492   0.61304   0.00000  Uiso   1.00
C145   C     0.87020   0.46859   0.65638   0.00000  Uiso   1.00
C146   C     0.80490   0.51116   0.64185   0.00000  Uiso   1.00
C147   C     0.69049   0.56829   0.64043   0.00000  Uiso   1.00
C148   C     0.03135   0.48805   0.61089   0.00000  Uiso   1.00
C149   C     0.07213   0.49276   0.65243   0.00000  Uiso   1.00
C150   C     0.09918   0.54639   0.63610   0.00000  Uiso   1.00
C151   C     0.15510   0.62390   0.63134   0.00000  Uiso   1.00
C152   C     0.97214   0.52041   0.51658   0.00000  Uiso   1.00
C153   C     0.00680   0.44432   0.50804   0.00000  Uiso   1.00
C154   C     0.02433   0.42150   0.45213   0.00000  Uiso   1.00
C155   C     0.05568   0.34972   0.45407   0.00000  Uiso   1.00
C156   C     0.90834   0.52212   0.55717   0.00000  Uiso   1.00
C157   C     0.84310   0.56472   0.54259   0.00000  Uiso   1.00
C158   C     0.79157   0.55844   0.58589   0.00000  Uiso   1.00
C159   C     0.01805   0.53524   0.55502   0.00000  Uiso   1.00
C160   C     0.04503   0.58889   0.53863   0.00000  Uiso   1.00
C161   C     0.08585   0.59367   0.58014   0.00000  Uiso   1.00
H162   H     0.00699   0.39678   0.66293   0.00000  Uiso   1.00
H163   H     0.06172   0.28886   0.60917   0.00000  Uiso   1.00
H164   H     0.88052   0.43206   0.69961   0.00000  Uiso   1.00
H165   H     0.08242   0.45623   0.69566   0.00000  Uiso   1.00
H166   H     0.11650   0.19003   0.52493   0.00000  Uiso   1.00
H167   H     0.73443   0.49199   0.71563   0.00000  Uiso   1.00
H168   H     0.16018   0.54295   0.70730   0.00000  Uiso   1.00
H169   H     0.96178   0.55715   0.47309   0.00000  Uiso   1.00
H170   H     0.01403   0.45804   0.40891   0.00000  Uiso   1.00
H171   H     0.83283   0.60124   0.49935   0.00000  Uiso   1.00
H172   H     0.03473   0.62540   0.49540   0.00000  Uiso   1.00
H173   H     0.07779   0.32734   0.36239   0.00000  Uiso   1.00
H174   H     0.69572   0.62931   0.55310   0.00000  Uiso   1.00
H175   H     0.12147   0.68026   0.54477   0.00000  Uiso   1.00
O176   O     0.13231   0.19058   0.40486   0.00000  Uiso   1.00
O177   O     0.63106   0.58676   0.65507   0.00000  Uiso   1.00
O178   O     0.18963   0.65361   0.64414   0.00000  Uiso   1.00
N179   N     0.10023   0.23595   0.49548   0.00000  Uiso   1.00
N180   N     0.74302   0.51826   0.67378   0.00000  Uiso   1.00
N181   N     0.14104   0.56591   0.66600   0.00000  Uiso   1.00
N182   N     0.07940   0.30983   0.40802   0.00000  Uiso   1.00
N183   N     0.72219   0.59214   0.58632   0.00000  Uiso   1.00
N184   N     0.12022   0.63979   0.57854   0.00000  Uiso   1.00
C185   C     0.41707   0.62281   0.10886   0.00000  Uiso   1.00
C186   C     0.35699   0.60879   0.14716   0.00000  Uiso   1.00
C187   C     0.28957   0.64715   0.13730   0.00000  Uiso   1.00
C188   C     0.24215   0.62595   0.17742   0.00000  Uiso   1.00
C189   C     0.14591   0.61292   0.22953   0.00000  Uiso   1.00
C190   C     0.45876   0.55453   0.08653   0.00000  Uiso   1.00
C191   C     0.47691   0.54728   0.02569   0.00000  Uiso   1.00
C192   C     0.51517   0.48040   0.01478   0.00000  Uiso   1.00
C193   C     0.57696   0.38314   0.97277   0.00000  Uiso   1.00
C194   C     0.45993   0.63253   0.15373   0.00000  Uiso   1.00
C195   C     0.47908   0.69084   0.14939   0.00000  Uiso   1.00
C196   C     0.51834   0.68962   0.19504   0.00000  Uiso   1.00
C197   C     0.58196   0.71347   0.25737   0.00000  Uiso   1.00
C198   C     0.45276   0.51693   0.19765   0.00000  Uiso   1.00
C199   C     0.37638   0.55129   0.19538   0.00000  Uiso   1.00
C200   C     0.32905   0.53002   0.23553   0.00000  Uiso   1.00
C201   C     0.26157   0.56834   0.22574   0.00000  Uiso   1.00
C202   C     0.47814   0.49703   0.13475   0.00000  Uiso   1.00
C203   C     0.51639   0.43015   0.12393   0.00000  Uiso   1.00
C204   C     0.53459   0.42279   0.06310   0.00000  Uiso   1.00
C205   C     0.47931   0.57503   0.20196   0.00000  Uiso   1.00
C206   C     0.51856   0.57371   0.24763   0.00000  Uiso   1.00
C207   C     0.53777   0.63201   0.24336   0.00000  Uiso   1.00
H208   H     0.40198   0.66757   0.07131   0.00000  Uiso   1.00
H209   H     0.27458   0.69165   0.09997   0.00000  Uiso   1.00
H210   H     0.46190   0.59179   0.98838   0.00000  Uiso   1.00
H211   H     0.46407   0.73533   0.11206   0.00000  Uiso   1.00
H212   H     0.14189   0.69297   0.15299   0.00000  Uiso   1.00
H213   H     0.53687   0.48242   0.91772   0.00000  Uiso   1.00
H214   H     0.54145   0.78511   0.17851   0.00000  Uiso   1.00
H215   H     0.46786   0.47216   0.23520   0.00000  Uiso   1.00
H216   H     0.34407   0.48552   0.27285   0.00000  Uiso   1.00
H217   H     0.53139   0.38566   0.16126   0.00000  Uiso   1.00
H218   H     0.53355   0.52920   0.28494   0.00000  Uiso   1.00
H219   H     0.19829   0.52566   0.29331   0.00000  Uiso   1.00
H220   H     0.59328   0.31511   0.05803   0.00000  Uiso   1.00
H221   H     0.59785   0.61780   0.31883   0.00000  Uiso   1.00
O222   O     0.08747   0.62161   0.24495   0.00000  Uiso   1.00
O223   O     0.60569   0.34539   0.93628   0.00000  Uiso   1.00
O224   O     0.61168   0.74250   0.27843   0.00000  Uiso   1.00
N225   N     0.17215   0.65177   0.18086   0.00000  Uiso   1.00
N226   N     0.54143   0.45492   0.96088   0.00000  Uiso   1.00
N227   N     0.54572   0.73790   0.20470   0.00000  Uiso   1.00
N228   N     0.20250   0.56174   0.25636   0.00000  Uiso   1.00
N229   N     0.57178   0.36489   0.03639   0.00000  Uiso   1.00
N230   N     0.57607   0.64787   0.28020   0.00000  Uiso   1.00
C231   C     0.48716   0.12922   0.42379   0.00000  Uiso   1.00
C232   C     0.49666   0.16308   0.35710   0.00000  Uiso   1.00
C233   C     0.55345   0.14034   0.31838   0.00000  Uiso   1.00
C234   C     0.55230   0.17844   0.25898   0.00000  Uiso   1.00
C235   C     0.57555   0.22207   0.15844   0.00000  Uiso   1.00
C236   C     0.42284   0.11153   0.42780   0.00000  Uiso   1.00
C237   C     0.41755   0.04545   0.44852   0.00000  Uiso   1.00
C238   C     0.35425   0.04016   0.44863   0.00000  Uiso   1.00
C239   C     0.26288   0.00376   0.45789   0.00000  Uiso   1.00
C240   C     0.47138   0.18712   0.46138   0.00000  Uiso   1.00
C241   C     0.50689   0.18459   0.51035   0.00000  Uiso   1.00
C242   C     0.48445   0.24294   0.53875   0.00000  Uiso   1.00
C243   C     0.46844   0.32391   0.60015   0.00000  Uiso   1.00
C244   C     0.38414   0.23732   0.38717   0.00000  Uiso   1.00
C245   C     0.44071   0.22180   0.33721   0.00000  Uiso   1.00
C246   C     0.43947   0.25995   0.27785   0.00000  Uiso   1.00
C247   C     0.49624   0.23727   0.23905   0.00000  Uiso   1.00
C248   C     0.36688   0.17025   0.40790   0.00000  Uiso   1.00
C249   C     0.30357   0.16505   0.40799   0.00000  Uiso   1.00
C250   C     0.29819   0.09898   0.42870   0.00000  Uiso   1.00
C251   C     0.41542   0.24584   0.44148   0.00000  Uiso   1.00
C252   C     0.39292   0.30420   0.46982   0.00000  Uiso   1.00
C253   C     0.42839   0.30176   0.51882   0.00000  Uiso   1.00
H254   H     0.53072   0.08350   0.43928   0.00000  Uiso   1.00
H255   H     0.59674   0.09490   0.33379   0.00000  Uiso   1.00
H256   H     0.46086   0.00002   0.46392   0.00000  Uiso   1.00
H257   H     0.55019   0.13915   0.52573   0.00000  Uiso   1.00
H258   H     0.64524   0.13341   0.20805   0.00000  Uiso   1.00
H259   H     0.35873   0.93336   0.48244   0.00000  Uiso   1.00
H260   H     0.54710   0.22673   0.61280   0.00000  Uiso   1.00
H261   H     0.34057   0.28304   0.37168   0.00000  Uiso   1.00
H262   H     0.39616   0.30539   0.26247   0.00000  Uiso   1.00
H263   H     0.26028   0.21051   0.39259   0.00000  Uiso   1.00
H264   H     0.34961   0.34963   0.45441   0.00000  Uiso   1.00
H265   H     0.48245   0.30424   0.15016   0.00000  Uiso   1.00
H266   H     0.19593   0.10420   0.42456   0.00000  Uiso   1.00
H267   H     0.38430   0.39757   0.55491   0.00000  Uiso   1.00
O268   O     0.60383   0.22991   0.10848   0.00000  Uiso   1.00
O269   O     0.22794   0.96746   0.46849   0.00000  Uiso   1.00
O270   O     0.47508   0.35235   0.63951   0.00000  Uiso   1.00
N271   N     0.59931   0.17056   0.20942   0.00000  Uiso   1.00
N272   N     0.33144   0.98352   0.46595   0.00000  Uiso   1.00
N273   N     0.50754   0.25779   0.58783   0.00000  Uiso   1.00
N274   N     0.51171   0.26248   0.17827   0.00000  Uiso   1.00
N275   N     0.24384   0.07545   0.43480   0.00000  Uiso   1.00
N276   N     0.41994   0.34972   0.55668   0.00000  Uiso   1.00
C277   C     0.39230   0.96921   0.90326   0.00000  Uiso   1.00
C278   C     0.36172   0.99770   0.96197   0.00000  Uiso   1.00
C279   C     0.38229   0.96564   0.02086   0.00000  Uiso   1.00
C280   C     0.34787   0.00013   0.06850   0.00000  Uiso   1.00
C281   C     0.30847   0.03461   0.16131   0.00000  Uiso   1.00
C282   C     0.41405   0.02674   0.86097   0.00000  Uiso   1.00
C283   C     0.47861   0.01908   0.83493   0.00000  Uiso   1.00
C284   C     0.48824   0.07802   0.79754   0.00000  Uiso   1.00
C285   C     0.53008   0.15757   0.73351   0.00000  Uiso   1.00
C286   C     0.33419   0.96425   0.87306   0.00000  Uiso   1.00
C287   C     0.33162   0.90406   0.85717   0.00000  Uiso   1.00
C288   C     0.27403   0.91040   0.82994   0.00000  Uiso   1.00
C289   C     0.19188   0.89293   0.78469   0.00000  Uiso   1.00
C290   C     0.29460   0.08749   0.88314   0.00000  Uiso   1.00
C291   C     0.30865   0.06195   0.95104   0.00000  Uiso   1.00
C292   C     0.27418   0.09650   0.99859   0.00000  Uiso   1.00
C293   C     0.29470   0.06449   0.05755   0.00000  Uiso   1.00
C294   C     0.36098   0.09098   0.85004   0.00000  Uiso   1.00
C295   C     0.37051   0.14994   0.81267   0.00000  Uiso   1.00
C296   C     0.43508   0.14238   0.78659   0.00000  Uiso   1.00
C297   C     0.28112   0.02850   0.86213   0.00000  Uiso   1.00
C298   C     0.22352   0.03493   0.83491   0.00000  Uiso   1.00
C299   C     0.22086   0.97476   0.81899   0.00000  Uiso   1.00
H300   H     0.43362   0.91920   0.91177   0.00000  Uiso   1.00
H301   H     0.42336   0.91592   0.02930   0.00000  Uiso   1.00
H302   H     0.51967   0.96936   0.84340   0.00000  Uiso   1.00
H303   H     0.37270   0.85436   0.86564   0.00000  Uiso   1.00
H304   H     0.38860   0.94063   0.15478   0.00000  Uiso   1.00
H305   H     0.59167   0.05330   0.76278   0.00000  Uiso   1.00
H306   H     0.28176   0.81080   0.80968   0.00000  Uiso   1.00
H307   H     0.25328   0.13751   0.87462   0.00000  Uiso   1.00
H308   H     0.23312   0.14621   0.99012   0.00000  Uiso   1.00
H309   H     0.32943   0.19965   0.80421   0.00000  Uiso   1.00
H310   H     0.18246   0.08465   0.82646   0.00000  Uiso   1.00
H311   H     0.23419   0.12755   0.12298   0.00000  Uiso   1.00
H312   H     0.43726   0.24021   0.73097   0.00000  Uiso   1.00
H313   H     0.12735   0.99771   0.77787   0.00000  Uiso   1.00
O314   O     0.30140   0.03589   0.21553   0.00000  Uiso   1.00
O315   O     0.56782   0.18369   0.70122   0.00000  Uiso   1.00
O316   O     0.16122   0.86554   0.76276   0.00000  Uiso   1.00
N317   N     0.35502   0.98342   0.13145   0.00000  Uiso   1.00
N318   N     0.54488   0.08876   0.76495   0.00000  Uiso   1.00
N319   N     0.25514   0.86205   0.80879   0.00000  Uiso   1.00
N320   N     0.27193   0.08400   0.11434   0.00000  Uiso   1.00
N321   N     0.46179   0.18934   0.74784   0.00000  Uiso   1.00
N322   N     0.17206   0.96263   0.79167   0.00000  Uiso   1.00
C323   C     0.95565   0.35418   0.88282   0.00000  Uiso   1.00
C324   C     0.02728   0.33731   0.90110   0.00000  Uiso   1.00
C325   C     0.07533   0.36339   0.86735   0.00000  Uiso   1.00
C326   C     0.13791   0.34166   0.89195   0.00000  Uiso   1.00
C327   C     0.24699   0.32252   0.91179   0.00000  Uiso   1.00
C328   C     0.90900   0.38332   0.93586   0.00000  Uiso   1.00
C329   C     0.85759   0.44808   0.93132   0.00000  Uiso   1.00
C330   C     0.82059   0.46507   0.98518   0.00000  Uiso   1.00
C331   C     0.74601   0.51734   0.05896   0.00000  Uiso   1.00
C332   C     0.94829   0.28366   0.88258   0.00000  Uiso   1.00
C333   C     0.92990   0.26464   0.83326   0.00000  Uiso   1.00
C334   C     0.92597   0.19772   0.84227   0.00000  Uiso   1.00
C335   C     0.91240   0.09526   0.83333   0.00000  Uiso   1.00
C336   C     0.98136   0.26919   0.98653   0.00000  Uiso   1.00
C337   C     0.04124   0.29115   0.95743   0.00000  Uiso   1.00
C338   C     0.10377   0.26936   0.98209   0.00000  Uiso   1.00
C339   C     0.15190   0.29541   0.94839   0.00000  Uiso   1.00
C340   C     0.92296   0.33716   0.99219   0.00000  Uiso   1.00
C341   C     0.88603   0.35405   0.04606   0.00000  Uiso   1.00
C342   C     0.83458   0.41883   0.04162   0.00000  Uiso   1.00
C343   C     0.96225   0.23750   0.93891   0.00000  Uiso   1.00
C344   C     0.95834   0.17060   0.94800   0.00000  Uiso   1.00
C345   C     0.93996   0.15148   0.89870   0.00000  Uiso   1.00
H346   H     0.94478   0.39012   0.83897   0.00000  Uiso   1.00
H347   H     0.06450   0.39913   0.82376   0.00000  Uiso   1.00
H348   H     0.84679   0.48379   0.88772   0.00000  Uiso   1.00
H349   H     0.91910   0.30037   0.78967   0.00000  Uiso   1.00
H350   H     0.20338   0.38877   0.83176   0.00000  Uiso   1.00
H351   H     0.74431   0.56729   0.96662   0.00000  Uiso   1.00
H352   H     0.89679   0.18051   0.75986   0.00000  Uiso   1.00
H353   H     0.99222   0.23325   0.03039   0.00000  Uiso   1.00
H354   H     0.11456   0.23364   0.02569   0.00000  Uiso   1.00
H355   H     0.89684   0.31831   0.08965   0.00000  Uiso   1.00
H356   H     0.96915   0.13489   0.99160   0.00000  Uiso   1.00
H357   H     0.24401   0.25446   0.99565   0.00000  Uiso   1.00
H358   H     0.78494   0.43298   0.13051   0.00000  Uiso   1.00
H359   H     0.93741   0.04620   0.92375   0.00000  Uiso   1.00
O360   O     0.30330   0.32473   0.90717   0.00000  Uiso   1.00
O361   O     0.70102   0.55893   0.08410   0.00000  Uiso   1.00
O362   O     0.90106   0.05149   0.81284   0.00000  Uiso   1.00
N363   N     0.19616   0.35710   0.87097   0.00000  Uiso   1.00
N364   N     0.76696   0.52401   0.99706   0.00000  Uiso   1.00
N365   N     0.90950   0.16241   0.80376   0.00000  Uiso   1.00
N366   N     0.21802   0.28482   0.95916   0.00000  Uiso   1.00
N367   N     0.78883   0.45174   0.08525   0.00000  Uiso   1.00
N368   N     0.93136   0.09014   0.89195   0.00000  Uiso   1.00
C369   C     0.79302   0.95481   0.34292   0.00000  Uiso   1.00
C370   C     0.78974   0.02788   0.30856   0.00000  Uiso   1.00
C371   C     0.74320   0.09099   0.32107   0.00000  Uiso   1.00
C372   C     0.74865   0.15219   0.28440   0.00000  Uiso   1.00
C373   C     0.73594   0.26594   0.23829   0.00000  Uiso   1.00
C374   C     0.86405   0.91928   0.36581   0.00000  Uiso   1.00
C375   C     0.87999   0.89106   0.42647   0.00000  Uiso   1.00
C376   C     0.94800   0.86083   0.43798   0.00000  Uiso   1.00
C377   C     0.05066   0.80592   0.48076   0.00000  Uiso   1.00
C378   C     0.78863   0.91487   0.29449   0.00000  Uiso   1.00
C379   C     0.74116   0.88292   0.29518   0.00000  Uiso   1.00
C380   C     0.74568   0.84897   0.24665   0.00000  Uiso   1.00
C381   C     0.73123   0.78722   0.17868   0.00000  Uiso   1.00
C382   C     0.88547   0.95130   0.25552   0.00000  Uiso   1.00
C383   C     0.83996   0.02597   0.26109   0.00000  Uiso   1.00
C384   C     0.84548   0.08710   0.22438   0.00000  Uiso   1.00
C385   C     0.79895   0.15028   0.23684   0.00000  Uiso   1.00
C386   C     0.91427   0.91737   0.31835   0.00000  Uiso   1.00
C387   C     0.98227   0.88717   0.32977   0.00000  Uiso   1.00
C388   C     0.99830   0.85891   0.39043   0.00000  Uiso   1.00
C389   C     0.83884   0.91296   0.24702   0.00000  Uiso   1.00
C390   C     0.84344   0.87904   0.19848   0.00000  Uiso   1.00
C391   C     0.79598   0.84705   0.19909   0.00000  Uiso   1.00
H392   H     0.75393   0.95630   0.37988   0.00000  Uiso   1.00
H393   H     0.70435   0.09244   0.35782   0.00000  Uiso   1.00
H394   H     0.84111   0.89254   0.46319   0.00000  Uiso   1.00
H395   H     0.70231   0.88441   0.33192   0.00000  Uiso   1.00
H396   H     0.67154   0.24254   0.31244   0.00000  Uiso   1.00
H397   H     0.95992   0.82101   0.53463   0.00000  Uiso   1.00
H398   H     0.66721   0.80387   0.25782   0.00000  Uiso   1.00
H399   H     0.92457   0.94981   0.21856   0.00000  Uiso   1.00
H400   H     0.88435   0.08560   0.18765   0.00000  Uiso   1.00
H401   H     0.02112   0.88570   0.29302   0.00000  Uiso   1.00
H402   H     0.88231   0.87757   0.16175   0.00000  Uiso   1.00
H403   H     0.81763   0.23699   0.17433   0.00000  Uiso   1.00
H404   H     0.10602   0.81546   0.39651   0.00000  Uiso   1.00
H405   H     0.81331   0.79832   0.11970   0.00000  Uiso   1.00
O406   O     0.71506   0.32921   0.22598   0.00000  Uiso   1.00
O407   O     0.09341   0.77617   0.51747   0.00000  Uiso   1.00
O408   O     0.70938   0.75369   0.15430   0.00000  Uiso   1.00
N409   N     0.71143   0.22260   0.28417   0.00000  Uiso   1.00
N410   N     0.98105   0.82850   0.49190   0.00000  Uiso   1.00
N411   N     0.70741   0.81247   0.23312   0.00000  Uiso   1.00
N412   N     0.79004   0.21961   0.20985   0.00000  Uiso   1.00
N413   N     0.05967   0.82552   0.41758   0.00000  Uiso   1.00
N414   N     0.78602   0.80948   0.15880   0.00000  Uiso   1.00
C415   C     0.73610   0.48009   0.42692   0.00000  Uiso   1.00
C416   C     0.70020   0.55610   0.43524   0.00000  Uiso   1.00
C417   C     0.71758   0.61350   0.40424   0.00000  Uiso   1.00
C418   C     0.67845   0.67871   0.41838   0.00000  Uiso   1.00
C419   C     0.63101   0.79560   0.42468   0.00000  Uiso   1.00
C420   C     0.75704   0.43811   0.49052   0.00000  Uiso   1.00
C421   C     0.82223   0.39630   0.50599   0.00000  Uiso   1.00
C422   C     0.83094   0.36218   0.56665   0.00000  Uiso   1.00
C423   C     0.87176   0.29585   0.65876   0.00000  Uiso   1.00
C424   C     0.68224   0.45546   0.41000   0.00000  Uiso   1.00
C425   C     0.68454   0.42823   0.35777   0.00000  Uiso   1.00
C426   C     0.63028   0.40870   0.35065   0.00000  Uiso   1.00
C427   C     0.55496   0.36931   0.31774   0.00000  Uiso   1.00
C428   C     0.63567   0.49383   0.50714   0.00000  Uiso   1.00
C429   C     0.64565   0.56356   0.47881   0.00000  Uiso   1.00
C430   C     0.60647   0.62870   0.49299   0.00000  Uiso   1.00
C431   C     0.62380   0.68619   0.46202   0.00000  Uiso   1.00
C432   C     0.70250   0.44557   0.53409   0.00000  Uiso   1.00
C433   C     0.71111   0.41150   0.59474   0.00000  Uiso   1.00
C434   C     0.77629   0.36966   0.61030   0.00000  Uiso   1.00
C435   C     0.62769   0.46293   0.45357   0.00000  Uiso   1.00
C436   C     0.57342   0.44343   0.44652   0.00000  Uiso   1.00
C437   C     0.57563   0.41618   0.39430   0.00000  Uiso   1.00
H438   H     0.77857   0.47427   0.39301   0.00000  Uiso   1.00
H439   H     0.75981   0.60770   0.37053   0.00000  Uiso   1.00
H440   H     0.86443   0.39053   0.47226   0.00000  Uiso   1.00
H441   H     0.72676   0.42246   0.32407   0.00000  Uiso   1.00
H442   H     0.71496   0.75892   0.36485   0.00000  Uiso   1.00
H443   H     0.93556   0.30098   0.57933   0.00000  Uiso   1.00
H444   H     0.64526   0.36831   0.26685   0.00000  Uiso   1.00
H445   H     0.59320   0.49963   0.54107   0.00000  Uiso   1.00
H446   H     0.56426   0.63446   0.52672   0.00000  Uiso   1.00
H447   H     0.66888   0.41729   0.62844   0.00000  Uiso   1.00
H448   H     0.53121   0.44922   0.48025   0.00000  Uiso   1.00
H449   H     0.55625   0.78064   0.49161   0.00000  Uiso   1.00
H450   H     0.77685   0.32270   0.70610   0.00000  Uiso   1.00
H451   H     0.48655   0.39002   0.39361   0.00000  Uiso   1.00
O452   O     0.61993   0.85801   0.41613   0.00000  Uiso   1.00
O453   O     0.90935   0.25720   0.69753   0.00000  Uiso   1.00
O454   O     0.52848   0.34554   0.28755   0.00000  Uiso   1.00
N455   N     0.68157   0.74553   0.39664   0.00000  Uiso   1.00
N456   N     0.88782   0.31740   0.59718   0.00000  Uiso   1.00
N457   N     0.61642   0.38032   0.30503   0.00000  Uiso   1.00
N458   N     0.59617   0.75722   0.46485   0.00000  Uiso   1.00
N459   N     0.80242   0.32908   0.66539   0.00000  Uiso   1.00
N460   N     0.53102   0.39201   0.37325   0.00000  Uiso   1.00
C461   C     0.34218   0.45446   0.80695   0.00000  Uiso   1.00
C462   C     0.41077   0.46302   0.78872   0.00000  Uiso   1.00
C463   C     0.46985   0.42440   0.81844   0.00000  Uiso   1.00
C464   C     0.52733   0.44020   0.79466   0.00000  Uiso   1.00
C465   C     0.63408   0.44552   0.77424   0.00000  Uiso   1.00
C466   C     0.29362   0.52662   0.81671   0.00000  Uiso   1.00
C467   C     0.25419   0.54147   0.86997   0.00000  Uiso   1.00
C468   C     0.21305   0.61081   0.86975   0.00000  Uiso   1.00
C469   C     0.13787   0.71486   0.89276   0.00000  Uiso   1.00
C470   C     0.32009   0.44005   0.75024   0.00000  Uiso   1.00
C471   C     0.30292   0.38212   0.74761   0.00000  Uiso   1.00
C472   C     0.28405   0.37859   0.69143   0.00000  Uiso   1.00
C473   C     0.24999   0.34822   0.61124   0.00000  Uiso   1.00
C474   C     0.33919   0.55121   0.71185   0.00000  Uiso   1.00
C475   C     0.40914   0.51557   0.73707   0.00000  Uiso   1.00
C476   C     0.46655   0.53144   0.71323   0.00000  Uiso   1.00
C477   C     0.52571   0.49284   0.74291   0.00000  Uiso   1.00
C478   C     0.29199   0.57917   0.76506   0.00000  Uiso   1.00
C479   C     0.25089   0.64850   0.76476   0.00000  Uiso   1.00
C480   C     0.21142   0.66345   0.81800   0.00000  Uiso   1.00
C481   C     0.31847   0.49260   0.69859   0.00000  Uiso   1.00
C482   C     0.29962   0.48916   0.64240   0.00000  Uiso   1.00
C483   C     0.28242   0.43123   0.63969   0.00000  Uiso   1.00
H484   H     0.34344   0.41356   0.84716   0.00000  Uiso   1.00
H485   H     0.47109   0.38374   0.85842   0.00000  Uiso   1.00
H486   H     0.25546   0.50079   0.90993   0.00000  Uiso   1.00
H487   H     0.30418   0.34147   0.78759   0.00000  Uiso   1.00
H488   H     0.61189   0.37388   0.84814   0.00000  Uiso   1.00
H489   H     0.15720   0.62068   0.95675   0.00000  Uiso   1.00
H490   H     0.25994   0.28471   0.69877   0.00000  Uiso   1.00
H491   H     0.33792   0.59212   0.67164   0.00000  Uiso   1.00
H492   H     0.46528   0.57211   0.67326   0.00000  Uiso   1.00
H493   H     0.24964   0.68915   0.72478   0.00000  Uiso   1.00
H494   H     0.29837   0.52983   0.60244   0.00000  Uiso   1.00
H495   H     0.60718   0.52677   0.69786   0.00000  Uiso   1.00
H496   H     0.15248   0.77356   0.80647   0.00000  Uiso   1.00
H497   H     0.25522   0.43760   0.54850   0.00000  Uiso   1.00
O498   O     0.69341   0.43395   0.77724   0.00000  Uiso   1.00
O499   O     0.09686   0.75773   0.91973   0.00000  Uiso   1.00
O500   O     0.23166   0.31695   0.58128   0.00000  Uiso   1.00
N501   N     0.59331   0.41260   0.81254   0.00000  Uiso   1.00
N502   N     0.16821   0.64334   0.91409   0.00000  Uiso   1.00
N503   N     0.26424   0.32925   0.67291   0.00000  Uiso   1.00
N504   N     0.59077   0.49486   0.73167   0.00000  Uiso   1.00
N505   N     0.16567   0.72561   0.83322   0.00000  Uiso   1.00
N506   N     0.26170   0.41152   0.59204   0.00000  Uiso   1.00
C507   C     0.29719   0.77743   0.45815   0.00000  Uiso   1.00
C508   C     0.32387   0.76086   0.52195   0.00000  Uiso   1.00
C509   C     0.28908   0.78953   0.57240   0.00000  Uiso   1.00
C510   C     0.32227   0.76760   0.62670   0.00000  Uiso   1.00
C511   C     0.35372   0.74933   0.72520   0.00000  Uiso   1.00
C512   C     0.34800   0.80267   0.41389   0.00000  Uiso   1.00
C513   C     0.33349   0.86651   0.37349   0.00000  Uiso   1.00
C514   C     0.38700   0.87978   0.33682   0.00000  Uiso   1.00
C515   C     0.45592   0.92640   0.26753   0.00000  Uiso   1.00
C516   C     0.30249   0.70712   0.44322   0.00000  Uiso   1.00
C517   C     0.24973   0.69062   0.42746   0.00000  Uiso   1.00
C518   C     0.26493   0.62344   0.41547   0.00000  Uiso   1.00
C519   C     0.26319   0.52171   0.39172   0.00000  Uiso   1.00
C520   C     0.41801   0.68748   0.46488   0.00000  Uiso   1.00
C521   C     0.38949   0.71200   0.52560   0.00000  Uiso   1.00
C522   C     0.42275   0.69002   0.57984   0.00000  Uiso   1.00
C523   C     0.38801   0.71866   0.63037   0.00000  Uiso   1.00
C524   C     0.41362   0.75382   0.41755   0.00000  Uiso   1.00
C525   C     0.46716   0.76700   0.38093   0.00000  Uiso   1.00
C526   C     0.45275   0.83084   0.34048   0.00000  Uiso   1.00
C527   C     0.36812   0.65827   0.44688   0.00000  Uiso   1.00
C528   C     0.38340   0.59110   0.43491   0.00000  Uiso   1.00
C529   C     0.33067   0.57450   0.41913   0.00000  Uiso   1.00
H530   H     0.24610   0.81546   0.45530   0.00000  Uiso   1.00
H531   H     0.23829   0.82734   0.56955   0.00000  Uiso   1.00
H532   H     0.28271   0.90430   0.37066   0.00000  Uiso   1.00
H533   H     0.19896   0.72843   0.42464   0.00000  Uiso   1.00
H534   H     0.25859   0.81899   0.69782   0.00000  Uiso   1.00
H535   H     0.35223   0.98125   0.27844   0.00000  Uiso   1.00
H536   H     0.17563   0.61040   0.39225   0.00000  Uiso   1.00
H537   H     0.46910   0.64945   0.46772   0.00000  Uiso   1.00
H538   H     0.47353   0.65222   0.58266   0.00000  Uiso   1.00
H539   H     0.51794   0.72918   0.38377   0.00000  Uiso   1.00
H540   H     0.43419   0.55331   0.43774   0.00000  Uiso   1.00
H541   H     0.44951   0.67685   0.70846   0.00000  Uiso   1.00
H542   H     0.54315   0.83911   0.28908   0.00000  Uiso   1.00
H543   H     0.36655   0.46827   0.40289   0.00000  Uiso   1.00
O544   O     0.35295   0.75276   0.77852   0.00000  Uiso   1.00
O545   O     0.47580   0.96563   0.22830   0.00000  Uiso   1.00
O546   O     0.24410   0.47909   0.37761   0.00000  Uiso   1.00
N547   N     0.30291   0.78515   0.68456   0.00000  Uiso   1.00
N548   N     0.39046   0.93685   0.29247   0.00000  Uiso   1.00
N549   N     0.22535   0.59015   0.39885   0.00000  Uiso   1.00
N550   N     0.40564   0.70866   0.69028   0.00000  Uiso   1.00
N551   N     0.49320   0.86037   0.29819   0.00000  Uiso   1.00
N552   N     0.32809   0.51367   0.40457   0.00000  Uiso   1.00
