data_job_06244
_audit_creation_date              2018-12-19
_audit_creation_method            'Materials Studio'
_symmetry_space_group_name_H-M    'P1'
_symmetry_Int_Tables_number       1
_symmetry_cell_setting            triclinic
loop_
_symmetry_equiv_pos_as_xyz
  x,y,z
_cell_length_a                    17.0126
_cell_length_b                    15.7957
_cell_length_c                    15.3930
_cell_angle_alpha                 87.9987
_cell_angle_beta                  86.6791
_cell_angle_gamma                 87.1801
loop_
_atom_site_label
_atom_site_type_symbol
_atom_site_fract_x
_atom_site_fract_y
_atom_site_fract_z
_atom_site_U_iso_or_equiv
_atom_site_adp_type
_atom_site_occupancy
C1     C     0.35316   0.66855   0.08432   0.00000  Uiso   1.00
C2     C     0.42611   0.62521   0.12240   0.00000  Uiso   1.00
C3     C     0.50092   0.61934   0.08142   0.00000  Uiso   1.00
C4     C     0.55981   0.57710   0.12716   0.00000  Uiso   1.00
C5     C     0.67544   0.51510   0.17354   0.00000  Uiso   1.00
C6     C     0.29143   0.60158   0.08672   0.00000  Uiso   1.00
C7     C     0.25299   0.57585   0.01575   0.00000  Uiso   1.00
C8     C     0.19850   0.51374   0.03145   0.00000  Uiso   1.00
C9     C     0.10498   0.41510   0.02245   0.00000  Uiso   1.00
C10    C     0.32243   0.73460   0.14943   0.00000  Uiso   1.00
C11    C     0.31004   0.82073   0.13118   0.00000  Uiso   1.00
C12    C     0.28163   0.87061   0.19969   0.00000  Uiso   1.00
C13    C     0.23625   0.97852   0.28806   0.00000  Uiso   1.00
C14    C     0.32470   0.60398   0.23842   0.00000  Uiso   1.00
C15    C     0.41065   0.59013   0.20610   0.00000  Uiso   1.00
C16    C     0.46944   0.54790   0.25191   0.00000  Uiso   1.00
C17    C     0.54433   0.54197   0.21101   0.00000  Uiso   1.00
C18    C     0.27597   0.56651   0.17042   0.00000  Uiso   1.00
C19    C     0.22151   0.50442   0.18624   0.00000  Uiso   1.00
C20    C     0.18301   0.47860   0.11530   0.00000  Uiso   1.00
C21    C     0.30698   0.69954   0.23313   0.00000  Uiso   1.00
C22    C     0.27857   0.74929   0.30168   0.00000  Uiso   1.00
C23    C     0.26615   0.83548   0.28354   0.00000  Uiso   1.00
H24    H     0.36518   0.69585   0.01916   0.00000  Uiso   1.00
H25    H     0.51286   0.64648   0.01665   0.00000  Uiso   1.00
H26    H     0.26496   0.60301   0.95098   0.00000  Uiso   1.00
H27    H     0.32201   0.84785   0.06641   0.00000  Uiso   1.00
H28    H     0.66976   0.57625   0.05076   0.00000  Uiso   1.00
H29    H     0.14703   0.48461   0.91231   0.00000  Uiso   1.00
H30    H     0.26733   0.00091   0.15570   0.00000  Uiso   1.00
H31    H     0.31267   0.57667   0.30358   0.00000  Uiso   1.00
H32    H     0.45747   0.52077   0.31668   0.00000  Uiso   1.00
H33    H     0.20956   0.47729   0.25102   0.00000  Uiso   1.00
H34    H     0.26661   0.72213   0.36644   0.00000  Uiso   1.00
H35    H     0.62480   0.47421   0.29428   0.00000  Uiso   1.00
H36    H     0.10207   0.38258   0.15583   0.00000  Uiso   1.00
H37    H     0.22237   0.89886   0.39922   0.00000  Uiso   1.00
O38    O     0.74348   0.49058   0.17600   0.00000  Uiso   1.00
O39    O     0.05767   0.37037   0.99436   0.00000  Uiso   1.00
O40    O     0.21550   0.04773   0.31368   0.00000  Uiso   1.00
N41    N     0.63931   0.55993   0.10629   0.00000  Uiso   1.00
N42    N     0.15060   0.47424   0.97684   0.00000  Uiso   1.00
N43    N     0.26305   0.95692   0.20438   0.00000  Uiso   1.00
N44    N     0.61512   0.50502   0.23732   0.00000  Uiso   1.00
N45    N     0.12641   0.41933   0.10788   0.00000  Uiso   1.00
N46    N     0.23886   0.90202   0.33542   0.00000  Uiso   1.00
C47    C     0.09287   0.35705   0.67310   0.00000  Uiso   1.00
C48    C     0.12882   0.43505   0.62874   0.00000  Uiso   1.00
C49    C     0.09311   0.51587   0.62450   0.00000  Uiso   1.00
C50    C     0.13573   0.57868   0.58094   0.00000  Uiso   1.00
C51    C     0.18003   0.70244   0.51778   0.00000  Uiso   1.00
C52    C     0.09401   0.29050   0.60356   0.00000  Uiso   1.00
C53    C     0.02903   0.24979   0.57817   0.00000  Uiso   1.00
C54    C     0.04236   0.19091   0.51341   0.00000  Uiso   1.00
C55    C     0.03263   0.09021   0.41122   0.00000  Uiso   1.00
C56    C     0.15117   0.32353   0.73915   0.00000  Uiso   1.00
C57    C     0.13425   0.31057   0.82776   0.00000  Uiso   1.00
C58    C     0.19569   0.27948   0.87717   0.00000  Uiso   1.00
C59    C     0.27471   0.23007   0.98549   0.00000  Uiso   1.00
C60    C     0.23208   0.32486   0.60328   0.00000  Uiso   1.00
C61    C     0.20444   0.41756   0.59081   0.00000  Uiso   1.00
C62    C     0.24713   0.48026   0.54724   0.00000  Uiso   1.00
C63    C     0.21148   0.56117   0.54295   0.00000  Uiso   1.00
C64    C     0.16962   0.27302   0.56563   0.00000  Uiso   1.00
C65    C     0.18305   0.21417   0.50091   0.00000  Uiso   1.00
C66    C     0.11811   0.17339   0.47542   0.00000  Uiso   1.00
C67    C     0.22679   0.30605   0.70122   0.00000  Uiso   1.00
C68    C     0.28827   0.27496   0.75050   0.00000  Uiso   1.00
C69    C     0.27144   0.26196   0.83917   0.00000  Uiso   1.00
H70    H     0.03400   0.37066   0.70263   0.00000  Uiso   1.00
H71    H     0.03458   0.52938   0.65386   0.00000  Uiso   1.00
H72    H     0.97053   0.26333   0.60753   0.00000  Uiso   1.00
H73    H     0.07573   0.32411   0.85709   0.00000  Uiso   1.00
H74    H     0.06857   0.69763   0.58303   0.00000  Uiso   1.00
H75    H     0.93350   0.13663   0.48538   0.00000  Uiso   1.00
H76    H     0.15533   0.26479   0.01161   0.00000  Uiso   1.00
H77    H     0.29095   0.31124   0.57374   0.00000  Uiso   1.00
H78    H     0.30564   0.46671   0.51790   0.00000  Uiso   1.00
H79    H     0.24157   0.20066   0.47158   0.00000  Uiso   1.00
H80    H     0.34678   0.26144   0.72113   0.00000  Uiso   1.00
H81    H     0.28856   0.64677   0.47267   0.00000  Uiso   1.00
H82    H     0.15349   0.08576   0.37503   0.00000  Uiso   1.00
H83    H     0.37533   0.21393   0.90126   0.00000  Uiso   1.00
O84    O     0.18358   0.77554   0.49341   0.00000  Uiso   1.00
O85    O     0.00637   0.03951   0.36531   0.00000  Uiso   1.00
O86    O     0.29742   0.20766   0.05572   0.00000  Uiso   1.00
N87    N     0.11833   0.66433   0.56474   0.00000  Uiso   1.00
N88    N     0.99205   0.13983   0.47343   0.00000  Uiso   1.00
N89    N     0.19944   0.25963   0.96541   0.00000  Uiso   1.00
N90    N     0.23671   0.63696   0.50536   0.00000  Uiso   1.00
N91    N     0.11043   0.11247   0.41405   0.00000  Uiso   1.00
N92    N     0.31782   0.23226   0.90603   0.00000  Uiso   1.00
C93    C     0.66282   0.08608   0.35499   0.00000  Uiso   1.00
C94    C     0.62316   0.12532   0.43641   0.00000  Uiso   1.00
C95    C     0.61850   0.08713   0.51899   0.00000  Uiso   1.00
C96    C     0.57971   0.13351   0.58488   0.00000  Uiso   1.00
C97    C     0.52309   0.18201   0.71376   0.00000  Uiso   1.00
C98    C     0.59996   0.08783   0.28816   0.00000  Uiso   1.00
C99    C     0.57580   0.01810   0.24611   0.00000  Uiso   1.00
C100   C     0.51749   0.03292   0.18720   0.00000  Uiso   1.00
C101   C     0.42489   0.02321   0.08588   0.00000  Uiso   1.00
C102   C     0.72382   0.14808   0.31995   0.00000  Uiso   1.00
C103   C     0.80382   0.12902   0.30458   0.00000  Uiso   1.00
C104   C     0.84979   0.19456   0.27241   0.00000  Uiso   1.00
C105   C     0.94951   0.27841   0.22043   0.00000  Uiso   1.00
C106   C     0.60222   0.23637   0.32514   0.00000  Uiso   1.00
C107   C     0.59024   0.20696   0.42019   0.00000  Uiso   1.00
C108   C     0.55145   0.25341   0.48597   0.00000  Uiso   1.00
C109   C     0.54674   0.21529   0.56865   0.00000  Uiso   1.00
C110   C     0.56704   0.16945   0.27195   0.00000  Uiso   1.00
C111   C     0.50875   0.18438   0.21308   0.00000  Uiso   1.00
C112   C     0.48451   0.11469   0.17095   0.00000  Uiso   1.00
C113   C     0.69091   0.22971   0.30373   0.00000  Uiso   1.00
C114   C     0.73676   0.29530   0.27157   0.00000  Uiso   1.00
C115   C     0.81681   0.27634   0.25617   0.00000  Uiso   1.00
H116   H     0.68845   0.02253   0.36761   0.00000  Uiso   1.00
H117   H     0.64398   0.02395   0.53151   0.00000  Uiso   1.00
H118   H     0.60129   0.95494   0.25866   0.00000  Uiso   1.00
H119   H     0.82927   0.06584   0.31714   0.00000  Uiso   1.00
H120   H     0.58013   0.06152   0.70608   0.00000  Uiso   1.00
H121   H     0.49015   0.91600   0.13073   0.00000  Uiso   1.00
H122   H     0.97088   0.14986   0.25403   0.00000  Uiso   1.00
H123   H     0.57659   0.29993   0.31252   0.00000  Uiso   1.00
H124   H     0.52598   0.31658   0.47341   0.00000  Uiso   1.00
H125   H     0.48330   0.24756   0.20055   0.00000  Uiso   1.00
H126   H     0.71127   0.35846   0.25903   0.00000  Uiso   1.00
H127   H     0.48435   0.29902   0.65892   0.00000  Uiso   1.00
H128   H     0.39438   0.15350   0.08356   0.00000  Uiso   1.00
H129   H     0.87511   0.38736   0.20687   0.00000  Uiso   1.00
O130   O     0.50094   0.18621   0.78932   0.00000  Uiso   1.00
O131   O     0.38291   0.99529   0.03448   0.00000  Uiso   1.00
O132   O     0.01361   0.30211   0.19625   0.00000  Uiso   1.00
N133   N     0.56455   0.11514   0.67290   0.00000  Uiso   1.00
N134   N     0.48041   0.97908   0.13500   0.00000  Uiso   1.00
N135   N     0.92985   0.19771   0.25025   0.00000  Uiso   1.00
N136   N     0.51301   0.24294   0.64752   0.00000  Uiso   1.00
N137   N     0.42888   0.10688   0.10962   0.00000  Uiso   1.00
N138   N     0.87832   0.32551   0.22487   0.00000  Uiso   1.00
C139   C     0.64684   0.33145   0.91568   0.00000  Uiso   1.00
C140   C     0.57389   0.37479   0.87760   0.00000  Uiso   1.00
C141   C     0.49908   0.38066   0.91858   0.00000  Uiso   1.00
C142   C     0.44019   0.42290   0.87284   0.00000  Uiso   1.00
C143   C     0.32456   0.48490   0.82646   0.00000  Uiso   1.00
C144   C     0.70857   0.39842   0.91328   0.00000  Uiso   1.00
C145   C     0.74701   0.42415   0.98425   0.00000  Uiso   1.00
C146   C     0.80150   0.48626   0.96855   0.00000  Uiso   1.00
C147   C     0.89502   0.58490   0.97755   0.00000  Uiso   1.00
C148   C     0.67757   0.26540   0.85057   0.00000  Uiso   1.00
C149   C     0.68996   0.17927   0.86882   0.00000  Uiso   1.00
C150   C     0.71837   0.12939   0.80031   0.00000  Uiso   1.00
C151   C     0.76375   0.02148   0.71194   0.00000  Uiso   1.00
C152   C     0.67530   0.39602   0.76158   0.00000  Uiso   1.00
C153   C     0.58935   0.40987   0.79390   0.00000  Uiso   1.00
C154   C     0.53056   0.45210   0.74809   0.00000  Uiso   1.00
C155   C     0.45567   0.45803   0.78899   0.00000  Uiso   1.00
C156   C     0.72403   0.43349   0.82958   0.00000  Uiso   1.00
C157   C     0.77849   0.49558   0.81376   0.00000  Uiso   1.00
C158   C     0.81699   0.52140   0.88470   0.00000  Uiso   1.00
C159   C     0.69302   0.30046   0.76686   0.00000  Uiso   1.00
C160   C     0.72143   0.25071   0.69832   0.00000  Uiso   1.00
C161   C     0.73385   0.16452   0.71646   0.00000  Uiso   1.00
H162   H     0.63482   0.30415   0.98084   0.00000  Uiso   1.00
H163   H     0.48714   0.35352   0.98335   0.00000  Uiso   1.00
H164   H     0.73504   0.39699   0.04902   0.00000  Uiso   1.00
H165   H     0.67799   0.15215   0.93359   0.00000  Uiso   1.00
H166   H     0.33024   0.42375   0.94924   0.00000  Uiso   1.00
H167   H     0.85297   0.51539   0.08769   0.00000  Uiso   1.00
H168   H     0.73267   0.99909   0.84430   0.00000  Uiso   1.00
H169   H     0.68733   0.42333   0.69642   0.00000  Uiso   1.00
H170   H     0.54253   0.47923   0.68332   0.00000  Uiso   1.00
H171   H     0.79044   0.52271   0.74898   0.00000  Uiso   1.00
H172   H     0.73339   0.27787   0.63356   0.00000  Uiso   1.00
H173   H     0.37520   0.52579   0.70572   0.00000  Uiso   1.00
H174   H     0.89793   0.61742   0.84417   0.00000  Uiso   1.00
H175   H     0.77763   0.10114   0.60078   0.00000  Uiso   1.00
O176   O     0.25652   0.50942   0.82400   0.00000  Uiso   1.00
O177   O     0.94233   0.62963   0.00564   0.00000  Uiso   1.00
O178   O     0.78450   0.95227   0.68632   0.00000  Uiso   1.00
N179   N     0.36069   0.44007   0.89371   0.00000  Uiso   1.00
N180   N     0.84940   0.52576   0.02316   0.00000  Uiso   1.00
N181   N     0.73695   0.04308   0.79562   0.00000  Uiso   1.00
N182   N     0.38488   0.49498   0.76268   0.00000  Uiso   1.00
N183   N     0.87359   0.58067   0.89212   0.00000  Uiso   1.00
N184   N     0.76114   0.09798   0.66458   0.00000  Uiso   1.00
C185   C     0.90713   0.64295   0.32690   0.00000  Uiso   1.00
C186   C     0.87118   0.56495   0.37126   0.00000  Uiso   1.00
C187   C     0.90689   0.48412   0.37550   0.00000  Uiso   1.00
C188   C     0.86427   0.42132   0.41906   0.00000  Uiso   1.00
C189   C     0.81997   0.29756   0.48222   0.00000  Uiso   1.00
C190   C     0.90599   0.70950   0.39644   0.00000  Uiso   1.00
C191   C     0.97097   0.75021   0.42183   0.00000  Uiso   1.00
C192   C     0.95764   0.80909   0.48659   0.00000  Uiso   1.00
C193   C     0.96737   0.90979   0.58878   0.00000  Uiso   1.00
C194   C     0.84883   0.67647   0.26085   0.00000  Uiso   1.00
C195   C     0.86575   0.68943   0.17224   0.00000  Uiso   1.00
C196   C     0.80431   0.72052   0.12283   0.00000  Uiso   1.00
C197   C     0.72529   0.76993   0.01451   0.00000  Uiso   1.00
C198   C     0.76792   0.67514   0.39672   0.00000  Uiso   1.00
C199   C     0.79556   0.58244   0.40919   0.00000  Uiso   1.00
C200   C     0.75287   0.51974   0.45276   0.00000  Uiso   1.00
C201   C     0.78852   0.43883   0.45705   0.00000  Uiso   1.00
C202   C     0.83038   0.72698   0.43437   0.00000  Uiso   1.00
C203   C     0.81695   0.78583   0.49909   0.00000  Uiso   1.00
C204   C     0.88189   0.82661   0.52458   0.00000  Uiso   1.00
C205   C     0.77321   0.69395   0.29878   0.00000  Uiso   1.00
C206   C     0.71173   0.72504   0.24950   0.00000  Uiso   1.00
C207   C     0.72856   0.73804   0.16083   0.00000  Uiso   1.00
H208   H     0.96600   0.62934   0.29737   0.00000  Uiso   1.00
H209   H     0.96542   0.47062   0.34614   0.00000  Uiso   1.00
H210   H     0.02947   0.73667   0.39247   0.00000  Uiso   1.00
H211   H     0.92427   0.67589   0.14291   0.00000  Uiso   1.00
H212   H     0.93144   0.30237   0.41697   0.00000  Uiso   1.00
H213   H     0.06650   0.86337   0.51462   0.00000  Uiso   1.00
H214   H     0.84467   0.73521   0.98839   0.00000  Uiso   1.00
H215   H     0.70905   0.68876   0.42626   0.00000  Uiso   1.00
H216   H     0.69436   0.53329   0.48210   0.00000  Uiso   1.00
H217   H     0.75843   0.79934   0.52842   0.00000  Uiso   1.00
H218   H     0.65323   0.73856   0.27887   0.00000  Uiso   1.00
H219   H     0.71144   0.35323   0.52733   0.00000  Uiso   1.00
H220   H     0.84651   0.91424   0.62497   0.00000  Uiso   1.00
H221   H     0.62467   0.78607   0.09874   0.00000  Uiso   1.00
O222   O     0.81642   0.22446   0.50659   0.00000  Uiso   1.00
O223   O     0.99363   0.96049   0.63469   0.00000  Uiso   1.00
O224   O     0.70258   0.79234   0.94428   0.00000  Uiso   1.00
N225   N     0.88167   0.33567   0.43526   0.00000  Uiso   1.00
N226   N     0.00795   0.86017   0.52657   0.00000  Uiso   1.00
N227   N     0.80056   0.74037   0.03459   0.00000  Uiso   1.00
N228   N     0.76329   0.36304   0.49464   0.00000  Uiso   1.00
N229   N     0.88957   0.88753   0.58595   0.00000  Uiso   1.00
N230   N     0.68218   0.76774   0.09397   0.00000  Uiso   1.00
C231   C     0.33718   0.91392   0.64501   0.00000  Uiso   1.00
C232   C     0.37684   0.87468   0.56359   0.00000  Uiso   1.00
C233   C     0.38150   0.91287   0.48101   0.00000  Uiso   1.00
C234   C     0.42029   0.86649   0.41512   0.00000  Uiso   1.00
C235   C     0.47691   0.81799   0.28624   0.00000  Uiso   1.00
C236   C     0.40004   0.91217   0.71184   0.00000  Uiso   1.00
C237   C     0.42420   0.98190   0.75389   0.00000  Uiso   1.00
C238   C     0.48251   0.96708   0.81280   0.00000  Uiso   1.00
C239   C     0.57511   0.97679   0.91412   0.00000  Uiso   1.00
C240   C     0.27618   0.85192   0.68005   0.00000  Uiso   1.00
C241   C     0.19618   0.87098   0.69542   0.00000  Uiso   1.00
C242   C     0.15021   0.80544   0.72759   0.00000  Uiso   1.00
C243   C     0.05049   0.72159   0.77957   0.00000  Uiso   1.00
C244   C     0.39778   0.76363   0.67486   0.00000  Uiso   1.00
C245   C     0.40976   0.79304   0.57981   0.00000  Uiso   1.00
C246   C     0.44855   0.74659   0.51403   0.00000  Uiso   1.00
C247   C     0.45326   0.78471   0.43135   0.00000  Uiso   1.00
C248   C     0.43296   0.83055   0.72805   0.00000  Uiso   1.00
C249   C     0.49125   0.81562   0.78692   0.00000  Uiso   1.00
C250   C     0.51549   0.88531   0.82905   0.00000  Uiso   1.00
C251   C     0.30909   0.77029   0.69627   0.00000  Uiso   1.00
C252   C     0.26324   0.70470   0.72843   0.00000  Uiso   1.00
C253   C     0.18319   0.72366   0.74383   0.00000  Uiso   1.00
H254   H     0.31155   0.97747   0.63239   0.00000  Uiso   1.00
H255   H     0.35602   0.97605   0.46849   0.00000  Uiso   1.00
H256   H     0.39871   0.04506   0.74134   0.00000  Uiso   1.00
H257   H     0.17073   0.93416   0.68286   0.00000  Uiso   1.00
H258   H     0.41987   0.93848   0.29392   0.00000  Uiso   1.00
H259   H     0.50985   0.08400   0.86927   0.00000  Uiso   1.00
H260   H     0.02912   0.85014   0.74597   0.00000  Uiso   1.00
H261   H     0.42341   0.70007   0.68748   0.00000  Uiso   1.00
H262   H     0.47402   0.68342   0.52659   0.00000  Uiso   1.00
H263   H     0.51671   0.75244   0.79945   0.00000  Uiso   1.00
H264   H     0.28873   0.64154   0.74097   0.00000  Uiso   1.00
H265   H     0.51565   0.70098   0.34108   0.00000  Uiso   1.00
H266   H     0.60562   0.84650   0.91644   0.00000  Uiso   1.00
H267   H     0.12489   0.61264   0.79313   0.00000  Uiso   1.00
O268   O     0.49906   0.81379   0.21068   0.00000  Uiso   1.00
O269   O     0.61709   0.00471   0.96552   0.00000  Uiso   1.00
O270   O     0.98639   0.69789   0.80375   0.00000  Uiso   1.00
N271   N     0.43546   0.88486   0.32710   0.00000  Uiso   1.00
N272   N     0.51959   0.02092   0.86500   0.00000  Uiso   1.00
N273   N     0.07015   0.80229   0.74975   0.00000  Uiso   1.00
N274   N     0.48699   0.75706   0.35248   0.00000  Uiso   1.00
N275   N     0.57112   0.89312   0.89038   0.00000  Uiso   1.00
N276   N     0.12168   0.67449   0.77513   0.00000  Uiso   1.00
