data_job_02232
_audit_creation_date              2018-12-19
_audit_creation_method            'Materials Studio'
_symmetry_space_group_name_H-M    'P1'
_symmetry_Int_Tables_number       1
_symmetry_cell_setting            triclinic
loop_
_symmetry_equiv_pos_as_xyz
  x,y,z
_cell_length_a                    22.1919
_cell_length_b                    17.1140
_cell_length_c                    17.9704
_cell_angle_alpha                 90.0000
_cell_angle_beta                  90.0000
_cell_angle_gamma                 90.0000
loop_
_atom_site_label
_atom_site_type_symbol
_atom_site_fract_x
_atom_site_fract_y
_atom_site_fract_z
_atom_site_U_iso_or_equiv
_atom_site_adp_type
_atom_site_occupancy
C1     C     0.82427   0.35337   0.23323   0.00000  Uiso   1.00
C2     C     0.85051   0.27157   0.24227   0.00000  Uiso   1.00
C3     C     0.88101   0.22980   0.18784   0.00000  Uiso   1.00
C4     C     0.90151   0.15586   0.20708   0.00000  Uiso   1.00
C5     C     0.94369   0.03354   0.21030   0.00000  Uiso   1.00
C6     C     0.75757   0.34657   0.25260   0.00000  Uiso   1.00
C7     C     0.70994   0.36787   0.20685   0.00000  Uiso   1.00
C8     C     0.65220   0.35708   0.23479   0.00000  Uiso   1.00
C9     C     0.55011   0.35125   0.25406   0.00000  Uiso   1.00
C10    C     0.85250   0.40289   0.29455   0.00000  Uiso   1.00
C11    C     0.88467   0.47156   0.28409   0.00000  Uiso   1.00
C12    C     0.90684   0.50820   0.34735   0.00000  Uiso   1.00
C13    C     0.95213   0.58982   0.43176   0.00000  Uiso   1.00
C14    C     0.80644   0.29635   0.36419   0.00000  Uiso   1.00
C15    C     0.84082   0.24060   0.31340   0.00000  Uiso   1.00
C16    C     0.86128   0.16670   0.33273   0.00000  Uiso   1.00
C17    C     0.89181   0.12483   0.27834   0.00000  Uiso   1.00
C18    C     0.74789   0.31560   0.32373   0.00000  Uiso   1.00
C19    C     0.69021   0.30478   0.35174   0.00000  Uiso   1.00
C20    C     0.64250   0.32605   0.30605   0.00000  Uiso   1.00
C21    C     0.84281   0.37192   0.36569   0.00000  Uiso   1.00
C22    C     0.86494   0.40846   0.42898   0.00000  Uiso   1.00
C23    C     0.89713   0.47717   0.41861   0.00000  Uiso   1.00
H24    H     0.83181   0.37749   0.17785   0.00000  Uiso   1.00
H25    H     0.88849   0.25379   0.13280   0.00000  Uiso   1.00
H26    H     0.71745   0.39185   0.15181   0.00000  Uiso   1.00
H27    H     0.89215   0.49551   0.22903   0.00000  Uiso   1.00
H28    H     0.94704   0.10297   0.11422   0.00000  Uiso   1.00
H29    H     0.58639   0.39410   0.15431   0.00000  Uiso   1.00
H30    H     0.95479   0.61271   0.31715   0.00000  Uiso   1.00
H31    H     0.79889   0.27223   0.41957   0.00000  Uiso   1.00
H32    H     0.85377   0.14275   0.38778   0.00000  Uiso   1.00
H33    H     0.68273   0.28081   0.40679   0.00000  Uiso   1.00
H34    H     0.85743   0.38448   0.48402   0.00000  Uiso   1.00
H35    H     0.91886   0.01284   0.32117   0.00000  Uiso   1.00
H36    H     0.55821   0.30398   0.36127   0.00000  Uiso   1.00
H37    H     0.92661   0.52259   0.52411   0.00000  Uiso   1.00
O38    O     0.96963   0.97462   0.19242   0.00000  Uiso   1.00
O39    O     0.49648   0.35659   0.24503   0.00000  Uiso   1.00
O40    O     0.97980   0.64339   0.45866   0.00000  Uiso   1.00
N41    N     0.93289   0.09953   0.16729   0.00000  Uiso   1.00
N42    N     0.59570   0.37171   0.20477   0.00000  Uiso   1.00
N43    N     0.94011   0.57611   0.35701   0.00000  Uiso   1.00
N44    N     0.91773   0.05104   0.27865   0.00000  Uiso   1.00
N45    N     0.58054   0.32322   0.31613   0.00000  Uiso   1.00
N46    N     0.92494   0.52761   0.46837   0.00000  Uiso   1.00
C47    C     0.78248   0.85418   0.77137   0.00000  Uiso   1.00
C48    C     0.81025   0.77447   0.75517   0.00000  Uiso   1.00
C49    C     0.83310   0.75017   0.68712   0.00000  Uiso   1.00
C50    C     0.85656   0.67505   0.68368   0.00000  Uiso   1.00
C51    C     0.89956   0.55871   0.64902   0.00000  Uiso   1.00
C52    C     0.71951   0.83803   0.80164   0.00000  Uiso   1.00
C53    C     0.66607   0.86717   0.77266   0.00000  Uiso   1.00
C54    C     0.61314   0.84556   0.80835   0.00000  Uiso   1.00
C55    C     0.51527   0.82795   0.84586   0.00000  Uiso   1.00
C56    C     0.81838   0.88823   0.83605   0.00000  Uiso   1.00
C57    C     0.84807   0.95960   0.83602   0.00000  Uiso   1.00
C58    C     0.87837   0.98027   0.90069   0.00000  Uiso   1.00
C59    C     0.93401   0.04061   0.99163   0.00000  Uiso   1.00
C60    C     0.78349   0.76398   0.88628   0.00000  Uiso   1.00
C61    C     0.81079   0.72548   0.81759   0.00000  Uiso   1.00
C62    C     0.83422   0.65037   0.81425   0.00000  Uiso   1.00
C63    C     0.85711   0.62597   0.74621   0.00000  Uiso   1.00
C64    C     0.72005   0.78904   0.86405   0.00000  Uiso   1.00
C65    C     0.66719   0.76738   0.89980   0.00000  Uiso   1.00
C66    C     0.61369   0.79648   0.87087   0.00000  Uiso   1.00
C67    C     0.81893   0.83924   0.89847   0.00000  Uiso   1.00
C68    C     0.84919   0.85981   0.96315   0.00000  Uiso   1.00
C69    C     0.87892   0.93119   0.96322   0.00000  Uiso   1.00
H70    H     0.78205   0.89232   0.72278   0.00000  Uiso   1.00
H71    H     0.83267   0.78810   0.63883   0.00000  Uiso   1.00
H72    H     0.66566   0.90509   0.72436   0.00000  Uiso   1.00
H73    H     0.84763   0.99750   0.78771   0.00000  Uiso   1.00
H74    H     0.88900   0.65093   0.57326   0.00000  Uiso   1.00
H75    H     0.53687   0.89764   0.75364   0.00000  Uiso   1.00
H76    H     0.92059   0.09251   0.88722   0.00000  Uiso   1.00
H77    H     0.78392   0.72584   0.93488   0.00000  Uiso   1.00
H78    H     0.83464   0.61247   0.86256   0.00000  Uiso   1.00
H79    H     0.66763   0.72947   0.94810   0.00000  Uiso   1.00
H80    H     0.84960   0.82188   0.01144   0.00000  Uiso   1.00
H81    H     0.89060   0.50838   0.75486   0.00000  Uiso   1.00
H82    H     0.53847   0.75510   0.93523   0.00000  Uiso   1.00
H83    H     0.92219   0.94996   0.06881   0.00000  Uiso   1.00
O84    O     0.92312   0.50808   0.61265   0.00000  Uiso   1.00
O85    O     0.46113   0.83176   0.84930   0.00000  Uiso   1.00
O86    O     0.96456   0.08742   0.02455   0.00000  Uiso   1.00
N87    N     0.88243   0.63294   0.62593   0.00000  Uiso   1.00
N88    N     0.55321   0.86359   0.79456   0.00000  Uiso   1.00
N89    N     0.91193   0.04579   0.91945   0.00000  Uiso   1.00
N90    N     0.88329   0.55624   0.72364   0.00000  Uiso   1.00
N91    N     0.55407   0.78689   0.89227   0.00000  Uiso   1.00
N92    N     0.91280   0.96909   0.01716   0.00000  Uiso   1.00
C93    C     0.17573   0.64663   0.73323   0.00000  Uiso   1.00
C94    C     0.14949   0.72843   0.74227   0.00000  Uiso   1.00
C95    C     0.11899   0.77020   0.68784   0.00000  Uiso   1.00
C96    C     0.09849   0.84414   0.70708   0.00000  Uiso   1.00
C97    C     0.05631   0.96646   0.71030   0.00000  Uiso   1.00
C98    C     0.24243   0.65343   0.75260   0.00000  Uiso   1.00
C99    C     0.29006   0.63213   0.70685   0.00000  Uiso   1.00
C100   C     0.34780   0.64292   0.73479   0.00000  Uiso   1.00
C101   C     0.44989   0.64875   0.75406   0.00000  Uiso   1.00
C102   C     0.14750   0.59711   0.79455   0.00000  Uiso   1.00
C103   C     0.11533   0.52844   0.78409   0.00000  Uiso   1.00
C104   C     0.09316   0.49180   0.84735   0.00000  Uiso   1.00
C105   C     0.04787   0.41018   0.93176   0.00000  Uiso   1.00
C106   C     0.19356   0.70365   0.86419   0.00000  Uiso   1.00
C107   C     0.15918   0.75940   0.81340   0.00000  Uiso   1.00
C108   C     0.13872   0.83330   0.83273   0.00000  Uiso   1.00
C109   C     0.10819   0.87517   0.77834   0.00000  Uiso   1.00
C110   C     0.25211   0.68440   0.82373   0.00000  Uiso   1.00
C111   C     0.30979   0.69522   0.85174   0.00000  Uiso   1.00
C112   C     0.35750   0.67395   0.80605   0.00000  Uiso   1.00
C113   C     0.15719   0.62808   0.86569   0.00000  Uiso   1.00
C114   C     0.13506   0.59154   0.92898   0.00000  Uiso   1.00
C115   C     0.10287   0.52283   0.91861   0.00000  Uiso   1.00
H116   H     0.16819   0.62251   0.67785   0.00000  Uiso   1.00
H117   H     0.11151   0.74621   0.63280   0.00000  Uiso   1.00
H118   H     0.28255   0.60815   0.65181   0.00000  Uiso   1.00
H119   H     0.10785   0.50449   0.72903   0.00000  Uiso   1.00
H120   H     0.05296   0.89703   0.61422   0.00000  Uiso   1.00
H121   H     0.41361   0.60590   0.65431   0.00000  Uiso   1.00
H122   H     0.04521   0.38729   0.81715   0.00000  Uiso   1.00
H123   H     0.20111   0.72777   0.91957   0.00000  Uiso   1.00
H124   H     0.14623   0.85725   0.88778   0.00000  Uiso   1.00
H125   H     0.31727   0.71919   0.90679   0.00000  Uiso   1.00
H126   H     0.14257   0.61552   0.98402   0.00000  Uiso   1.00
H127   H     0.08114   0.98716   0.82117   0.00000  Uiso   1.00
H128   H     0.44179   0.69602   0.86127   0.00000  Uiso   1.00
H129   H     0.07339   0.47741   0.02411   0.00000  Uiso   1.00
O130   O     0.03037   0.02538   0.69242   0.00000  Uiso   1.00
O131   O     0.50352   0.64341   0.74503   0.00000  Uiso   1.00
O132   O     0.02020   0.35661   0.95866   0.00000  Uiso   1.00
N133   N     0.06711   0.90047   0.66729   0.00000  Uiso   1.00
N134   N     0.40430   0.62829   0.70477   0.00000  Uiso   1.00
N135   N     0.05989   0.42389   0.85701   0.00000  Uiso   1.00
N136   N     0.08227   0.94896   0.77865   0.00000  Uiso   1.00
N137   N     0.41946   0.67678   0.81613   0.00000  Uiso   1.00
N138   N     0.07506   0.47239   0.96837   0.00000  Uiso   1.00
C139   C     0.21752   0.14582   0.27137   0.00000  Uiso   1.00
C140   C     0.18975   0.22553   0.25517   0.00000  Uiso   1.00
C141   C     0.16690   0.24983   0.18712   0.00000  Uiso   1.00
C142   C     0.14344   0.32495   0.18368   0.00000  Uiso   1.00
C143   C     0.10044   0.44129   0.14902   0.00000  Uiso   1.00
C144   C     0.28049   0.16197   0.30164   0.00000  Uiso   1.00
C145   C     0.33393   0.13283   0.27266   0.00000  Uiso   1.00
C146   C     0.38686   0.15444   0.30835   0.00000  Uiso   1.00
C147   C     0.48473   0.17205   0.34586   0.00000  Uiso   1.00
C148   C     0.18162   0.11177   0.33605   0.00000  Uiso   1.00
C149   C     0.15193   0.04040   0.33602   0.00000  Uiso   1.00
C150   C     0.12163   0.01973   0.40069   0.00000  Uiso   1.00
C151   C     0.06599   0.95939   0.49163   0.00000  Uiso   1.00
C152   C     0.21651   0.23602   0.38628   0.00000  Uiso   1.00
C153   C     0.18921   0.27452   0.31759   0.00000  Uiso   1.00
C154   C     0.16578   0.34963   0.31425   0.00000  Uiso   1.00
C155   C     0.14289   0.37403   0.24621   0.00000  Uiso   1.00
C156   C     0.27995   0.21096   0.36405   0.00000  Uiso   1.00
C157   C     0.33281   0.23262   0.39980   0.00000  Uiso   1.00
C158   C     0.38631   0.20352   0.37087   0.00000  Uiso   1.00
C159   C     0.18107   0.16076   0.39847   0.00000  Uiso   1.00
C160   C     0.15081   0.14019   0.46315   0.00000  Uiso   1.00
C161   C     0.12108   0.06881   0.46322   0.00000  Uiso   1.00
H162   H     0.21795   0.10768   0.22278   0.00000  Uiso   1.00
H163   H     0.16733   0.21190   0.13883   0.00000  Uiso   1.00
H164   H     0.33434   0.09491   0.22436   0.00000  Uiso   1.00
H165   H     0.15237   0.00250   0.28771   0.00000  Uiso   1.00
H166   H     0.11100   0.34907   0.07326   0.00000  Uiso   1.00
H167   H     0.46313   0.10236   0.25364   0.00000  Uiso   1.00
H168   H     0.07941   0.90749   0.38722   0.00000  Uiso   1.00
H169   H     0.21608   0.27416   0.43488   0.00000  Uiso   1.00
H170   H     0.16536   0.38753   0.36256   0.00000  Uiso   1.00
H171   H     0.33237   0.27053   0.44810   0.00000  Uiso   1.00
H172   H     0.15040   0.17812   0.51144   0.00000  Uiso   1.00
H173   H     0.10940   0.49162   0.25486   0.00000  Uiso   1.00
H174   H     0.46153   0.24490   0.43523   0.00000  Uiso   1.00
H175   H     0.07781   0.05004   0.56881   0.00000  Uiso   1.00
O176   O     0.07688   0.49192   0.11265   0.00000  Uiso   1.00
O177   O     0.53887   0.16824   0.34930   0.00000  Uiso   1.00
O178   O     0.03544   0.91258   0.52455   0.00000  Uiso   1.00
N179   N     0.11757   0.36706   0.12593   0.00000  Uiso   1.00
N180   N     0.44679   0.13641   0.29456   0.00000  Uiso   1.00
N181   N     0.08807   0.95421   0.41945   0.00000  Uiso   1.00
N182   N     0.11671   0.44376   0.22364   0.00000  Uiso   1.00
N183   N     0.44593   0.21311   0.39227   0.00000  Uiso   1.00
N184   N     0.08720   0.03091   0.51716   0.00000  Uiso   1.00
C185   C     0.32427   0.64663   0.23323   0.00000  Uiso   1.00
C186   C     0.35051   0.72843   0.24227   0.00000  Uiso   1.00
C187   C     0.38101   0.77020   0.18784   0.00000  Uiso   1.00
C188   C     0.40151   0.84414   0.20708   0.00000  Uiso   1.00
C189   C     0.44369   0.96646   0.21030   0.00000  Uiso   1.00
C190   C     0.25757   0.65343   0.25260   0.00000  Uiso   1.00
C191   C     0.20994   0.63213   0.20685   0.00000  Uiso   1.00
C192   C     0.15220   0.64292   0.23479   0.00000  Uiso   1.00
C193   C     0.05011   0.64875   0.25406   0.00000  Uiso   1.00
C194   C     0.35250   0.59711   0.29455   0.00000  Uiso   1.00
C195   C     0.38467   0.52844   0.28409   0.00000  Uiso   1.00
C196   C     0.40684   0.49180   0.34735   0.00000  Uiso   1.00
C197   C     0.45213   0.41018   0.43176   0.00000  Uiso   1.00
C198   C     0.30644   0.70365   0.36419   0.00000  Uiso   1.00
C199   C     0.34082   0.75940   0.31340   0.00000  Uiso   1.00
C200   C     0.36128   0.83330   0.33273   0.00000  Uiso   1.00
C201   C     0.39181   0.87517   0.27834   0.00000  Uiso   1.00
C202   C     0.24789   0.68440   0.32373   0.00000  Uiso   1.00
C203   C     0.19021   0.69522   0.35174   0.00000  Uiso   1.00
C204   C     0.14250   0.67395   0.30605   0.00000  Uiso   1.00
C205   C     0.34281   0.62808   0.36569   0.00000  Uiso   1.00
C206   C     0.36494   0.59154   0.42898   0.00000  Uiso   1.00
C207   C     0.39713   0.52283   0.41861   0.00000  Uiso   1.00
H208   H     0.33181   0.62251   0.17785   0.00000  Uiso   1.00
H209   H     0.38849   0.74621   0.13280   0.00000  Uiso   1.00
H210   H     0.21745   0.60815   0.15181   0.00000  Uiso   1.00
H211   H     0.39215   0.50449   0.22903   0.00000  Uiso   1.00
H212   H     0.44704   0.89703   0.11422   0.00000  Uiso   1.00
H213   H     0.08639   0.60590   0.15431   0.00000  Uiso   1.00
H214   H     0.45479   0.38729   0.31715   0.00000  Uiso   1.00
H215   H     0.29889   0.72777   0.41957   0.00000  Uiso   1.00
H216   H     0.35377   0.85725   0.38778   0.00000  Uiso   1.00
H217   H     0.18273   0.71919   0.40679   0.00000  Uiso   1.00
H218   H     0.35743   0.61552   0.48402   0.00000  Uiso   1.00
H219   H     0.41886   0.98716   0.32117   0.00000  Uiso   1.00
H220   H     0.05821   0.69602   0.36127   0.00000  Uiso   1.00
H221   H     0.42661   0.47741   0.52411   0.00000  Uiso   1.00
O222   O     0.46963   0.02538   0.19242   0.00000  Uiso   1.00
O223   O     0.99648   0.64341   0.24503   0.00000  Uiso   1.00
O224   O     0.47980   0.35661   0.45866   0.00000  Uiso   1.00
N225   N     0.43289   0.90047   0.16729   0.00000  Uiso   1.00
N226   N     0.09570   0.62829   0.20477   0.00000  Uiso   1.00
N227   N     0.44011   0.42389   0.35701   0.00000  Uiso   1.00
N228   N     0.41773   0.94896   0.27865   0.00000  Uiso   1.00
N229   N     0.08054   0.67678   0.31613   0.00000  Uiso   1.00
N230   N     0.42494   0.47239   0.46837   0.00000  Uiso   1.00
C231   C     0.28248   0.14582   0.77137   0.00000  Uiso   1.00
C232   C     0.31025   0.22553   0.75517   0.00000  Uiso   1.00
C233   C     0.33310   0.24983   0.68712   0.00000  Uiso   1.00
C234   C     0.35656   0.32495   0.68368   0.00000  Uiso   1.00
C235   C     0.39956   0.44129   0.64902   0.00000  Uiso   1.00
C236   C     0.21951   0.16197   0.80164   0.00000  Uiso   1.00
C237   C     0.16607   0.13283   0.77266   0.00000  Uiso   1.00
C238   C     0.11314   0.15444   0.80835   0.00000  Uiso   1.00
C239   C     0.01527   0.17205   0.84586   0.00000  Uiso   1.00
C240   C     0.31838   0.11177   0.83605   0.00000  Uiso   1.00
C241   C     0.34807   0.04040   0.83602   0.00000  Uiso   1.00
C242   C     0.37837   0.01973   0.90069   0.00000  Uiso   1.00
C243   C     0.43401   0.95939   0.99163   0.00000  Uiso   1.00
C244   C     0.28349   0.23602   0.88628   0.00000  Uiso   1.00
C245   C     0.31079   0.27452   0.81759   0.00000  Uiso   1.00
C246   C     0.33422   0.34963   0.81425   0.00000  Uiso   1.00
C247   C     0.35711   0.37403   0.74621   0.00000  Uiso   1.00
C248   C     0.22005   0.21096   0.86405   0.00000  Uiso   1.00
C249   C     0.16719   0.23262   0.89980   0.00000  Uiso   1.00
C250   C     0.11369   0.20352   0.87087   0.00000  Uiso   1.00
C251   C     0.31893   0.16076   0.89847   0.00000  Uiso   1.00
C252   C     0.34919   0.14019   0.96315   0.00000  Uiso   1.00
C253   C     0.37892   0.06881   0.96322   0.00000  Uiso   1.00
H254   H     0.28205   0.10768   0.72278   0.00000  Uiso   1.00
H255   H     0.33267   0.21190   0.63883   0.00000  Uiso   1.00
H256   H     0.16566   0.09491   0.72436   0.00000  Uiso   1.00
H257   H     0.34763   0.00250   0.78771   0.00000  Uiso   1.00
H258   H     0.38900   0.34907   0.57326   0.00000  Uiso   1.00
H259   H     0.03687   0.10236   0.75364   0.00000  Uiso   1.00
H260   H     0.42059   0.90749   0.88722   0.00000  Uiso   1.00
H261   H     0.28392   0.27416   0.93488   0.00000  Uiso   1.00
H262   H     0.33464   0.38753   0.86256   0.00000  Uiso   1.00
H263   H     0.16763   0.27053   0.94810   0.00000  Uiso   1.00
H264   H     0.34960   0.17812   0.01144   0.00000  Uiso   1.00
H265   H     0.39060   0.49162   0.75486   0.00000  Uiso   1.00
H266   H     0.03847   0.24490   0.93523   0.00000  Uiso   1.00
H267   H     0.42219   0.05004   0.06881   0.00000  Uiso   1.00
O268   O     0.42312   0.49192   0.61265   0.00000  Uiso   1.00
O269   O     0.96113   0.16824   0.84930   0.00000  Uiso   1.00
O270   O     0.46456   0.91258   0.02455   0.00000  Uiso   1.00
N271   N     0.38243   0.36706   0.62593   0.00000  Uiso   1.00
N272   N     0.05321   0.13641   0.79456   0.00000  Uiso   1.00
N273   N     0.41193   0.95421   0.91945   0.00000  Uiso   1.00
N274   N     0.38329   0.44376   0.72364   0.00000  Uiso   1.00
N275   N     0.05407   0.21311   0.89227   0.00000  Uiso   1.00
N276   N     0.41280   0.03091   0.01716   0.00000  Uiso   1.00
C277   C     0.67573   0.35337   0.73323   0.00000  Uiso   1.00
C278   C     0.64949   0.27157   0.74227   0.00000  Uiso   1.00
C279   C     0.61899   0.22980   0.68784   0.00000  Uiso   1.00
C280   C     0.59849   0.15586   0.70708   0.00000  Uiso   1.00
C281   C     0.55631   0.03354   0.71030   0.00000  Uiso   1.00
C282   C     0.74243   0.34657   0.75260   0.00000  Uiso   1.00
C283   C     0.79006   0.36787   0.70685   0.00000  Uiso   1.00
C284   C     0.84780   0.35708   0.73479   0.00000  Uiso   1.00
C285   C     0.94989   0.35125   0.75406   0.00000  Uiso   1.00
C286   C     0.64750   0.40289   0.79455   0.00000  Uiso   1.00
C287   C     0.61533   0.47156   0.78409   0.00000  Uiso   1.00
C288   C     0.59316   0.50820   0.84735   0.00000  Uiso   1.00
C289   C     0.54787   0.58982   0.93176   0.00000  Uiso   1.00
C290   C     0.69356   0.29635   0.86419   0.00000  Uiso   1.00
C291   C     0.65918   0.24060   0.81340   0.00000  Uiso   1.00
C292   C     0.63872   0.16670   0.83273   0.00000  Uiso   1.00
C293   C     0.60819   0.12483   0.77834   0.00000  Uiso   1.00
C294   C     0.75211   0.31560   0.82373   0.00000  Uiso   1.00
C295   C     0.80979   0.30478   0.85174   0.00000  Uiso   1.00
C296   C     0.85750   0.32605   0.80605   0.00000  Uiso   1.00
C297   C     0.65719   0.37192   0.86569   0.00000  Uiso   1.00
C298   C     0.63506   0.40846   0.92898   0.00000  Uiso   1.00
C299   C     0.60287   0.47717   0.91861   0.00000  Uiso   1.00
H300   H     0.66819   0.37749   0.67785   0.00000  Uiso   1.00
H301   H     0.61151   0.25379   0.63280   0.00000  Uiso   1.00
H302   H     0.78255   0.39185   0.65181   0.00000  Uiso   1.00
H303   H     0.60785   0.49551   0.72903   0.00000  Uiso   1.00
H304   H     0.55296   0.10297   0.61422   0.00000  Uiso   1.00
H305   H     0.91361   0.39410   0.65431   0.00000  Uiso   1.00
H306   H     0.54521   0.61271   0.81715   0.00000  Uiso   1.00
H307   H     0.70111   0.27223   0.91957   0.00000  Uiso   1.00
H308   H     0.64623   0.14275   0.88778   0.00000  Uiso   1.00
H309   H     0.81727   0.28081   0.90679   0.00000  Uiso   1.00
H310   H     0.64257   0.38448   0.98402   0.00000  Uiso   1.00
H311   H     0.58114   0.01284   0.82117   0.00000  Uiso   1.00
H312   H     0.94179   0.30398   0.86127   0.00000  Uiso   1.00
H313   H     0.57339   0.52259   0.02411   0.00000  Uiso   1.00
O314   O     0.53037   0.97462   0.69242   0.00000  Uiso   1.00
O315   O     0.00352   0.35659   0.74503   0.00000  Uiso   1.00
O316   O     0.52020   0.64339   0.95866   0.00000  Uiso   1.00
N317   N     0.56711   0.09953   0.66729   0.00000  Uiso   1.00
N318   N     0.90430   0.37171   0.70477   0.00000  Uiso   1.00
N319   N     0.55989   0.57611   0.85701   0.00000  Uiso   1.00
N320   N     0.58227   0.05104   0.77865   0.00000  Uiso   1.00
N321   N     0.91946   0.32322   0.81613   0.00000  Uiso   1.00
N322   N     0.57506   0.52761   0.96837   0.00000  Uiso   1.00
C323   C     0.71752   0.85418   0.27137   0.00000  Uiso   1.00
C324   C     0.68975   0.77447   0.25517   0.00000  Uiso   1.00
C325   C     0.66690   0.75017   0.18712   0.00000  Uiso   1.00
C326   C     0.64344   0.67505   0.18368   0.00000  Uiso   1.00
C327   C     0.60044   0.55871   0.14902   0.00000  Uiso   1.00
C328   C     0.78049   0.83803   0.30164   0.00000  Uiso   1.00
C329   C     0.83393   0.86717   0.27266   0.00000  Uiso   1.00
C330   C     0.88686   0.84556   0.30835   0.00000  Uiso   1.00
C331   C     0.98473   0.82795   0.34586   0.00000  Uiso   1.00
C332   C     0.68162   0.88823   0.33605   0.00000  Uiso   1.00
C333   C     0.65193   0.95960   0.33602   0.00000  Uiso   1.00
C334   C     0.62163   0.98027   0.40069   0.00000  Uiso   1.00
C335   C     0.56599   0.04061   0.49163   0.00000  Uiso   1.00
C336   C     0.71651   0.76398   0.38628   0.00000  Uiso   1.00
C337   C     0.68921   0.72548   0.31759   0.00000  Uiso   1.00
C338   C     0.66578   0.65037   0.31425   0.00000  Uiso   1.00
C339   C     0.64289   0.62597   0.24621   0.00000  Uiso   1.00
C340   C     0.77995   0.78904   0.36405   0.00000  Uiso   1.00
C341   C     0.83281   0.76738   0.39980   0.00000  Uiso   1.00
C342   C     0.88631   0.79648   0.37087   0.00000  Uiso   1.00
C343   C     0.68107   0.83924   0.39847   0.00000  Uiso   1.00
C344   C     0.65081   0.85981   0.46315   0.00000  Uiso   1.00
C345   C     0.62108   0.93119   0.46322   0.00000  Uiso   1.00
H346   H     0.71795   0.89232   0.22278   0.00000  Uiso   1.00
H347   H     0.66733   0.78810   0.13883   0.00000  Uiso   1.00
H348   H     0.83434   0.90509   0.22436   0.00000  Uiso   1.00
H349   H     0.65237   0.99750   0.28771   0.00000  Uiso   1.00
H350   H     0.61100   0.65093   0.07326   0.00000  Uiso   1.00
H351   H     0.96313   0.89764   0.25364   0.00000  Uiso   1.00
H352   H     0.57941   0.09251   0.38722   0.00000  Uiso   1.00
H353   H     0.71608   0.72584   0.43488   0.00000  Uiso   1.00
H354   H     0.66536   0.61247   0.36256   0.00000  Uiso   1.00
H355   H     0.83237   0.72947   0.44810   0.00000  Uiso   1.00
H356   H     0.65040   0.82188   0.51144   0.00000  Uiso   1.00
H357   H     0.60940   0.50838   0.25486   0.00000  Uiso   1.00
H358   H     0.96153   0.75510   0.43523   0.00000  Uiso   1.00
H359   H     0.57781   0.94996   0.56881   0.00000  Uiso   1.00
O360   O     0.57688   0.50808   0.11265   0.00000  Uiso   1.00
O361   O     0.03887   0.83176   0.34930   0.00000  Uiso   1.00
O362   O     0.53544   0.08742   0.52455   0.00000  Uiso   1.00
N363   N     0.61757   0.63294   0.12593   0.00000  Uiso   1.00
N364   N     0.94679   0.86359   0.29456   0.00000  Uiso   1.00
N365   N     0.58807   0.04579   0.41945   0.00000  Uiso   1.00
N366   N     0.61671   0.55624   0.22364   0.00000  Uiso   1.00
N367   N     0.94593   0.78689   0.39227   0.00000  Uiso   1.00
N368   N     0.58720   0.96909   0.51716   0.00000  Uiso   1.00
