data_job_06416
_audit_creation_date              2018-12-19
_audit_creation_method            'Materials Studio'
_symmetry_space_group_name_H-M    'P1'
_symmetry_Int_Tables_number       1
_symmetry_cell_setting            triclinic
loop_
_symmetry_equiv_pos_as_xyz
  x,y,z
_cell_length_a                    12.9917
_cell_length_b                    18.1529
_cell_length_c                    18.5375
_cell_angle_alpha                 114.7290
_cell_angle_beta                  75.4279
_cell_angle_gamma                 78.7726
loop_
_atom_site_label
_atom_site_type_symbol
_atom_site_fract_x
_atom_site_fract_y
_atom_site_fract_z
_atom_site_U_iso_or_equiv
_atom_site_adp_type
_atom_site_occupancy
C1     C     0.59383   0.72563   0.55603   0.00000  Uiso   1.00
C2     C     0.46942   0.73730   0.59438   0.00000  Uiso   1.00
C3     C     0.40063   0.78635   0.68058   0.00000  Uiso   1.00
C4     C     0.28918   0.78880   0.70276   0.00000  Uiso   1.00
C5     C     0.10226   0.81373   0.77173   0.00000  Uiso   1.00
C6     C     0.65727   0.62861   0.50684   0.00000  Uiso   1.00
C7     C     0.74643   0.58628   0.51943   0.00000  Uiso   1.00
C8     C     0.79312   0.49724   0.46791   0.00000  Uiso   1.00
C9     C     0.89788   0.35344   0.40093   0.00000  Uiso   1.00
C10    C     0.60300   0.75418   0.48881   0.00000  Uiso   1.00
C11    C     0.64657   0.81742   0.48622   0.00000  Uiso   1.00
C12    C     0.64760   0.83409   0.41951   0.00000  Uiso   1.00
C13    C     0.66811   0.88526   0.32453   0.00000  Uiso   1.00
C14    C     0.51822   0.64276   0.44214   0.00000  Uiso   1.00
C15    C     0.42835   0.69228   0.53252   0.00000  Uiso   1.00
C16    C     0.31697   0.69467   0.55457   0.00000  Uiso   1.00
C17    C     0.24803   0.74372   0.64079   0.00000  Uiso   1.00
C18    C     0.61620   0.58360   0.44498   0.00000  Uiso   1.00
C19    C     0.66277   0.49460   0.39342   0.00000  Uiso   1.00
C20    C     0.75197   0.45215   0.40593   0.00000  Uiso   1.00
C21    C     0.56193   0.70917   0.42695   0.00000  Uiso   1.00
C22    C     0.56290   0.72574   0.36022   0.00000  Uiso   1.00
C23    C     0.60645   0.78900   0.35753   0.00000  Uiso   1.00
H24    H     0.62582   0.76066   0.60419   0.00000  Uiso   1.00
H25    H     0.43245   0.82116   0.72844   0.00000  Uiso   1.00
H26    H     0.77820   0.62113   0.56731   0.00000  Uiso   1.00
H27    H     0.67835   0.85224   0.53411   0.00000  Uiso   1.00
H28    H     0.19997   0.86837   0.83891   0.00000  Uiso   1.00
H29    H     0.92903   0.44659   0.49914   0.00000  Uiso   1.00
H30    H     0.71847   0.93392   0.42913   0.00000  Uiso   1.00
H31    H     0.48624   0.60772   0.39397   0.00000  Uiso   1.00
H32    H     0.28521   0.65983   0.50668   0.00000  Uiso   1.00
H33    H     0.63096   0.45979   0.34555   0.00000  Uiso   1.00
H34    H     0.53111   0.69090   0.31235   0.00000  Uiso   1.00
H35    H     0.08047   0.73742   0.65893   0.00000  Uiso   1.00
H36    H     0.80953   0.31564   0.31915   0.00000  Uiso   1.00
H37    H     0.59897   0.80297   0.24914   0.00000  Uiso   1.00
O38    O     0.01051   0.83991   0.82686   0.00000  Uiso   1.00
O39    O     0.96701   0.28656   0.38108   0.00000  Uiso   1.00
O40    O     0.69076   0.92593   0.28924   0.00000  Uiso   1.00
N41    N     0.19943   0.83041   0.78108   0.00000  Uiso   1.00
N42    N     0.88104   0.43607   0.46342   0.00000  Uiso   1.00
N43    N     0.68422   0.89167   0.39796   0.00000  Uiso   1.00
N44    N     0.13512   0.75995   0.68423   0.00000  Uiso   1.00
N45    N     0.81674   0.36561   0.36657   0.00000  Uiso   1.00
N46    N     0.61991   0.82121   0.30111   0.00000  Uiso   1.00
C47    C     0.14775   0.44454   0.16783   0.00000  Uiso   1.00
C48    C     0.06119   0.40370   0.14303   0.00000  Uiso   1.00
C49    C     0.07649   0.31630   0.10652   0.00000  Uiso   1.00
C50    C     0.98711   0.29187   0.08855   0.00000  Uiso   1.00
C51    C     0.86808   0.21920   0.04727   0.00000  Uiso   1.00
C52    C     0.16535   0.49518   0.12044   0.00000  Uiso   1.00
C53    C     0.26823   0.48469   0.06495   0.00000  Uiso   1.00
C54    C     0.26653   0.53727   0.02799   0.00000  Uiso   1.00
C55    C     0.30922   0.60666   0.95169   0.00000  Uiso   1.00
C56    C     0.08929   0.51151   0.26265   0.00000  Uiso   1.00
C57    C     0.12824   0.51478   0.32674   0.00000  Uiso   1.00
C58    C     0.06253   0.58113   0.40950   0.00000  Uiso   1.00
C59    C     0.98714   0.67588   0.55401   0.00000  Uiso   1.00
C60    C     0.96180   0.55657   0.20086   0.00000  Uiso   1.00
C61    C     0.96019   0.46455   0.16096   0.00000  Uiso   1.00
C62    C     0.87076   0.44025   0.14305   0.00000  Uiso   1.00
C63    C     0.88592   0.35282   0.10652   0.00000  Uiso   1.00
C64    C     0.06435   0.55602   0.13838   0.00000  Uiso   1.00
C65    C     0.06250   0.60864   0.10149   0.00000  Uiso   1.00
C66    C     0.16535   0.59823   0.04596   0.00000  Uiso   1.00
C67    C     0.98829   0.57236   0.28059   0.00000  Uiso   1.00
C68    C     0.92251   0.63872   0.36327   0.00000  Uiso   1.00
C69    C     0.96135   0.64209   0.42747   0.00000  Uiso   1.00
H70    H     0.22638   0.39717   0.15387   0.00000  Uiso   1.00
H71    H     0.15467   0.26923   0.09264   0.00000  Uiso   1.00
H72    H     0.34637   0.43760   0.05109   0.00000  Uiso   1.00
H73    H     0.20641   0.46768   0.31283   0.00000  Uiso   1.00
H74    H     0.03063   0.15422   0.03264   0.00000  Uiso   1.00
H75    H     0.43486   0.50926   0.94505   0.00000  Uiso   1.00
H76    H     0.13971   0.57269   0.49699   0.00000  Uiso   1.00
H77    H     0.88317   0.60395   0.21482   0.00000  Uiso   1.00
H78    H     0.79261   0.48735   0.15694   0.00000  Uiso   1.00
H79    H     0.98432   0.65572   0.11539   0.00000  Uiso   1.00
H80    H     0.84436   0.68580   0.37713   0.00000  Uiso   1.00
H81    H     0.73677   0.33125   0.08482   0.00000  Uiso   1.00
H82    H     0.14101   0.68630   0.99724   0.00000  Uiso   1.00
H83    H     0.84586   0.74972   0.54918   0.00000  Uiso   1.00
O84    O     0.83033   0.16230   0.01953   0.00000  Uiso   1.00
O85    O     0.36068   0.62811   0.90464   0.00000  Uiso   1.00
O86    O     0.97345   0.71132   0.62876   0.00000  Uiso   1.00
N87    N     0.97388   0.21189   0.05288   0.00000  Uiso   1.00
N88    N     0.35182   0.54382   0.97098   0.00000  Uiso   1.00
N89    N     0.07590   0.60313   0.48699   0.00000  Uiso   1.00
N90    N     0.81576   0.30715   0.08096   0.00000  Uiso   1.00
N91    N     0.19370   0.63908   0.99906   0.00000  Uiso   1.00
N92    N     0.91778   0.69839   0.51508   0.00000  Uiso   1.00
C93    C     0.31638   0.83385   0.27652   0.00000  Uiso   1.00
C94    C     0.20659   0.85685   0.26238   0.00000  Uiso   1.00
C95    C     0.18840   0.89382   0.21256   0.00000  Uiso   1.00
C96    C     0.08207   0.90989   0.20777   0.00000  Uiso   1.00
C97    C     0.92451   0.94872   0.17922   0.00000  Uiso   1.00
C98    C     0.28532   0.88120   0.37320   0.00000  Uiso   1.00
C99    C     0.33333   0.93862   0.41655   0.00000  Uiso   1.00
C100   C     0.29329   0.97518   0.50505   0.00000  Uiso   1.00
C101   C     0.25802   0.05175   0.64854   0.00000  Uiso   1.00
C102   C     0.34999   0.73802   0.24889   0.00000  Uiso   1.00
C103   C     0.45239   0.67507   0.18774   0.00000  Uiso   1.00
C104   C     0.46680   0.59109   0.17160   0.00000  Uiso   1.00
C105   C     0.53194   0.44537   0.12210   0.00000  Uiso   1.00
C106   C     0.15990   0.79665   0.35662   0.00000  Uiso   1.00
C107   C     0.12160   0.83665   0.30588   0.00000  Uiso   1.00
C108   C     0.01527   0.85266   0.30117   0.00000  Uiso   1.00
C109   C     0.99692   0.88965   0.25135   0.00000  Uiso   1.00
C110   C     0.20033   0.86099   0.41670   0.00000  Uiso   1.00
C111   C     0.16021   0.89746   0.50516   0.00000  Uiso   1.00
C112   C     0.20815   0.95493   0.54863   0.00000  Uiso   1.00
C113   C     0.26500   0.71782   0.29239   0.00000  Uiso   1.00
C114   C     0.27926   0.63392   0.27635   0.00000  Uiso   1.00
C115   C     0.38166   0.57085   0.21519   0.00000  Uiso   1.00
H116   H     0.38255   0.84959   0.24266   0.00000  Uiso   1.00
H117   H     0.25419   0.90946   0.17891   0.00000  Uiso   1.00
H118   H     0.39911   0.95424   0.38286   0.00000  Uiso   1.00
H119   H     0.51814   0.69073   0.15409   0.00000  Uiso   1.00
H120   H     0.07438   0.96695   0.12743   0.00000  Uiso   1.00
H121   H     0.37999   0.06136   0.55748   0.00000  Uiso   1.00
H122   H     0.63099   0.50570   0.07508   0.00000  Uiso   1.00
H123   H     0.09373   0.78092   0.39049   0.00000  Uiso   1.00
H124   H     0.94952   0.83702   0.33484   0.00000  Uiso   1.00
H125   H     0.09445   0.88181   0.53880   0.00000  Uiso   1.00
H126   H     0.21347   0.61830   0.31003   0.00000  Uiso   1.00
H127   H     0.82710   0.90817   0.25400   0.00000  Uiso   1.00
H128   H     0.13271   0.00257   0.68405   0.00000  Uiso   1.00
H129   H     0.38371   0.44692   0.20164   0.00000  Uiso   1.00
O130   O     0.86107   0.97573   0.15146   0.00000  Uiso   1.00
O131   O     0.26203   0.09957   0.71567   0.00000  Uiso   1.00
O132   O     0.59133   0.37057   0.08276   0.00000  Uiso   1.00
N133   N     0.03598   0.94540   0.16484   0.00000  Uiso   1.00
N134   N     0.32169   0.03368   0.56691   0.00000  Uiso   1.00
N135   N     0.55637   0.51419   0.11592   0.00000  Uiso   1.00
N136   N     0.90292   0.91377   0.23294   0.00000  Uiso   1.00
N137   N     0.18863   0.00204   0.63502   0.00000  Uiso   1.00
N138   N     0.42331   0.48256   0.18403   0.00000  Uiso   1.00
C139   C     0.64974   0.16965   0.44385   0.00000  Uiso   1.00
C140   C     0.56365   0.14293   0.40513   0.00000  Uiso   1.00
C141   C     0.58065   0.10607   0.31881   0.00000  Uiso   1.00
C142   C     0.49142   0.08626   0.29628   0.00000  Uiso   1.00
C143   C     0.37335   0.04223   0.22677   0.00000  Uiso   1.00
C144   C     0.66404   0.12184   0.49349   0.00000  Uiso   1.00
C145   C     0.76544   0.06726   0.48146   0.00000  Uiso   1.00
C146   C     0.76071   0.02971   0.53333   0.00000  Uiso   1.00
C147   C     0.79851   0.95298   0.60103   0.00000  Uiso   1.00
C148   C     0.59224   0.26498   0.51072   0.00000  Uiso   1.00
C149   C     0.63328   0.33074   0.51321   0.00000  Uiso   1.00
C150   C     0.56812   0.41370   0.57960   0.00000  Uiso   1.00
C151   C     0.49444   0.55922   0.67407   0.00000  Uiso   1.00
C152   C     0.46106   0.20002   0.55735   0.00000  Uiso   1.00
C153   C     0.46117   0.15943   0.46678   0.00000  Uiso   1.00
C154   C     0.37189   0.13968   0.44438   0.00000  Uiso   1.00
C155   C     0.38875   0.10279   0.35804   0.00000  Uiso   1.00
C156   C     0.56155   0.13834   0.55513   0.00000  Uiso   1.00
C157   C     0.55668   0.10086   0.60703   0.00000  Uiso   1.00
C158   C     0.65805   0.04623   0.59509   0.00000  Uiso   1.00
C159   C     0.48975   0.28148   0.57237   0.00000  Uiso   1.00
C160   C     0.42452   0.36435   0.63878   0.00000  Uiso   1.00
C161   C     0.46545   0.43023   0.64136   0.00000  Uiso   1.00
H162   H     0.72953   0.15680   0.39586   0.00000  Uiso   1.00
H163   H     0.65998   0.09330   0.27112   0.00000  Uiso   1.00
H164   H     0.84474   0.05451   0.43375   0.00000  Uiso   1.00
H165   H     0.71259   0.31795   0.46549   0.00000  Uiso   1.00
H166   H     0.53768   0.03015   0.16000   0.00000  Uiso   1.00
H167   H     0.92726   0.94837   0.50295   0.00000  Uiso   1.00
H168   H     0.64862   0.50390   0.56988   0.00000  Uiso   1.00
H169   H     0.38126   0.21287   0.60535   0.00000  Uiso   1.00
H170   H     0.29259   0.15245   0.49210   0.00000  Uiso   1.00
H171   H     0.47736   0.11365   0.65474   0.00000  Uiso   1.00
H172   H     0.34521   0.37710   0.68648   0.00000  Uiso   1.00
H173   H     0.23949   0.07816   0.33936   0.00000  Uiso   1.00
H174   H     0.62908   0.99638   0.68231   0.00000  Uiso   1.00
H175   H     0.35044   0.55190   0.74923   0.00000  Uiso   1.00
O176   O     0.33655   0.01337   0.17140   0.00000  Uiso   1.00
O177   O     0.84767   0.90609   0.62134   0.00000  Uiso   1.00
O178   O     0.48210   0.63492   0.70914   0.00000  Uiso   1.00
N179   N     0.47966   0.04976   0.21776   0.00000  Uiso   1.00
N180   N     0.84390   0.97328   0.53838   0.00000  Uiso   1.00
N181   N     0.58340   0.49265   0.60097   0.00000  Uiso   1.00
N182   N     0.31921   0.07559   0.31427   0.00000  Uiso   1.00
N183   N     0.68345   0.99912   0.63489   0.00000  Uiso   1.00
N184   N     0.42295   0.51848   0.69748   0.00000  Uiso   1.00
C185   C     0.81511   0.27721   0.83272   0.00000  Uiso   1.00
C186   C     0.70401   0.26095   0.85727   0.00000  Uiso   1.00
C187   C     0.68286   0.21005   0.89405   0.00000  Uiso   1.00
C188   C     0.57577   0.20335   0.91171   0.00000  Uiso   1.00
C189   C     0.41584   0.17165   0.95268   0.00000  Uiso   1.00
C190   C     0.78574   0.37489   0.87979   0.00000  Uiso   1.00
C191   C     0.83333   0.41978   0.93549   0.00000  Uiso   1.00
C192   C     0.79505   0.50899   0.97209   0.00000  Uiso   1.00
C193   C     0.76208   0.65417   0.04797   0.00000  Uiso   1.00
C194   C     0.85101   0.24968   0.73778   0.00000  Uiso   1.00
C195   C     0.95350   0.18931   0.67408   0.00000  Uiso   1.00
C196   C     0.97018   0.17313   0.59112   0.00000  Uiso   1.00
C197   C     0.03855   0.12390   0.44651   0.00000  Uiso   1.00
C198   C     0.66252   0.35583   0.79866   0.00000  Uiso   1.00
C199   C     0.62113   0.30366   0.83877   0.00000  Uiso   1.00
C200   C     0.51404   0.29704   0.85637   0.00000  Uiso   1.00
C201   C     0.49274   0.24613   0.89317   0.00000  Uiso   1.00
C202   C     0.70286   0.41759   0.86129   0.00000  Uiso   1.00
C203   C     0.66451   0.50676   0.89781   0.00000  Uiso   1.00
C204   C     0.71202   0.55177   0.95356   0.00000  Uiso   1.00
C205   C     0.76813   0.29238   0.71927   0.00000  Uiso   1.00
C206   C     0.78467   0.27629   0.63640   0.00000  Uiso   1.00
C207   C     0.88715   0.21591   0.57259   0.00000  Uiso   1.00
H208   H     0.87963   0.24397   0.84713   0.00000  Uiso   1.00
H209   H     0.74702   0.17702   0.90837   0.00000  Uiso   1.00
H210   H     0.89748   0.38671   0.94979   0.00000  Uiso   1.00
H211   H     0.01761   0.15628   0.68842   0.00000  Uiso   1.00
H212   H     0.56343   0.12165   0.96813   0.00000  Uiso   1.00
H213   H     0.88070   0.56380   0.05545   0.00000  Uiso   1.00
H214   H     0.13404   0.07789   0.50431   0.00000  Uiso   1.00
H215   H     0.59799   0.38908   0.78426   0.00000  Uiso   1.00
H216   H     0.44992   0.33009   0.84204   0.00000  Uiso   1.00
H217   H     0.60037   0.53978   0.88347   0.00000  Uiso   1.00
H218   H     0.72051   0.30935   0.62210   0.00000  Uiso   1.00
H219   H     0.32229   0.24589   0.91431   0.00000  Uiso   1.00
H220   H     0.63956   0.68804   0.00163   0.00000  Uiso   1.00
H221   H     0.89289   0.20213   0.45048   0.00000  Uiso   1.00
O222   O     0.35052   0.14237   0.98039   0.00000  Uiso   1.00
O223   O     0.76679   0.72244   0.09494   0.00000  Uiso   1.00
O224   O     0.09915   0.08494   0.37186   0.00000  Uiso   1.00
N225   N     0.52701   0.15897   0.94752   0.00000  Uiso   1.00
N226   N     0.82362   0.57235   0.02917   0.00000  Uiso   1.00
N227   N     0.06048   0.11809   0.51390   0.00000  Uiso   1.00
N228   N     0.39725   0.22582   0.91855   0.00000  Uiso   1.00
N229   N     0.69386   0.63921   0.00021   0.00000  Uiso   1.00
N230   N     0.93073   0.18494   0.48493   0.00000  Uiso   1.00
C231   C     0.09311   0.55716   0.72382   0.00000  Uiso   1.00
C232   C     0.96954   0.59397   0.73739   0.00000  Uiso   1.00
C233   C     0.90201   0.68035   0.78680   0.00000  Uiso   1.00
C234   C     0.79116   0.70095   0.79109   0.00000  Uiso   1.00
C235   C     0.60564   0.76778   0.81877   0.00000  Uiso   1.00
C236   C     0.15816   0.50825   0.62721   0.00000  Uiso   1.00
C237   C     0.24922   0.52256   0.58398   0.00000  Uiso   1.00
C238   C     0.29716   0.47099   0.49553   0.00000  Uiso   1.00
C239   C     0.40453   0.40470   0.35215   0.00000  Uiso   1.00
C240   C     0.09904   0.48906   0.75186   0.00000  Uiso   1.00
C241   C     0.14043   0.48721   0.81342   0.00000  Uiso   1.00
C242   C     0.13862   0.41947   0.82989   0.00000  Uiso   1.00
C243   C     0.15420   0.32339   0.88005   0.00000  Uiso   1.00
C244   C     0.01635   0.44012   0.64360   0.00000  Uiso   1.00
C245   C     0.92785   0.53040   0.69382   0.00000  Uiso   1.00
C246   C     0.81708   0.55086   0.69804   0.00000  Uiso   1.00
C247   C     0.74939   0.63727   0.74745   0.00000  Uiso   1.00
C248   C     0.11647   0.44469   0.58364   0.00000  Uiso   1.00
C249   C     0.16429   0.39308   0.49523   0.00000  Uiso   1.00
C250   C     0.25540   0.40731   0.45187   0.00000  Uiso   1.00
C251   C     0.05734   0.42549   0.70829   0.00000  Uiso   1.00
C252   C     0.05549   0.35773   0.72467   0.00000  Uiso   1.00
C253   C     0.09685   0.35579   0.78624   0.00000  Uiso   1.00
H254   H     0.12558   0.60665   0.75773   0.00000  Uiso   1.00
H255   H     0.93431   0.72953   0.82050   0.00000  Uiso   1.00
H256   H     0.28148   0.57176   0.61772   0.00000  Uiso   1.00
H257   H     0.17269   0.53642   0.84712   0.00000  Uiso   1.00
H258   H     0.70387   0.83773   0.87085   0.00000  Uiso   1.00
H259   H     0.43592   0.50504   0.44327   0.00000  Uiso   1.00
H260   H     0.20652   0.43053   0.92701   0.00000  Uiso   1.00
H261   H     0.98389   0.39063   0.60967   0.00000  Uiso   1.00
H262   H     0.78483   0.50166   0.66432   0.00000  Uiso   1.00
H263   H     0.13201   0.34389   0.46153   0.00000  Uiso   1.00
H264   H     0.02322   0.30855   0.69094   0.00000  Uiso   1.00
H265   H     0.58256   0.65279   0.74408   0.00000  Uiso   1.00
H266   H     0.31461   0.32009   0.31650   0.00000  Uiso   1.00
H267   H     0.08520   0.24558   0.80025   0.00000  Uiso   1.00
O268   O     0.51484   0.82220   0.84606   0.00000  Uiso   1.00
O269   O     0.47527   0.38571   0.28510   0.00000  Uiso   1.00
O270   O     0.17429   0.28795   0.91976   0.00000  Uiso   1.00
N271   N     0.70263   0.77897   0.83353   0.00000  Uiso   1.00
N272   N     0.38704   0.46793   0.43377   0.00000  Uiso   1.00
N273   N     0.17260   0.39825   0.88601   0.00000  Uiso   1.00
N274   N     0.63735   0.67945   0.76532   0.00000  Uiso   1.00
N275   N     0.32176   0.36841   0.36556   0.00000  Uiso   1.00
N276   N     0.10732   0.29873   0.81780   0.00000  Uiso   1.00
