data_job_06701
_audit_creation_date              2018-12-19
_audit_creation_method            'Materials Studio'
_symmetry_space_group_name_H-M    'P1'
_symmetry_Int_Tables_number       1
_symmetry_cell_setting            triclinic
loop_
_symmetry_equiv_pos_as_xyz
  x,y,z
_cell_length_a                    17.2359
_cell_length_b                    22.7396
_cell_length_c                    22.3311
_cell_angle_alpha                 77.6369
_cell_angle_beta                  76.4897
_cell_angle_gamma                 99.1383
loop_
_atom_site_label
_atom_site_type_symbol
_atom_site_fract_x
_atom_site_fract_y
_atom_site_fract_z
_atom_site_U_iso_or_equiv
_atom_site_adp_type
_atom_site_occupancy
C1     C     0.60539   0.44988   0.83053   0.00000  Uiso   1.00
C2     C     0.62276   0.41762   0.77716   0.00000  Uiso   1.00
C3     C     0.69017   0.39222   0.76044   0.00000  Uiso   1.00
C4     C     0.69491   0.36475   0.71023   0.00000  Uiso   1.00
C5     C     0.73111   0.31498   0.63225   0.00000  Uiso   1.00
C6     C     0.59595   0.51393   0.79939   0.00000  Uiso   1.00
C7     C     0.64082   0.56950   0.80136   0.00000  Uiso   1.00
C8     C     0.62297   0.62309   0.76986   0.00000  Uiso   1.00
C9     C     0.61751   0.72284   0.72644   0.00000  Uiso   1.00
C10    C     0.52107   0.41562   0.87430   0.00000  Uiso   1.00
C11    C     0.50296   0.38855   0.93927   0.00000  Uiso   1.00
C12    C     0.42206   0.35939   0.97085   0.00000  Uiso   1.00
C13    C     0.30034   0.30650   0.04374   0.00000  Uiso   1.00
C14    C     0.49391   0.44625   0.77110   0.00000  Uiso   1.00
C15    C     0.56221   0.41565   0.74488   0.00000  Uiso   1.00
C16    C     0.56684   0.38821   0.69469   0.00000  Uiso   1.00
C17    C     0.63425   0.36277   0.67789   0.00000  Uiso   1.00
C18    C     0.53540   0.51196   0.76711   0.00000  Uiso   1.00
C19    C     0.51748   0.56548   0.73561   0.00000  Uiso   1.00
C20    C     0.56231   0.62112   0.73753   0.00000  Uiso   1.00
C21    C     0.46052   0.41365   0.84203   0.00000  Uiso   1.00
C22    C     0.37963   0.38453   0.87351   0.00000  Uiso   1.00
C23    C     0.36141   0.35741   0.93851   0.00000  Uiso   1.00
H24    H     0.65253   0.45142   0.85566   0.00000  Uiso   1.00
H25    H     0.73702   0.39376   0.78543   0.00000  Uiso   1.00
H26    H     0.68766   0.57101   0.82635   0.00000  Uiso   1.00
H27    H     0.54983   0.39008   0.96423   0.00000  Uiso   1.00
H28    H     0.80401   0.32899   0.69331   0.00000  Uiso   1.00
H29    H     0.69992   0.70272   0.77961   0.00000  Uiso   1.00
H30    H     0.40927   0.32120   0.07037   0.00000  Uiso   1.00
H31    H     0.44677   0.44472   0.74597   0.00000  Uiso   1.00
H32    H     0.51998   0.38669   0.66971   0.00000  Uiso   1.00
H33    H     0.47062   0.56394   0.71064   0.00000  Uiso   1.00
H34    H     0.33279   0.38301   0.84852   0.00000  Uiso   1.00
H35    H     0.62785   0.32325   0.59939   0.00000  Uiso   1.00
H36    H     0.52376   0.69699   0.68570   0.00000  Uiso   1.00
H37    H     0.23311   0.31547   0.97645   0.00000  Uiso   1.00
O38    O     0.76781   0.28808   0.59816   0.00000  Uiso   1.00
O39    O     0.63124   0.77841   0.71139   0.00000  Uiso   1.00
O40    O     0.24992   0.27786   0.09286   0.00000  Uiso   1.00
N41    N     0.75250   0.33559   0.68168   0.00000  Uiso   1.00
N42    N     0.65519   0.68501   0.76236   0.00000  Uiso   1.00
N43    N     0.38345   0.32834   0.03420   0.00000  Uiso   1.00
N44    N     0.65771   0.33250   0.63114   0.00000  Uiso   1.00
N45    N     0.56040   0.68192   0.71182   0.00000  Uiso   1.00
N46    N     0.28866   0.32525   0.98366   0.00000  Uiso   1.00
C47    C     0.85718   0.63150   0.45611   0.00000  Uiso   1.00
C48    C     0.77269   0.64624   0.46386   0.00000  Uiso   1.00
C49    C     0.75603   0.70087   0.43363   0.00000  Uiso   1.00
C50    C     0.67470   0.70537   0.44705   0.00000  Uiso   1.00
C51    C     0.55299   0.73563   0.45269   0.00000  Uiso   1.00
C52    C     0.86800   0.61507   0.52310   0.00000  Uiso   1.00
C53    C     0.93150   0.64349   0.54267   0.00000  Uiso   1.00
C54    C     0.93041   0.62174   0.60596   0.00000  Uiso   1.00
C55    C     0.95672   0.60360   0.70357   0.00000  Uiso   1.00
C56    C     0.85217   0.57209   0.43455   0.00000  Uiso   1.00
C57    C     0.90237   0.56435   0.37968   0.00000  Uiso   1.00
C58    C     0.88796   0.50641   0.36842   0.00000  Uiso   1.00
C59    C     0.88969   0.42153   0.32854   0.00000  Uiso   1.00
C60    C     0.74236   0.54235   0.53370   0.00000  Uiso   1.00
C61    C     0.71032   0.59782   0.50600   0.00000  Uiso   1.00
C62    C     0.62900   0.60223   0.51947   0.00000  Uiso   1.00
C63    C     0.61222   0.65685   0.48926   0.00000  Uiso   1.00
C64    C     0.80564   0.56665   0.56524   0.00000  Uiso   1.00
C65    C     0.80447   0.54485   0.62852   0.00000  Uiso   1.00
C66    C     0.86794   0.57323   0.64818   0.00000  Uiso   1.00
C67    C     0.78981   0.52366   0.47669   0.00000  Uiso   1.00
C68    C     0.77533   0.46572   0.46552   0.00000  Uiso   1.00
C69    C     0.82549   0.45790   0.41064   0.00000  Uiso   1.00
H70    H     0.90574   0.66920   0.42330   0.00000  Uiso   1.00
H71    H     0.80431   0.73833   0.40102   0.00000  Uiso   1.00
H72    H     0.97975   0.68096   0.51005   0.00000  Uiso   1.00
H73    H     0.95062   0.60184   0.34708   0.00000  Uiso   1.00
H74    H     0.66436   0.79364   0.39492   0.00000  Uiso   1.00
H75    H     0.03431   0.67265   0.62481   0.00000  Uiso   1.00
H76    H     0.97288   0.50580   0.28115   0.00000  Uiso   1.00
H77    H     0.69381   0.50464   0.56651   0.00000  Uiso   1.00
H78    H     0.58075   0.56475   0.55208   0.00000  Uiso   1.00
H79    H     0.75620   0.50738   0.66111   0.00000  Uiso   1.00
H80    H     0.72706   0.42826   0.49814   0.00000  Uiso   1.00
H81    H     0.48291   0.65275   0.51753   0.00000  Uiso   1.00
H82    H     0.85286   0.53176   0.74742   0.00000  Uiso   1.00
H83    H     0.79143   0.36492   0.40376   0.00000  Uiso   1.00
O84    O     0.50309   0.76571   0.44417   0.00000  Uiso   1.00
O85    O     0.98846   0.60697   0.74576   0.00000  Uiso   1.00
O86    O     0.90786   0.38808   0.29490   0.00000  Uiso   1.00
N87    N     0.63717   0.75222   0.42575   0.00000  Uiso   1.00
N88    N     0.98304   0.63911   0.64068   0.00000  Uiso   1.00
N89    N     0.92563   0.48313   0.31940   0.00000  Uiso   1.00
N90    N     0.53954   0.67642   0.49172   0.00000  Uiso   1.00
N91    N     0.88541   0.56331   0.70665   0.00000  Uiso   1.00
N92    N     0.82799   0.40732   0.38538   0.00000  Uiso   1.00
C93    C     0.43910   0.91532   0.63794   0.00000  Uiso   1.00
C94    C     0.40356   0.85123   0.68353   0.00000  Uiso   1.00
C95    C     0.36229   0.83864   0.74772   0.00000  Uiso   1.00
C96    C     0.33452   0.77694   0.78126   0.00000  Uiso   1.00
C97    C     0.27738   0.68463   0.85656   0.00000  Uiso   1.00
C98    C     0.52960   0.91795   0.61005   0.00000  Uiso   1.00
C99    C     0.59432   0.96146   0.61246   0.00000  Uiso   1.00
C100   C     0.67265   0.95592   0.58413   0.00000  Uiso   1.00
C101   C     0.81120   0.96722   0.54533   0.00000  Uiso   1.00
C102   C     0.40062   0.91705   0.58282   0.00000  Uiso   1.00
C103   C     0.35690   0.95981   0.56232   0.00000  Uiso   1.00
C104   C     0.32665   0.95352   0.51106   0.00000  Uiso   1.00
C105   C     0.26494   0.96342   0.42998   0.00000  Uiso   1.00
C106   C     0.46314   0.82815   0.58334   0.00000  Uiso   1.00
C107   C     0.41662   0.80388   0.65387   0.00000  Uiso   1.00
C108   C     0.38890   0.74219   0.68732   0.00000  Uiso   1.00
C109   C     0.34760   0.72950   0.75155   0.00000  Uiso   1.00
C110   C     0.54267   0.87060   0.58040   0.00000  Uiso   1.00
C111   C     0.62092   0.86500   0.55206   0.00000  Uiso   1.00
C112   C     0.68574   0.90849   0.55443   0.00000  Uiso   1.00
C113   C     0.41368   0.86970   0.55317   0.00000  Uiso   1.00
C114   C     0.38350   0.86335   0.50192   0.00000  Uiso   1.00
C115   C     0.33974   0.90609   0.48135   0.00000  Uiso   1.00
H116   H     0.42894   0.95219   0.66102   0.00000  Uiso   1.00
H117   H     0.35221   0.87529   0.77065   0.00000  Uiso   1.00
H118   H     0.58419   0.99810   0.63541   0.00000  Uiso   1.00
H119   H     0.34681   0.99644   0.58528   0.00000  Uiso   1.00
H120   H     0.27292   0.76916   0.87913   0.00000  Uiso   1.00
H121   H     0.76208   0.02811   0.59393   0.00000  Uiso   1.00
H122   H     0.26151   0.02462   0.48823   0.00000  Uiso   1.00
H123   H     0.47331   0.79128   0.56025   0.00000  Uiso   1.00
H124   H     0.39901   0.70555   0.66436   0.00000  Uiso   1.00
H125   H     0.63100   0.82836   0.52911   0.00000  Uiso   1.00
H126   H     0.39362   0.82670   0.47899   0.00000  Uiso   1.00
H127   H     0.31092   0.63139   0.79285   0.00000  Uiso   1.00
H128   H     0.80007   0.89034   0.50766   0.00000  Uiso   1.00
H129   H     0.29950   0.88685   0.40196   0.00000  Uiso   1.00
O130   O     0.24227   0.64679   0.90629   0.00000  Uiso   1.00
O131   O     0.88402   0.98652   0.53212   0.00000  Uiso   1.00
O132   O     0.22728   0.98195   0.39345   0.00000  Uiso   1.00
N133   N     0.29205   0.74850   0.84453   0.00000  Uiso   1.00
N134   N     0.74938   0.99060   0.57790   0.00000  Uiso   1.00
N135   N     0.28140   0.98735   0.47907   0.00000  Uiso   1.00
N136   N     0.31249   0.67437   0.79811   0.00000  Uiso   1.00
N137   N     0.76982   0.91647   0.53148   0.00000  Uiso   1.00
N138   N     0.30185   0.91322   0.43265   0.00000  Uiso   1.00
C139   C     0.16060   0.48824   0.88476   0.00000  Uiso   1.00
C140   C     0.17800   0.43979   0.84866   0.00000  Uiso   1.00
C141   C     0.23395   0.45056   0.78952   0.00000  Uiso   1.00
C142   C     0.24085   0.40012   0.76454   0.00000  Uiso   1.00
C143   C     0.27510   0.33387   0.70348   0.00000  Uiso   1.00
C144   C     0.17501   0.46508   0.94971   0.00000  Uiso   1.00
C145   C     0.22845   0.49713   0.97551   0.00000  Uiso   1.00
C146   C     0.23284   0.46797   0.03559   0.00000  Uiso   1.00
C147   C     0.26241   0.44101   0.13143   0.00000  Uiso   1.00
C148   C     0.06902   0.48531   0.89758   0.00000  Uiso   1.00
C149   C     0.03334   0.53437   0.87958   0.00000  Uiso   1.00
C150   C     0.94848   0.52226   0.89579   0.00000  Uiso   1.00
C151   C     0.81349   0.52671   0.91069   0.00000  Uiso   1.00
C152   C     0.07337   0.37948   0.94557   0.00000  Uiso   1.00
C153   C     0.13061   0.38072   0.88170   0.00000  Uiso   1.00
C154   C     0.13743   0.33024   0.85680   0.00000  Uiso   1.00
C155   C     0.19338   0.34094   0.79763   0.00000  Uiso   1.00
C156   C     0.12763   0.40601   0.98274   0.00000  Uiso   1.00
C157   C     0.13194   0.37680   0.04280   0.00000  Uiso   1.00
C158   C     0.18537   0.40879   0.06869   0.00000  Uiso   1.00
C159   C     0.02164   0.42624   0.93061   0.00000  Uiso   1.00
C160   C     0.93682   0.41405   0.94686   0.00000  Uiso   1.00
C161   C     0.90102   0.46308   0.92888   0.00000  Uiso   1.00
H162   H     0.19749   0.53422   0.85904   0.00000  Uiso   1.00
H163   H     0.27061   0.49628   0.76397   0.00000  Uiso   1.00
H164   H     0.26510   0.54284   0.94994   0.00000  Uiso   1.00
H165   H     0.07002   0.58008   0.85402   0.00000  Uiso   1.00
H166   H     0.33080   0.42817   0.67314   0.00000  Uiso   1.00
H167   H     0.31917   0.52634   0.06528   0.00000  Uiso   1.00
H168   H     0.90781   0.60487   0.86301   0.00000  Uiso   1.00
H169   H     0.03648   0.33349   0.97130   0.00000  Uiso   1.00
H170   H     0.10076   0.28453   0.88238   0.00000  Uiso   1.00
H171   H     0.09526   0.33109   0.06835   0.00000  Uiso   1.00
H172   H     0.90018   0.36833   0.97242   0.00000  Uiso   1.00
H173   H     0.19295   0.25630   0.76925   0.00000  Uiso   1.00
H174   H     0.18132   0.35448   0.16139   0.00000  Uiso   1.00
H175   H     0.76995   0.43300   0.95911   0.00000  Uiso   1.00
O176   O     0.30708   0.31365   0.66069   0.00000  Uiso   1.00
O177   O     0.29182   0.44245   0.17516   0.00000  Uiso   1.00
O178   O     0.75212   0.54548   0.90978   0.00000  Uiso   1.00
N179   N     0.28952   0.39444   0.70796   0.00000  Uiso   1.00
N180   N     0.27866   0.48622   0.07458   0.00000  Uiso   1.00
N181   N     0.89407   0.55964   0.88548   0.00000  Uiso   1.00
N182   N     0.21534   0.30196   0.75967   0.00000  Uiso   1.00
N183   N     0.20448   0.39374   0.12629   0.00000  Uiso   1.00
N184   N     0.81989   0.46716   0.93720   0.00000  Uiso   1.00
C185   C     0.29616   0.99606   0.11807   0.00000  Uiso   1.00
C186   C     0.23652   0.93391   0.14975   0.00000  Uiso   1.00
C187   C     0.21462   0.90355   0.21415   0.00000  Uiso   1.00
C188   C     0.15910   0.84712   0.23374   0.00000  Uiso   1.00
C189   C     0.07139   0.75444   0.28952   0.00000  Uiso   1.00
C190   C     0.24923   0.03750   0.08454   0.00000  Uiso   1.00
C191   C     0.23804   0.09425   0.09412   0.00000  Uiso   1.00
C192   C     0.19324   0.12502   0.05880   0.00000  Uiso   1.00
C193   C     0.12532   0.19319   0.01331   0.00000  Uiso   1.00
C194   C     0.36184   0.98510   0.06529   0.00000  Uiso   1.00
C195   C     0.44532   0.99781   0.05866   0.00000  Uiso   1.00
C196   C     0.49532   0.98448   0.00712   0.00000  Uiso   1.00
C197   C     0.60224   0.97130   0.93173   0.00000  Uiso   1.00
C198   C     0.23651   0.94982   0.03833   0.00000  Uiso   1.00
C199   C     0.20412   0.90879   0.10643   0.00000  Uiso   1.00
C200   C     0.14862   0.85239   0.12593   0.00000  Uiso   1.00
C201   C     0.12665   0.82196   0.19035   0.00000  Uiso   1.00
C202   C     0.21684   0.01238   0.04123   0.00000  Uiso   1.00
C203   C     0.17205   0.04308   0.00589   0.00000  Uiso   1.00
C204   C     0.16078   0.09986   0.01541   0.00000  Uiso   1.00
C205   C     0.32944   0.95998   0.02197   0.00000  Uiso   1.00
C206   C     0.37932   0.94664   0.97043   0.00000  Uiso   1.00
C207   C     0.46287   0.95932   0.96373   0.00000  Uiso   1.00
H208   H     0.32138   0.01562   0.15179   0.00000  Uiso   1.00
H209   H     0.23970   0.92301   0.24766   0.00000  Uiso   1.00
H210   H     0.26312   0.11367   0.12763   0.00000  Uiso   1.00
H211   H     0.47037   0.01725   0.09218   0.00000  Uiso   1.00
H212   H     0.13483   0.80926   0.33485   0.00000  Uiso   1.00
H213   H     0.18425   0.21130   0.08175   0.00000  Uiso   1.00
H214   H     0.62127   0.00797   0.00700   0.00000  Uiso   1.00
H215   H     0.21129   0.93027   0.00461   0.00000  Uiso   1.00
H216   H     0.12356   0.83297   0.09240   0.00000  Uiso   1.00
H217   H     0.14699   0.02363   0.97237   0.00000  Uiso   1.00
H218   H     0.35423   0.92721   0.93692   0.00000  Uiso   1.00
H219   H     0.04057   0.73618   0.20883   0.00000  Uiso   1.00
H220   H     0.08999   0.13822   0.95573   0.00000  Uiso   1.00
H221   H     0.52701   0.93489   0.88098   0.00000  Uiso   1.00
O222   O     0.03196   0.71027   0.33225   0.00000  Uiso   1.00
O223   O     0.09681   0.23773   0.00019   0.00000  Uiso   1.00
O224   O     0.67016   0.97096   0.90212   0.00000  Uiso   1.00
N225   N     0.12470   0.80541   0.29314   0.00000  Uiso   1.00
N226   N     0.17089   0.18129   0.05652   0.00000  Uiso   1.00
N227   N     0.57947   0.99121   0.98662   0.00000  Uiso   1.00
N228   N     0.07397   0.76609   0.22533   0.00000  Uiso   1.00
N229   N     0.12017   0.14196   0.98871   0.00000  Uiso   1.00
N230   N     0.52875   0.95188   0.91881   0.00000  Uiso   1.00
C231   C     0.08953   0.27479   0.29018   0.00000  Uiso   1.00
C232   C     0.03405   0.26381   0.24772   0.00000  Uiso   1.00
C233   C     0.00300   0.30841   0.21365   0.00000  Uiso   1.00
C234   C     0.95338   0.28907   0.17759   0.00000  Uiso   1.00
C235   C     0.86997   0.28141   0.11191   0.00000  Uiso   1.00
C236   C     0.16586   0.25177   0.26468   0.00000  Uiso   1.00
C237   C     0.24564   0.28625   0.24489   0.00000  Uiso   1.00
C238   C     0.30698   0.25678   0.22311   0.00000  Uiso   1.00
C239   C     0.42823   0.23042   0.18382   0.00000  Uiso   1.00
C240   C     0.04613   0.23091   0.35576   0.00000  Uiso   1.00
C241   C     0.02527   0.24785   0.41256   0.00000  Uiso   1.00
C242   C     0.98582   0.20081   0.46747   0.00000  Uiso   1.00
C243   C     0.92117   0.14206   0.56959   0.00000  Uiso   1.00
C244   C     0.05661   0.16114   0.28672   0.00000  Uiso   1.00
C245   C     0.01617   0.20208   0.24584   0.00000  Uiso   1.00
C246   C     0.96657   0.18266   0.20982   0.00000  Uiso   1.00
C247   C     0.93546   0.22723   0.17570   0.00000  Uiso   1.00
C248   C     0.14798   0.19004   0.26280   0.00000  Uiso   1.00
C249   C     0.20921   0.16051   0.24105   0.00000  Uiso   1.00
C250   C     0.28907   0.19493   0.22123   0.00000  Uiso   1.00
C251   C     0.02825   0.16918   0.35388   0.00000  Uiso   1.00
C252   C     0.98883   0.12210   0.40872   0.00000  Uiso   1.00
C253   C     0.96790   0.13897   0.46558   0.00000  Uiso   1.00
H254   H     0.10346   0.32285   0.29165   0.00000  Uiso   1.00
H255   H     0.01686   0.35618   0.21512   0.00000  Uiso   1.00
H256   H     0.25946   0.33402   0.24636   0.00000  Uiso   1.00
H257   H     0.03912   0.29562   0.41399   0.00000  Uiso   1.00
H258   H     0.91299   0.36591   0.12942   0.00000  Uiso   1.00
H259   H     0.42453   0.31918   0.19531   0.00000  Uiso   1.00
H260   H     0.95988   0.23821   0.54881   0.00000  Uiso   1.00
H261   H     0.04269   0.11308   0.28525   0.00000  Uiso   1.00
H262   H     0.95274   0.13489   0.20837   0.00000  Uiso   1.00
H263   H     0.19535   0.11274   0.23961   0.00000  Uiso   1.00
H264   H     0.97500   0.07434   0.40724   0.00000  Uiso   1.00
H265   H     0.86095   0.18630   0.12394   0.00000  Uiso   1.00
H266   H     0.37250   0.13958   0.18983   0.00000  Uiso   1.00
H267   H     0.90785   0.05861   0.54333   0.00000  Uiso   1.00
O268   O     0.82892   0.29424   0.07620   0.00000  Uiso   1.00
O269   O     0.50005   0.23294   0.16266   0.00000  Uiso   1.00
O270   O     0.89044   0.12671   0.62644   0.00000  Uiso   1.00
N271   N     0.91307   0.32064   0.13869   0.00000  Uiso   1.00
N272   N     0.39133   0.27696   0.20029   0.00000  Uiso   1.00
N273   N     0.95695   0.20126   0.53078   0.00000  Uiso   1.00
N274   N     0.88507   0.22400   0.13574   0.00000  Uiso   1.00
N275   N     0.36333   0.18031   0.19734   0.00000  Uiso   1.00
N276   N     0.92895   0.10461   0.52783   0.00000  Uiso   1.00
C277   C     0.49618   0.69925   0.12067   0.00000  Uiso   1.00
C278   C     0.46950   0.72405   0.17870   0.00000  Uiso   1.00
C279   C     0.39801   0.74469   0.19590   0.00000  Uiso   1.00
C280   C     0.38474   0.76560   0.25067   0.00000  Uiso   1.00
C281   C     0.33473   0.80405   0.33528   0.00000  Uiso   1.00
C282   C     0.50955   0.63501   0.14634   0.00000  Uiso   1.00
C283   C     0.47173   0.58079   0.13633   0.00000  Uiso   1.00
C284   C     0.49218   0.52675   0.16387   0.00000  Uiso   1.00
C285   C     0.50439   0.42696   0.19820   0.00000  Uiso   1.00
C286   C     0.58046   0.73898   0.08269   0.00000  Uiso   1.00
C287   C     0.60228   0.77216   0.01915   0.00000  Uiso   1.00
C288   C     0.68245   0.80564   0.99309   0.00000  Uiso   1.00
C289   C     0.80477   0.86728   0.92859   0.00000  Uiso   1.00
C290   C     0.59975   0.69969   0.18737   0.00000  Uiso   1.00
C291   C     0.52576   0.72429   0.21492   0.00000  Uiso   1.00
C292   C     0.51259   0.74518   0.26969   0.00000  Uiso   1.00
C293   C     0.44109   0.76585   0.28696   0.00000  Uiso   1.00
C294   C     0.56580   0.63525   0.18257   0.00000  Uiso   1.00
C295   C     0.58631   0.58128   0.21012   0.00000  Uiso   1.00
C296   C     0.54853   0.52698   0.20016   0.00000  Uiso   1.00
C297   C     0.63672   0.73922   0.11892   0.00000  Uiso   1.00
C298   C     0.71687   0.77265   0.09294   0.00000  Uiso   1.00
C299   C     0.73880   0.80588   0.02938   0.00000  Uiso   1.00
H300   H     0.45239   0.69906   0.09247   0.00000  Uiso   1.00
H301   H     0.35449   0.74449   0.16785   0.00000  Uiso   1.00
H302   H     0.42821   0.58062   0.10829   0.00000  Uiso   1.00
H303   H     0.55874   0.77196   0.99113   0.00000  Uiso   1.00
H304   H     0.27074   0.79495   0.26742   0.00000  Uiso   1.00
H305   H     0.42620   0.44941   0.14181   0.00000  Uiso   1.00
H306   H     0.70145   0.85290   0.89476   0.00000  Uiso   1.00
H307   H     0.64355   0.69988   0.21557   0.00000  Uiso   1.00
H308   H     0.55614   0.74536   0.29771   0.00000  Uiso   1.00
H309   H     0.62985   0.58148   0.23815   0.00000  Uiso   1.00
H310   H     0.76038   0.77283   0.12099   0.00000  Uiso   1.00
H311   H     0.43440   0.79565   0.37281   0.00000  Uiso   1.00
H312   H     0.58986   0.45011   0.24720   0.00000  Uiso   1.00
H313   H     0.86512   0.85360   0.00016   0.00000  Uiso   1.00
O314   O     0.29161   0.82519   0.37194   0.00000  Uiso   1.00
O315   O     0.49558   0.37186   0.20713   0.00000  Uiso   1.00
O316   O     0.85670   0.90122   0.88301   0.00000  Uiso   1.00
N317   N     0.32126   0.78888   0.28094   0.00000  Uiso   1.00
N318   N     0.46660   0.46582   0.16351   0.00000  Uiso   1.00
N319   N     0.72394   0.84304   0.93254   0.00000  Uiso   1.00
N320   N     0.40933   0.78926   0.33766   0.00000  Uiso   1.00
N321   N     0.55466   0.46620   0.22023   0.00000  Uiso   1.00
N322   N     0.81201   0.84342   0.98925   0.00000  Uiso   1.00
C323   C     0.21888   0.51753   0.53392   0.00000  Uiso   1.00
C324   C     0.30303   0.50212   0.52587   0.00000  Uiso   1.00
C325   C     0.31898   0.44684   0.55517   0.00000  Uiso   1.00
C326   C     0.40010   0.44180   0.54161   0.00000  Uiso   1.00
C327   C     0.52121   0.41048   0.53537   0.00000  Uiso   1.00
C328   C     0.20841   0.53547   0.46693   0.00000  Uiso   1.00
C329   C     0.14480   0.50823   0.44668   0.00000  Uiso   1.00
C330   C     0.14627   0.53127   0.38351   0.00000  Uiso   1.00
C331   C     0.12044   0.55175   0.28577   0.00000  Uiso   1.00
C332   C     0.22447   0.57623   0.55677   0.00000  Uiso   1.00
C333   C     0.17436   0.58327   0.61205   0.00000  Uiso   1.00
C334   C     0.18933   0.64064   0.62451   0.00000  Uiso   1.00
C335   C     0.18845   0.72442   0.66626   0.00000  Uiso   1.00
C336   C     0.33458   0.60689   0.45774   0.00000  Uiso   1.00
C337   C     0.36587   0.55066   0.48449   0.00000  Uiso   1.00
C338   C     0.44699   0.54571   0.47089   0.00000  Uiso   1.00
C339   C     0.46306   0.49042   0.50017   0.00000  Uiso   1.00
C340   C     0.27125   0.58401   0.42555   0.00000  Uiso   1.00
C341   C     0.27281   0.60710   0.36239   0.00000  Uiso   1.00
C342   C     0.20922   0.57989   0.34205   0.00000  Uiso   1.00
C343   C     0.28732   0.62477   0.51539   0.00000  Uiso   1.00
C344   C     0.30237   0.68214   0.52776   0.00000  Uiso   1.00
C345   C     0.25229   0.68927   0.58305   0.00000  Uiso   1.00
H346   H     0.16995   0.47974   0.56613   0.00000  Uiso   1.00
H347   H     0.27033   0.40928   0.58718   0.00000  Uiso   1.00
H348   H     0.09618   0.47067   0.47871   0.00000  Uiso   1.00
H349   H     0.12573   0.54570   0.64405   0.00000  Uiso   1.00
H350   H     0.40933   0.35256   0.59226   0.00000  Uiso   1.00
H351   H     0.04210   0.48201   0.36354   0.00000  Uiso   1.00
H352   H     0.10442   0.64024   0.71220   0.00000  Uiso   1.00
H353   H     0.38350   0.64469   0.42553   0.00000  Uiso   1.00
H354   H     0.49561   0.58328   0.43886   0.00000  Uiso   1.00
H355   H     0.32145   0.64466   0.33039   0.00000  Uiso   1.00
H356   H     0.35100   0.71970   0.49573   0.00000  Uiso   1.00
H357   H     0.59218   0.49378   0.47187   0.00000  Uiso   1.00
H358   H     0.22494   0.62323   0.24316   0.00000  Uiso   1.00
H359   H     0.28726   0.78146   0.59182   0.00000  Uiso   1.00
O360   O     0.57064   0.37979   0.54336   0.00000  Uiso   1.00
O361   O     0.08884   0.54963   0.24330   0.00000  Uiso   1.00
O362   O     0.17060   0.75722   0.70073   0.00000  Uiso   1.00
N363   N     0.43698   0.39423   0.56210   0.00000  Uiso   1.00
N364   N     0.09365   0.51525   0.34826   0.00000  Uiso   1.00
N365   N     0.15190   0.66318   0.67422   0.00000  Uiso   1.00
N366   N     0.53537   0.47022   0.49733   0.00000  Uiso   1.00
N367   N     0.19204   0.59124   0.28349   0.00000  Uiso   1.00
N368   N     0.25028   0.73917   0.60945   0.00000  Uiso   1.00
C369   C     0.57931   0.26706   0.32914   0.00000  Uiso   1.00
C370   C     0.64249   0.32254   0.28282   0.00000  Uiso   1.00
C371   C     0.68008   0.32729   0.21931   0.00000  Uiso   1.00
C372   C     0.73617   0.38185   0.18492   0.00000  Uiso   1.00
C373   C     0.83153   0.46069   0.10871   0.00000  Uiso   1.00
C374   C     0.50432   0.29158   0.35455   0.00000  Uiso   1.00
C375   C     0.42572   0.27030   0.35135   0.00000  Uiso   1.00
C376   C     0.36549   0.29880   0.37735   0.00000  Uiso   1.00
C377   C     0.24632   0.32955   0.41254   0.00000  Uiso   1.00
C378   C     0.61359   0.24768   0.38559   0.00000  Uiso   1.00
C379   C     0.62685   0.18948   0.40850   0.00000  Uiso   1.00
C380   C     0.65860   0.18101   0.46064   0.00000  Uiso   1.00
C381   C     0.70909   0.14360   0.54403   0.00000  Uiso   1.00
C382   C     0.61209   0.35549   0.38102   0.00000  Uiso   1.00
C383   C     0.66030   0.37057   0.31100   0.00000  Uiso   1.00
C384   C     0.71635   0.42513   0.27671   0.00000  Uiso   1.00
C385   C     0.75401   0.42997   0.21315   0.00000  Uiso   1.00
C386   C     0.52212   0.33961   0.38273   0.00000  Uiso   1.00
C387   C     0.46199   0.36814   0.40874   0.00000  Uiso   1.00
C388   C     0.38333   0.34692   0.40558   0.00000  Uiso   1.00
C389   C     0.63139   0.29571   0.41377   0.00000  Uiso   1.00
C390   C     0.66312   0.28732   0.46589   0.00000  Uiso   1.00
C391   C     0.67644   0.22913   0.48888   0.00000  Uiso   1.00
H392   H     0.56545   0.22967   0.30720   0.00000  Uiso   1.00
H393   H     0.66628   0.29011   0.19751   0.00000  Uiso   1.00
H394   H     0.41196   0.23313   0.32954   0.00000  Uiso   1.00
H395   H     0.61307   0.15233   0.38668   0.00000  Uiso   1.00
H396   H     0.78590   0.37832   0.08833   0.00000  Uiso   1.00
H397   H     0.24965   0.25815   0.36673   0.00000  Uiso   1.00
H398   H     0.67371   0.08776   0.48722   0.00000  Uiso   1.00
H399   H     0.62595   0.39289   0.40296   0.00000  Uiso   1.00
H400   H     0.73011   0.46229   0.29853   0.00000  Uiso   1.00
H401   H     0.47579   0.40531   0.43055   0.00000  Uiso   1.00
H402   H     0.67689   0.32450   0.48769   0.00000  Uiso   1.00
H403   H     0.83771   0.51806   0.17032   0.00000  Uiso   1.00
H404   H     0.30146   0.39789   0.44872   0.00000  Uiso   1.00
H405   H     0.72552   0.22750   0.56921   0.00000  Uiso   1.00
O406   O     0.87921   0.49091   0.05889   0.00000  Uiso   1.00
O407   O     0.17567   0.33324   0.42415   0.00000  Uiso   1.00
O408   O     0.73203   0.10969   0.58223   0.00000  Uiso   1.00
N409   N     0.78381   0.40168   0.12196   0.00000  Uiso   1.00
N410   N     0.28245   0.28933   0.38224   0.00000  Uiso   1.00
N411   N     0.67890   0.13003   0.49490   0.00000  Uiso   1.00
N412   N     0.81169   0.47687   0.16608   0.00000  Uiso   1.00
N413   N     0.31033   0.36453   0.42635   0.00000  Uiso   1.00
N414   N     0.70677   0.20522   0.53901   0.00000  Uiso   1.00
C415   C     0.92167   0.66521   0.08687   0.00000  Uiso   1.00
C416   C     0.90227   0.71113   0.12588   0.00000  Uiso   1.00
C417   C     0.84560   0.69744   0.18516   0.00000  Uiso   1.00
C418   C     0.83682   0.74590   0.21304   0.00000  Uiso   1.00
C419   C     0.79963   0.80808   0.27822   0.00000  Uiso   1.00
C420   C     0.90764   0.69096   0.02232   0.00000  Uiso   1.00
C421   C     0.85550   0.66031   0.99451   0.00000  Uiso   1.00
C422   C     0.85125   0.69179   0.93520   0.00000  Uiso   1.00
C423   C     0.82245   0.72264   0.83958   0.00000  Uiso   1.00
C424   C     0.01346   0.66921   0.07409   0.00000  Uiso   1.00
C425   C     0.05030   0.62027   0.08981   0.00000  Uiso   1.00
C426   C     0.13515   0.63344   0.07408   0.00000  Uiso   1.00
C427   C     0.27065   0.63052   0.05885   0.00000  Uiso   1.00
C428   C     0.00685   0.77562   0.03097   0.00000  Uiso   1.00
C429   C     0.94854   0.77110   0.09552   0.00000  Uiso   1.00
C430   C     0.93985   0.81959   0.12332   0.00000  Uiso   1.00
C431   C     0.88318   0.80598   0.18263   0.00000  Uiso   1.00
C432   C     0.95391   0.75093   0.99196   0.00000  Uiso   1.00
C433   C     0.94975   0.78246   0.93267   0.00000  Uiso   1.00
C434   C     0.89761   0.75186   0.90479   0.00000  Uiso   1.00
C435   C     0.05973   0.72918   0.04374   0.00000  Uiso   1.00
C436   C     0.14454   0.74243   0.02797   0.00000  Uiso   1.00
C437   C     0.18150   0.69352   0.04366   0.00000  Uiso   1.00
H438   H     0.88564   0.61853   0.11050   0.00000  Uiso   1.00
H439   H     0.80980   0.65103   0.20863   0.00000  Uiso   1.00
H440   H     0.81970   0.61390   0.01801   0.00000  Uiso   1.00
H441   H     0.01447   0.57387   0.11330   0.00000  Uiso   1.00
H442   H     0.74609   0.71351   0.30403   0.00000  Uiso   1.00
H443   H     0.76700   0.63522   0.90209   0.00000  Uiso   1.00
H444   H     0.17771   0.55081   0.10302   0.00000  Uiso   1.00
H445   H     0.04288   0.82231   0.00734   0.00000  Uiso   1.00
H446   H     0.97566   0.86599   0.09982   0.00000  Uiso   1.00
H447   H     0.98557   0.82886   0.90920   0.00000  Uiso   1.00
H448   H     0.18033   0.78884   0.00448   0.00000  Uiso   1.00
H449   H     0.88071   0.88799   0.21571   0.00000  Uiso   1.00
H450   H     0.90162   0.80969   0.81377   0.00000  Uiso   1.00
H451   H     0.31233   0.72528   0.01470   0.00000  Uiso   1.00
O452   O     0.76633   0.82581   0.32256   0.00000  Uiso   1.00
O453   O     0.79378   0.72309   0.79523   0.00000  Uiso   1.00
O454   O     0.33261   0.61235   0.05884   0.00000  Uiso   1.00
N455   N     0.78701   0.74858   0.27056   0.00000  Uiso   1.00
N456   N     0.80655   0.67538   0.89478   0.00000  Uiso   1.00
N457   N     0.19053   0.59646   0.08261   0.00000  Uiso   1.00
N458   N     0.85945   0.84246   0.22304   0.00000  Uiso   1.00
N459   N     0.87899   0.76926   0.84725   0.00000  Uiso   1.00
N460   N     0.26297   0.69035   0.03509   0.00000  Uiso   1.00
C461   C     0.79450   0.15509   0.86144   0.00000  Uiso   1.00
C462   C     0.85015   0.21870   0.82875   0.00000  Uiso   1.00
C463   C     0.87265   0.24710   0.76384   0.00000  Uiso   1.00
C464   C     0.92407   0.30536   0.74334   0.00000  Uiso   1.00
C465   C     0.00627   0.39975   0.68606   0.00000  Uiso   1.00
C466   C     0.84356   0.11811   0.89753   0.00000  Uiso   1.00
C467   C     0.86051   0.06193   0.89043   0.00000  Uiso   1.00
C468   C     0.90637   0.03551   0.92784   0.00000  Uiso   1.00
C469   C     0.97829   0.97371   0.97736   0.00000  Uiso   1.00
C470   C     0.72494   0.16473   0.91219   0.00000  Uiso   1.00
C471   C     0.64216   0.14774   0.91745   0.00000  Uiso   1.00
C472   C     0.58815   0.16055   0.96721   0.00000  Uiso   1.00
C473   C     0.47591   0.17114   0.03951   0.00000  Uiso   1.00
C474   C     0.84578   0.20805   0.94048   0.00000  Uiso   1.00
C475   C     0.87800   0.24747   0.87169   0.00000  Uiso   1.00
C476   C     0.92939   0.30570   0.85128   0.00000  Uiso   1.00
C477   C     0.95197   0.33418   0.78635   0.00000  Uiso   1.00
C478   C     0.87141   0.14687   0.94045   0.00000  Uiso   1.00
C479   C     0.91725   0.12052   0.97788   0.00000  Uiso   1.00
C480   C     0.93427   0.06432   0.97084   0.00000  Uiso   1.00
C481   C     0.75279   0.19350   0.95513   0.00000  Uiso   1.00
C482   C     0.69890   0.20634   0.00489   0.00000  Uiso   1.00
C483   C     0.61606   0.18937   0.01022   0.00000  Uiso   1.00
H484   H     0.77282   0.13269   0.82802   0.00000  Uiso   1.00
H485   H     0.85109   0.22483   0.73063   0.00000  Uiso   1.00
H486   H     0.83894   0.03968   0.85721   0.00000  Uiso   1.00
H487   H     0.62063   0.12548   0.88422   0.00000  Uiso   1.00
H488   H     0.95018   0.33965   0.64159   0.00000  Uiso   1.00
H489   H     0.92454   0.94925   0.90851   0.00000  Uiso   1.00
H490   H     0.46419   0.13017   0.96546   0.00000  Uiso   1.00
H491   H     0.86746   0.23044   0.97390   0.00000  Uiso   1.00
H492   H     0.95093   0.32795   0.88452   0.00000  Uiso   1.00
H493   H     0.93879   0.14280   0.01110   0.00000  Uiso   1.00
H494   H     0.72048   0.22860   0.03811   0.00000  Uiso   1.00
H495   H     0.03122   0.42335   0.76649   0.00000  Uiso   1.00
H496   H     0.00558   0.03294   0.03341   0.00000  Uiso   1.00
H497   H     0.54523   0.21387   0.09036   0.00000  Uiso   1.00
O498   O     0.04392   0.44387   0.64260   0.00000  Uiso   1.00
O499   O     0.01027   0.93167   0.99280   0.00000  Uiso   1.00
O500   O     0.40630   0.16904   0.06752   0.00000  Uiso   1.00
N501   N     0.95779   0.34597   0.68325   0.00000  Uiso   1.00
N502   N     0.93383   0.98098   0.93280   0.00000  Uiso   1.00
N503   N     0.50343   0.15011   0.98606   0.00000  Uiso   1.00
N504   N     0.00139   0.39101   0.75046   0.00000  Uiso   1.00
N505   N     0.97743   0.02601   0.00001   0.00000  Uiso   1.00
N506   N     0.54704   0.19514   0.05326   0.00000  Uiso   1.00
C507   C     0.00328   0.92501   0.66023   0.00000  Uiso   1.00
C508   C     0.04734   0.92017   0.71230   0.00000  Uiso   1.00
C509   C     0.08234   0.87166   0.73351   0.00000  Uiso   1.00
C510   C     0.11980   0.87592   0.78159   0.00000  Uiso   1.00
C511   C     0.18782   0.86064   0.85853   0.00000  Uiso   1.00
C512   C     0.91826   0.93351   0.69052   0.00000  Uiso   1.00
C513   C     0.84473   0.89623   0.69341   0.00000  Uiso   1.00
C514   C     0.77353   0.91172   0.72315   0.00000  Uiso   1.00
C515   C     0.64115   0.91719   0.76623   0.00000  Uiso   1.00
C516   C     0.04718   0.98562   0.61053   0.00000  Uiso   1.00
C517   C     0.08203   0.99216   0.54616   0.00000  Uiso   1.00
C518   C     0.11936   0.05152   0.50855   0.00000  Uiso   1.00
C519   C     0.18715   0.13789   0.42744   0.00000  Uiso   1.00
C520   C     0.00758   0.01881   0.70789   0.00000  Uiso   1.00
C521   C     0.04967   0.97112   0.73819   0.00000  Uiso   1.00
C522   C     0.08709   0.97545   0.78625   0.00000  Uiso   1.00
C523   C     0.12214   0.92696   0.80753   0.00000  Uiso   1.00
C524   C     0.92059   0.98446   0.71641   0.00000  Uiso   1.00
C525   C     0.84948   0.00001   0.74615   0.00000  Uiso   1.00
C526   C     0.77587   0.96276   0.74908   0.00000  Uiso   1.00
C527   C     0.04952   0.03657   0.63642   0.00000  Uiso   1.00
C528   C     0.08679   0.09594   0.59890   0.00000  Uiso   1.00
C529   C     0.12170   0.10256   0.53449   0.00000  Uiso   1.00
H530   H     0.00146   0.88534   0.64007   0.00000  Uiso   1.00
H531   H     0.08051   0.83224   0.71346   0.00000  Uiso   1.00
H532   H     0.84294   0.85681   0.67336   0.00000  Uiso   1.00
H533   H     0.08021   0.95272   0.52614   0.00000  Uiso   1.00
H534   H     0.16916   0.79583   0.80627   0.00000  Uiso   1.00
H535   H     0.66823   0.84764   0.72169   0.00000  Uiso   1.00
H536   H     0.16856   0.04989   0.41124   0.00000  Uiso   1.00
H537   H     0.00939   0.05848   0.72805   0.00000  Uiso   1.00
H538   H     0.08889   0.01488   0.80628   0.00000  Uiso   1.00
H539   H     0.85131   0.03945   0.76618   0.00000  Uiso   1.00
H540   H     0.08858   0.13536   0.61895   0.00000  Uiso   1.00
H541   H     0.17596   0.94406   0.88161   0.00000  Uiso   1.00
H542   H     0.67502   0.99588   0.79702   0.00000  Uiso   1.00
H543   H     0.17535   0.19812   0.48658   0.00000  Uiso   1.00
O544   O     0.22469   0.83813   0.89383   0.00000  Uiso   1.00
O545   O     0.56749   0.90612   0.78285   0.00000  Uiso   1.00
O546   O     0.22391   0.17146   0.37555   0.00000  Uiso   1.00
N547   N     0.15987   0.83670   0.81326   0.00000  Uiso   1.00
N548   N     0.69153   0.88514   0.73419   0.00000  Uiso   1.00
N549   N     0.15927   0.07423   0.44394   0.00000  Uiso   1.00
N550   N     0.16352   0.91647   0.85379   0.00000  Uiso   1.00
N551   N     0.69518   0.96491   0.77473   0.00000  Uiso   1.00
N552   N     0.16293   0.15399   0.48448   0.00000  Uiso   1.00
