data_job_01494
_audit_creation_date              2018-12-19
_audit_creation_method            'Materials Studio'
_symmetry_space_group_name_H-M    'P1'
_symmetry_Int_Tables_number       1
_symmetry_cell_setting            triclinic
loop_
_symmetry_equiv_pos_as_xyz
  x,y,z
_cell_length_a                    31.9497
_cell_length_b                    31.9497
_cell_length_c                    7.1122
_cell_angle_alpha                 90.0000
_cell_angle_beta                  90.0000
_cell_angle_gamma                 90.0000
loop_
_atom_site_label
_atom_site_type_symbol
_atom_site_fract_x
_atom_site_fract_y
_atom_site_fract_z
_atom_site_U_iso_or_equiv
_atom_site_adp_type
_atom_site_occupancy
C1     C     0.01283   0.79102   0.58866   0.00000  Uiso   1.00
C2     C     0.00187   0.82925   0.47011   0.00000  Uiso   1.00
C3     C     0.99087   0.86837   0.53909   0.00000  Uiso   1.00
C4     C     0.98197   0.89924   0.40768   0.00000  Uiso   1.00
C5     C     0.96462   0.95982   0.25303   0.00000  Uiso   1.00
C6     C     0.98290   0.75648   0.52682   0.00000  Uiso   1.00
C7     C     0.95597   0.73441   0.64348   0.00000  Uiso   1.00
C8     C     0.93111   0.70402   0.55980   0.00000  Uiso   1.00
C9     C     0.88434   0.65159   0.49321   0.00000  Uiso   1.00
C10    C     0.05627   0.77724   0.52505   0.00000  Uiso   1.00
C11    C     0.09103   0.77261   0.64022   0.00000  Uiso   1.00
C12    C     0.12794   0.75969   0.55505   0.00000  Uiso   1.00
C13    C     0.19509   0.73949   0.48571   0.00000  Uiso   1.00
C14    C     0.01657   0.77630   0.23262   0.00000  Uiso   1.00
C15    C     0.00390   0.82125   0.27673   0.00000  Uiso   1.00
C16    C     0.99501   0.85208   0.14517   0.00000  Uiso   1.00
C17    C     0.98401   0.89123   0.21394   0.00000  Uiso   1.00
C18    C     0.98493   0.74848   0.33344   0.00000  Uiso   1.00
C19    C     0.96011   0.71812   0.24957   0.00000  Uiso   1.00
C20    C     0.93314   0.69601   0.36607   0.00000  Uiso   1.00
C21    C     0.05831   0.76924   0.33166   0.00000  Uiso   1.00
C22    C     0.09517   0.75632   0.24630   0.00000  Uiso   1.00
C23    C     0.12997   0.75168   0.36132   0.00000  Uiso   1.00
H24    H     0.01125   0.79724   0.73922   0.00000  Uiso   1.00
H25    H     0.98930   0.87454   0.68876   0.00000  Uiso   1.00
H26    H     0.95441   0.74060   0.79313   0.00000  Uiso   1.00
H27    H     0.08945   0.77880   0.78987   0.00000  Uiso   1.00
H28    H     0.96585   0.95671   0.54754   0.00000  Uiso   1.00
H29    H     0.89229   0.67428   0.76763   0.00000  Uiso   1.00
H30    H     0.17705   0.75483   0.76075   0.00000  Uiso   1.00
H31    H     0.01815   0.77007   0.08205   0.00000  Uiso   1.00
H32    H     0.99658   0.84588   0.99553   0.00000  Uiso   1.00
H33    H     0.96169   0.71194   0.09991   0.00000  Uiso   1.00
H34    H     0.09673   0.75013   0.09664   0.00000  Uiso   1.00
H35    H     0.97176   0.93345   0.98488   0.00000  Uiso   1.00
H36    H     0.89820   0.65101   0.20498   0.00000  Uiso   1.00
H37    H     0.18295   0.73156   0.19809   0.00000  Uiso   1.00
O38    O     0.95448   0.99543   0.22115   0.00000  Uiso   1.00
O39    O     0.85798   0.62489   0.50991   0.00000  Uiso   1.00
O40    O     0.23157   0.73057   0.50088   0.00000  Uiso   1.00
N41    N     0.97021   0.94083   0.42699   0.00000  Uiso   1.00
N42    N     0.90143   0.67678   0.63276   0.00000  Uiso   1.00
N43    N     0.16765   0.75208   0.62633   0.00000  Uiso   1.00
N44    N     0.97339   0.92832   0.12423   0.00000  Uiso   1.00
N45    N     0.90461   0.66426   0.33000   0.00000  Uiso   1.00
N46    N     0.17083   0.73956   0.32357   0.00000  Uiso   1.00
C47    C     0.98717   0.20898   0.58866   0.00000  Uiso   1.00
C48    C     0.99813   0.17075   0.47011   0.00000  Uiso   1.00
C49    C     0.00913   0.13163   0.53909   0.00000  Uiso   1.00
C50    C     0.01803   0.10076   0.40768   0.00000  Uiso   1.00
C51    C     0.03538   0.04018   0.25303   0.00000  Uiso   1.00
C52    C     0.01710   0.24352   0.52682   0.00000  Uiso   1.00
C53    C     0.04403   0.26559   0.64348   0.00000  Uiso   1.00
C54    C     0.06889   0.29598   0.55980   0.00000  Uiso   1.00
C55    C     0.11566   0.34841   0.49321   0.00000  Uiso   1.00
C56    C     0.94373   0.22276   0.52505   0.00000  Uiso   1.00
C57    C     0.90897   0.22739   0.64022   0.00000  Uiso   1.00
C58    C     0.87206   0.24031   0.55505   0.00000  Uiso   1.00
C59    C     0.80491   0.26051   0.48571   0.00000  Uiso   1.00
C60    C     0.98343   0.22370   0.23262   0.00000  Uiso   1.00
C61    C     0.99610   0.17875   0.27673   0.00000  Uiso   1.00
C62    C     0.00499   0.14792   0.14517   0.00000  Uiso   1.00
C63    C     0.01599   0.10877   0.21394   0.00000  Uiso   1.00
C64    C     0.01507   0.25152   0.33344   0.00000  Uiso   1.00
C65    C     0.03989   0.28188   0.24957   0.00000  Uiso   1.00
C66    C     0.06686   0.30399   0.36607   0.00000  Uiso   1.00
C67    C     0.94169   0.23076   0.33166   0.00000  Uiso   1.00
C68    C     0.90483   0.24368   0.24630   0.00000  Uiso   1.00
C69    C     0.87003   0.24832   0.36132   0.00000  Uiso   1.00
H70    H     0.98875   0.20276   0.73922   0.00000  Uiso   1.00
H71    H     0.01070   0.12546   0.68876   0.00000  Uiso   1.00
H72    H     0.04559   0.25940   0.79313   0.00000  Uiso   1.00
H73    H     0.91055   0.22120   0.78987   0.00000  Uiso   1.00
H74    H     0.03415   0.04329   0.54754   0.00000  Uiso   1.00
H75    H     0.10771   0.32572   0.76763   0.00000  Uiso   1.00
H76    H     0.82295   0.24517   0.76075   0.00000  Uiso   1.00
H77    H     0.98185   0.22993   0.08205   0.00000  Uiso   1.00
H78    H     0.00342   0.15412   0.99553   0.00000  Uiso   1.00
H79    H     0.03831   0.28806   0.09991   0.00000  Uiso   1.00
H80    H     0.90327   0.24987   0.09664   0.00000  Uiso   1.00
H81    H     0.02824   0.06655   0.98488   0.00000  Uiso   1.00
H82    H     0.10180   0.34899   0.20498   0.00000  Uiso   1.00
H83    H     0.81705   0.26844   0.19809   0.00000  Uiso   1.00
O84    O     0.04552   0.00457   0.22115   0.00000  Uiso   1.00
O85    O     0.14202   0.37511   0.50991   0.00000  Uiso   1.00
O86    O     0.76843   0.26943   0.50088   0.00000  Uiso   1.00
N87    N     0.02979   0.05917   0.42699   0.00000  Uiso   1.00
N88    N     0.09857   0.32322   0.63276   0.00000  Uiso   1.00
N89    N     0.83235   0.24792   0.62633   0.00000  Uiso   1.00
N90    N     0.02661   0.07168   0.12423   0.00000  Uiso   1.00
N91    N     0.09539   0.33574   0.33000   0.00000  Uiso   1.00
N92    N     0.82917   0.26044   0.32357   0.00000  Uiso   1.00
C93    C     0.79102   0.98717   0.41134   0.00000  Uiso   1.00
C94    C     0.82925   0.99813   0.52989   0.00000  Uiso   1.00
C95    C     0.86837   0.00913   0.46091   0.00000  Uiso   1.00
C96    C     0.89924   0.01803   0.59232   0.00000  Uiso   1.00
C97    C     0.95982   0.03538   0.74697   0.00000  Uiso   1.00
C98    C     0.75648   0.01710   0.47318   0.00000  Uiso   1.00
C99    C     0.73441   0.04403   0.35652   0.00000  Uiso   1.00
C100   C     0.70402   0.06889   0.44020   0.00000  Uiso   1.00
C101   C     0.65159   0.11566   0.50679   0.00000  Uiso   1.00
C102   C     0.77724   0.94373   0.47495   0.00000  Uiso   1.00
C103   C     0.77261   0.90897   0.35978   0.00000  Uiso   1.00
C104   C     0.75969   0.87206   0.44495   0.00000  Uiso   1.00
C105   C     0.73949   0.80491   0.51429   0.00000  Uiso   1.00
C106   C     0.77630   0.98343   0.76738   0.00000  Uiso   1.00
C107   C     0.82125   0.99610   0.72327   0.00000  Uiso   1.00
C108   C     0.85208   0.00499   0.85483   0.00000  Uiso   1.00
C109   C     0.89123   0.01599   0.78606   0.00000  Uiso   1.00
C110   C     0.74848   0.01507   0.66656   0.00000  Uiso   1.00
C111   C     0.71812   0.03989   0.75043   0.00000  Uiso   1.00
C112   C     0.69601   0.06686   0.63393   0.00000  Uiso   1.00
C113   C     0.76924   0.94169   0.66834   0.00000  Uiso   1.00
C114   C     0.75632   0.90483   0.75370   0.00000  Uiso   1.00
C115   C     0.75168   0.87003   0.63868   0.00000  Uiso   1.00
H116   H     0.79724   0.98875   0.26078   0.00000  Uiso   1.00
H117   H     0.87454   0.01070   0.31124   0.00000  Uiso   1.00
H118   H     0.74060   0.04559   0.20687   0.00000  Uiso   1.00
H119   H     0.77880   0.91055   0.21013   0.00000  Uiso   1.00
H120   H     0.95671   0.03415   0.45246   0.00000  Uiso   1.00
H121   H     0.67428   0.10771   0.23237   0.00000  Uiso   1.00
H122   H     0.75483   0.82295   0.23925   0.00000  Uiso   1.00
H123   H     0.77007   0.98185   0.91795   0.00000  Uiso   1.00
H124   H     0.84588   0.00342   0.00447   0.00000  Uiso   1.00
H125   H     0.71194   0.03831   0.90009   0.00000  Uiso   1.00
H126   H     0.75013   0.90327   0.90336   0.00000  Uiso   1.00
H127   H     0.93345   0.02824   0.01512   0.00000  Uiso   1.00
H128   H     0.65101   0.10180   0.79502   0.00000  Uiso   1.00
H129   H     0.73156   0.81705   0.80191   0.00000  Uiso   1.00
O130   O     0.99543   0.04552   0.77885   0.00000  Uiso   1.00
O131   O     0.62489   0.14202   0.49009   0.00000  Uiso   1.00
O132   O     0.73057   0.76843   0.49912   0.00000  Uiso   1.00
N133   N     0.94083   0.02979   0.57301   0.00000  Uiso   1.00
N134   N     0.67678   0.09857   0.36724   0.00000  Uiso   1.00
N135   N     0.75208   0.83235   0.37367   0.00000  Uiso   1.00
N136   N     0.92832   0.02661   0.87577   0.00000  Uiso   1.00
N137   N     0.66426   0.09539   0.67000   0.00000  Uiso   1.00
N138   N     0.73956   0.82917   0.67643   0.00000  Uiso   1.00
C139   C     0.20898   0.01283   0.41134   0.00000  Uiso   1.00
C140   C     0.17075   0.00187   0.52989   0.00000  Uiso   1.00
C141   C     0.13163   0.99087   0.46091   0.00000  Uiso   1.00
C142   C     0.10076   0.98197   0.59232   0.00000  Uiso   1.00
C143   C     0.04018   0.96462   0.74697   0.00000  Uiso   1.00
C144   C     0.24352   0.98290   0.47318   0.00000  Uiso   1.00
C145   C     0.26559   0.95597   0.35652   0.00000  Uiso   1.00
C146   C     0.29598   0.93111   0.44020   0.00000  Uiso   1.00
C147   C     0.34841   0.88434   0.50679   0.00000  Uiso   1.00
C148   C     0.22276   0.05627   0.47495   0.00000  Uiso   1.00
C149   C     0.22739   0.09103   0.35978   0.00000  Uiso   1.00
C150   C     0.24031   0.12794   0.44495   0.00000  Uiso   1.00
C151   C     0.26051   0.19509   0.51429   0.00000  Uiso   1.00
C152   C     0.22370   0.01657   0.76738   0.00000  Uiso   1.00
C153   C     0.17875   0.00390   0.72327   0.00000  Uiso   1.00
C154   C     0.14792   0.99501   0.85483   0.00000  Uiso   1.00
C155   C     0.10877   0.98401   0.78606   0.00000  Uiso   1.00
C156   C     0.25152   0.98493   0.66656   0.00000  Uiso   1.00
C157   C     0.28188   0.96011   0.75043   0.00000  Uiso   1.00
C158   C     0.30399   0.93314   0.63393   0.00000  Uiso   1.00
C159   C     0.23076   0.05831   0.66834   0.00000  Uiso   1.00
C160   C     0.24368   0.09517   0.75370   0.00000  Uiso   1.00
C161   C     0.24832   0.12997   0.63868   0.00000  Uiso   1.00
H162   H     0.20276   0.01125   0.26078   0.00000  Uiso   1.00
H163   H     0.12546   0.98930   0.31124   0.00000  Uiso   1.00
H164   H     0.25940   0.95441   0.20687   0.00000  Uiso   1.00
H165   H     0.22120   0.08945   0.21013   0.00000  Uiso   1.00
H166   H     0.04329   0.96585   0.45246   0.00000  Uiso   1.00
H167   H     0.32572   0.89229   0.23237   0.00000  Uiso   1.00
H168   H     0.24517   0.17705   0.23925   0.00000  Uiso   1.00
H169   H     0.22993   0.01815   0.91795   0.00000  Uiso   1.00
H170   H     0.15412   0.99658   0.00447   0.00000  Uiso   1.00
H171   H     0.28806   0.96169   0.90009   0.00000  Uiso   1.00
H172   H     0.24987   0.09673   0.90336   0.00000  Uiso   1.00
H173   H     0.06655   0.97176   0.01512   0.00000  Uiso   1.00
H174   H     0.34899   0.89820   0.79502   0.00000  Uiso   1.00
H175   H     0.26844   0.18295   0.80191   0.00000  Uiso   1.00
O176   O     0.00457   0.95448   0.77885   0.00000  Uiso   1.00
O177   O     0.37511   0.85798   0.49009   0.00000  Uiso   1.00
O178   O     0.26943   0.23157   0.49912   0.00000  Uiso   1.00
N179   N     0.05917   0.97021   0.57301   0.00000  Uiso   1.00
N180   N     0.32322   0.90143   0.36724   0.00000  Uiso   1.00
N181   N     0.24792   0.16765   0.37367   0.00000  Uiso   1.00
N182   N     0.07168   0.97339   0.87577   0.00000  Uiso   1.00
N183   N     0.33574   0.90461   0.67000   0.00000  Uiso   1.00
N184   N     0.26044   0.17083   0.67643   0.00000  Uiso   1.00
C185   C     0.51283   0.70898   0.08866   0.00000  Uiso   1.00
C186   C     0.50187   0.67075   0.97011   0.00000  Uiso   1.00
C187   C     0.49087   0.63163   0.03909   0.00000  Uiso   1.00
C188   C     0.48197   0.60076   0.90768   0.00000  Uiso   1.00
C189   C     0.46462   0.54018   0.75303   0.00000  Uiso   1.00
C190   C     0.48290   0.74352   0.02682   0.00000  Uiso   1.00
C191   C     0.45597   0.76559   0.14348   0.00000  Uiso   1.00
C192   C     0.43111   0.79598   0.05980   0.00000  Uiso   1.00
C193   C     0.38434   0.84841   0.99321   0.00000  Uiso   1.00
C194   C     0.55627   0.72276   0.02505   0.00000  Uiso   1.00
C195   C     0.59103   0.72739   0.14022   0.00000  Uiso   1.00
C196   C     0.62794   0.74031   0.05505   0.00000  Uiso   1.00
C197   C     0.69509   0.76051   0.98571   0.00000  Uiso   1.00
C198   C     0.51657   0.72370   0.73262   0.00000  Uiso   1.00
C199   C     0.50390   0.67875   0.77673   0.00000  Uiso   1.00
C200   C     0.49501   0.64792   0.64517   0.00000  Uiso   1.00
C201   C     0.48401   0.60877   0.71394   0.00000  Uiso   1.00
C202   C     0.48493   0.75152   0.83344   0.00000  Uiso   1.00
C203   C     0.46011   0.78188   0.74957   0.00000  Uiso   1.00
C204   C     0.43314   0.80399   0.86607   0.00000  Uiso   1.00
C205   C     0.55831   0.73076   0.83166   0.00000  Uiso   1.00
C206   C     0.59517   0.74368   0.74630   0.00000  Uiso   1.00
C207   C     0.62997   0.74832   0.86132   0.00000  Uiso   1.00
H208   H     0.51125   0.70276   0.23922   0.00000  Uiso   1.00
H209   H     0.48930   0.62546   0.18876   0.00000  Uiso   1.00
H210   H     0.45441   0.75940   0.29313   0.00000  Uiso   1.00
H211   H     0.58945   0.72120   0.28987   0.00000  Uiso   1.00
H212   H     0.46585   0.54329   0.04754   0.00000  Uiso   1.00
H213   H     0.39229   0.82572   0.26763   0.00000  Uiso   1.00
H214   H     0.67705   0.74517   0.26075   0.00000  Uiso   1.00
H215   H     0.51815   0.72993   0.58205   0.00000  Uiso   1.00
H216   H     0.49658   0.65412   0.49553   0.00000  Uiso   1.00
H217   H     0.46169   0.78806   0.59991   0.00000  Uiso   1.00
H218   H     0.59673   0.74987   0.59664   0.00000  Uiso   1.00
H219   H     0.47176   0.56655   0.48488   0.00000  Uiso   1.00
H220   H     0.39820   0.84899   0.70498   0.00000  Uiso   1.00
H221   H     0.68295   0.76844   0.69809   0.00000  Uiso   1.00
O222   O     0.45448   0.50457   0.72115   0.00000  Uiso   1.00
O223   O     0.35798   0.87511   0.00991   0.00000  Uiso   1.00
O224   O     0.73157   0.76943   0.00088   0.00000  Uiso   1.00
N225   N     0.47021   0.55917   0.92699   0.00000  Uiso   1.00
N226   N     0.40143   0.82322   0.13276   0.00000  Uiso   1.00
N227   N     0.66765   0.74792   0.12633   0.00000  Uiso   1.00
N228   N     0.47339   0.57168   0.62423   0.00000  Uiso   1.00
N229   N     0.40461   0.83574   0.83000   0.00000  Uiso   1.00
N230   N     0.67083   0.76044   0.82357   0.00000  Uiso   1.00
C231   C     0.48717   0.29102   0.08866   0.00000  Uiso   1.00
C232   C     0.49813   0.32925   0.97011   0.00000  Uiso   1.00
C233   C     0.50913   0.36837   0.03909   0.00000  Uiso   1.00
C234   C     0.51803   0.39924   0.90768   0.00000  Uiso   1.00
C235   C     0.53538   0.45982   0.75303   0.00000  Uiso   1.00
C236   C     0.51710   0.25648   0.02682   0.00000  Uiso   1.00
C237   C     0.54403   0.23441   0.14348   0.00000  Uiso   1.00
C238   C     0.56889   0.20402   0.05980   0.00000  Uiso   1.00
C239   C     0.61566   0.15159   0.99321   0.00000  Uiso   1.00
C240   C     0.44373   0.27724   0.02505   0.00000  Uiso   1.00
C241   C     0.40897   0.27261   0.14022   0.00000  Uiso   1.00
C242   C     0.37206   0.25969   0.05505   0.00000  Uiso   1.00
C243   C     0.30491   0.23949   0.98571   0.00000  Uiso   1.00
C244   C     0.48343   0.27630   0.73262   0.00000  Uiso   1.00
C245   C     0.49610   0.32125   0.77673   0.00000  Uiso   1.00
C246   C     0.50499   0.35208   0.64517   0.00000  Uiso   1.00
C247   C     0.51599   0.39123   0.71394   0.00000  Uiso   1.00
C248   C     0.51507   0.24848   0.83344   0.00000  Uiso   1.00
C249   C     0.53989   0.21812   0.74957   0.00000  Uiso   1.00
C250   C     0.56686   0.19601   0.86607   0.00000  Uiso   1.00
C251   C     0.44169   0.26924   0.83166   0.00000  Uiso   1.00
C252   C     0.40483   0.25632   0.74630   0.00000  Uiso   1.00
C253   C     0.37003   0.25168   0.86132   0.00000  Uiso   1.00
H254   H     0.48875   0.29724   0.23922   0.00000  Uiso   1.00
H255   H     0.51070   0.37454   0.18876   0.00000  Uiso   1.00
H256   H     0.54559   0.24060   0.29313   0.00000  Uiso   1.00
H257   H     0.41055   0.27880   0.28987   0.00000  Uiso   1.00
H258   H     0.53415   0.45671   0.04754   0.00000  Uiso   1.00
H259   H     0.60771   0.17428   0.26763   0.00000  Uiso   1.00
H260   H     0.32295   0.25483   0.26075   0.00000  Uiso   1.00
H261   H     0.48185   0.27007   0.58205   0.00000  Uiso   1.00
H262   H     0.50342   0.34588   0.49553   0.00000  Uiso   1.00
H263   H     0.53831   0.21194   0.59991   0.00000  Uiso   1.00
H264   H     0.40327   0.25013   0.59664   0.00000  Uiso   1.00
H265   H     0.52824   0.43345   0.48488   0.00000  Uiso   1.00
H266   H     0.60180   0.15101   0.70498   0.00000  Uiso   1.00
H267   H     0.31705   0.23156   0.69809   0.00000  Uiso   1.00
O268   O     0.54552   0.49543   0.72115   0.00000  Uiso   1.00
O269   O     0.64202   0.12489   0.00991   0.00000  Uiso   1.00
O270   O     0.26843   0.23057   0.00088   0.00000  Uiso   1.00
N271   N     0.52979   0.44083   0.92699   0.00000  Uiso   1.00
N272   N     0.59857   0.17678   0.13276   0.00000  Uiso   1.00
N273   N     0.33235   0.25208   0.12633   0.00000  Uiso   1.00
N274   N     0.52661   0.42832   0.62423   0.00000  Uiso   1.00
N275   N     0.59539   0.16426   0.83000   0.00000  Uiso   1.00
N276   N     0.32917   0.23956   0.82357   0.00000  Uiso   1.00
C277   C     0.29102   0.51283   0.91134   0.00000  Uiso   1.00
C278   C     0.32925   0.50187   0.02989   0.00000  Uiso   1.00
C279   C     0.36837   0.49087   0.96091   0.00000  Uiso   1.00
C280   C     0.39924   0.48197   0.09232   0.00000  Uiso   1.00
C281   C     0.45982   0.46462   0.24697   0.00000  Uiso   1.00
C282   C     0.25648   0.48290   0.97318   0.00000  Uiso   1.00
C283   C     0.23441   0.45597   0.85652   0.00000  Uiso   1.00
C284   C     0.20402   0.43111   0.94020   0.00000  Uiso   1.00
C285   C     0.15159   0.38434   0.00679   0.00000  Uiso   1.00
C286   C     0.27724   0.55627   0.97495   0.00000  Uiso   1.00
C287   C     0.27261   0.59103   0.85978   0.00000  Uiso   1.00
C288   C     0.25969   0.62794   0.94495   0.00000  Uiso   1.00
C289   C     0.23949   0.69509   0.01429   0.00000  Uiso   1.00
C290   C     0.27630   0.51657   0.26738   0.00000  Uiso   1.00
C291   C     0.32125   0.50390   0.22327   0.00000  Uiso   1.00
C292   C     0.35208   0.49501   0.35483   0.00000  Uiso   1.00
C293   C     0.39123   0.48401   0.28606   0.00000  Uiso   1.00
C294   C     0.24848   0.48493   0.16656   0.00000  Uiso   1.00
C295   C     0.21812   0.46011   0.25043   0.00000  Uiso   1.00
C296   C     0.19601   0.43314   0.13393   0.00000  Uiso   1.00
C297   C     0.26924   0.55831   0.16834   0.00000  Uiso   1.00
C298   C     0.25632   0.59517   0.25370   0.00000  Uiso   1.00
C299   C     0.25168   0.62997   0.13868   0.00000  Uiso   1.00
H300   H     0.29724   0.51125   0.76078   0.00000  Uiso   1.00
H301   H     0.37454   0.48930   0.81124   0.00000  Uiso   1.00
H302   H     0.24060   0.45441   0.70687   0.00000  Uiso   1.00
H303   H     0.27880   0.58945   0.71013   0.00000  Uiso   1.00
H304   H     0.45671   0.46585   0.95246   0.00000  Uiso   1.00
H305   H     0.17428   0.39229   0.73237   0.00000  Uiso   1.00
H306   H     0.25483   0.67705   0.73925   0.00000  Uiso   1.00
H307   H     0.27007   0.51815   0.41795   0.00000  Uiso   1.00
H308   H     0.34588   0.49658   0.50447   0.00000  Uiso   1.00
H309   H     0.21194   0.46169   0.40009   0.00000  Uiso   1.00
H310   H     0.25013   0.59673   0.40336   0.00000  Uiso   1.00
H311   H     0.43345   0.47176   0.51512   0.00000  Uiso   1.00
H312   H     0.15101   0.39820   0.29502   0.00000  Uiso   1.00
H313   H     0.23156   0.68295   0.30191   0.00000  Uiso   1.00
O314   O     0.49543   0.45448   0.27885   0.00000  Uiso   1.00
O315   O     0.12489   0.35798   0.99009   0.00000  Uiso   1.00
O316   O     0.23057   0.73157   0.99912   0.00000  Uiso   1.00
N317   N     0.44083   0.47021   0.07301   0.00000  Uiso   1.00
N318   N     0.17678   0.40143   0.86724   0.00000  Uiso   1.00
N319   N     0.25208   0.66765   0.87367   0.00000  Uiso   1.00
N320   N     0.42832   0.47339   0.37577   0.00000  Uiso   1.00
N321   N     0.16426   0.40461   0.17000   0.00000  Uiso   1.00
N322   N     0.23956   0.67083   0.17643   0.00000  Uiso   1.00
C323   C     0.70898   0.48717   0.91134   0.00000  Uiso   1.00
C324   C     0.67075   0.49813   0.02989   0.00000  Uiso   1.00
C325   C     0.63163   0.50913   0.96091   0.00000  Uiso   1.00
C326   C     0.60076   0.51803   0.09232   0.00000  Uiso   1.00
C327   C     0.54018   0.53538   0.24697   0.00000  Uiso   1.00
C328   C     0.74352   0.51710   0.97318   0.00000  Uiso   1.00
C329   C     0.76559   0.54403   0.85652   0.00000  Uiso   1.00
C330   C     0.79598   0.56889   0.94020   0.00000  Uiso   1.00
C331   C     0.84841   0.61566   0.00679   0.00000  Uiso   1.00
C332   C     0.72276   0.44373   0.97495   0.00000  Uiso   1.00
C333   C     0.72739   0.40897   0.85978   0.00000  Uiso   1.00
C334   C     0.74031   0.37206   0.94495   0.00000  Uiso   1.00
C335   C     0.76051   0.30491   0.01429   0.00000  Uiso   1.00
C336   C     0.72370   0.48343   0.26738   0.00000  Uiso   1.00
C337   C     0.67875   0.49610   0.22327   0.00000  Uiso   1.00
C338   C     0.64792   0.50499   0.35483   0.00000  Uiso   1.00
C339   C     0.60877   0.51599   0.28606   0.00000  Uiso   1.00
C340   C     0.75152   0.51507   0.16656   0.00000  Uiso   1.00
C341   C     0.78188   0.53989   0.25043   0.00000  Uiso   1.00
C342   C     0.80399   0.56686   0.13393   0.00000  Uiso   1.00
C343   C     0.73076   0.44169   0.16834   0.00000  Uiso   1.00
C344   C     0.74368   0.40483   0.25370   0.00000  Uiso   1.00
C345   C     0.74832   0.37003   0.13868   0.00000  Uiso   1.00
H346   H     0.70276   0.48875   0.76078   0.00000  Uiso   1.00
H347   H     0.62546   0.51070   0.81124   0.00000  Uiso   1.00
H348   H     0.75940   0.54559   0.70687   0.00000  Uiso   1.00
H349   H     0.72120   0.41055   0.71013   0.00000  Uiso   1.00
H350   H     0.54329   0.53415   0.95246   0.00000  Uiso   1.00
H351   H     0.82572   0.60771   0.73237   0.00000  Uiso   1.00
H352   H     0.74517   0.32295   0.73925   0.00000  Uiso   1.00
H353   H     0.72993   0.48185   0.41795   0.00000  Uiso   1.00
H354   H     0.65412   0.50342   0.50447   0.00000  Uiso   1.00
H355   H     0.78806   0.53831   0.40009   0.00000  Uiso   1.00
H356   H     0.74987   0.40327   0.40336   0.00000  Uiso   1.00
H357   H     0.56655   0.52824   0.51512   0.00000  Uiso   1.00
H358   H     0.84899   0.60180   0.29502   0.00000  Uiso   1.00
H359   H     0.76844   0.31705   0.30191   0.00000  Uiso   1.00
O360   O     0.50457   0.54552   0.27885   0.00000  Uiso   1.00
O361   O     0.87511   0.64202   0.99009   0.00000  Uiso   1.00
O362   O     0.76943   0.26843   0.99912   0.00000  Uiso   1.00
N363   N     0.55917   0.52979   0.07301   0.00000  Uiso   1.00
N364   N     0.82322   0.59857   0.86724   0.00000  Uiso   1.00
N365   N     0.74792   0.33235   0.87367   0.00000  Uiso   1.00
N366   N     0.57168   0.52661   0.37577   0.00000  Uiso   1.00
N367   N     0.83574   0.59539   0.17000   0.00000  Uiso   1.00
N368   N     0.76044   0.32917   0.17643   0.00000  Uiso   1.00
