data_job_00157
_audit_creation_date              2018-12-19
_audit_creation_method            'Materials Studio'
_symmetry_space_group_name_H-M    'P1'
_symmetry_Int_Tables_number       1
_symmetry_cell_setting            triclinic
loop_
_symmetry_equiv_pos_as_xyz
  x,y,z
_cell_length_a                    14.2273
_cell_length_b                    12.3906
_cell_length_c                    14.2156
_cell_angle_alpha                 90.0000
_cell_angle_beta                  102.8500
_cell_angle_gamma                 90.0000
loop_
_atom_site_label
_atom_site_type_symbol
_atom_site_fract_x
_atom_site_fract_y
_atom_site_fract_z
_atom_site_U_iso_or_equiv
_atom_site_adp_type
_atom_site_occupancy
C1     C     0.71656   0.40740   0.80135   0.00000  Uiso   1.00
C2     C     0.75892   0.49185   0.74460   0.00000  Uiso   1.00
C3     C     0.79622   0.59119   0.77953   0.00000  Uiso   1.00
C4     C     0.83155   0.65699   0.71626   0.00000  Uiso   1.00
C5     C     0.89759   0.79309   0.64254   0.00000  Uiso   1.00
C6     C     0.61471   0.38528   0.74319   0.00000  Uiso   1.00
C7     C     0.53076   0.39501   0.77694   0.00000  Uiso   1.00
C8     C     0.44470   0.37108   0.71248   0.00000  Uiso   1.00
C9     C     0.28684   0.34165   0.63659   0.00000  Uiso   1.00
C10    C     0.77358   0.30409   0.79669   0.00000  Uiso   1.00
C11    C     0.82320   0.24552   0.87542   0.00000  Uiso   1.00
C12    C     0.87088   0.15321   0.85600   0.00000  Uiso   1.00
C13    C     0.95970   0.99771   0.86318   0.00000  Uiso   1.00
C14    C     0.71299   0.34760   0.62687   0.00000  Uiso   1.00
C15    C     0.75698   0.45937   0.64983   0.00000  Uiso   1.00
C16    C     0.79227   0.52504   0.58649   0.00000  Uiso   1.00
C17    C     0.82962   0.62445   0.62132   0.00000  Uiso   1.00
C18    C     0.61277   0.35281   0.64842   0.00000  Uiso   1.00
C19    C     0.52681   0.32885   0.58390   0.00000  Uiso   1.00
C20    C     0.44275   0.33854   0.61754   0.00000  Uiso   1.00
C21    C     0.77165   0.27161   0.70192   0.00000  Uiso   1.00
C22    C     0.81925   0.17937   0.68237   0.00000  Uiso   1.00
C23    C     0.86893   0.12067   0.76105   0.00000  Uiso   1.00
H24    H     0.71806   0.43268   0.87513   0.00000  Uiso   1.00
H25    H     0.79770   0.61630   0.85287   0.00000  Uiso   1.00
H26    H     0.53228   0.42013   0.85028   0.00000  Uiso   1.00
H27    H     0.82468   0.27068   0.94874   0.00000  Uiso   1.00
H28    H     0.88510   0.80557   0.78639   0.00000  Uiso   1.00
H29    H     0.32546   0.39190   0.78094   0.00000  Uiso   1.00
H30    H     0.94204   0.07674   0.98857   0.00000  Uiso   1.00
H31    H     0.71148   0.32231   0.55309   0.00000  Uiso   1.00
H32    H     0.79076   0.49988   0.51315   0.00000  Uiso   1.00
H33    H     0.52534   0.30371   0.51057   0.00000  Uiso   1.00
H34    H     0.81774   0.15426   0.60903   0.00000  Uiso   1.00
H35    H     0.87947   0.71108   0.51066   0.00000  Uiso   1.00
H36    H     0.31983   0.29741   0.50521   0.00000  Uiso   1.00
H37    H     0.93640   0.98225   0.71284   0.00000  Uiso   1.00
O38    O     0.93453   0.87714   0.62806   0.00000  Uiso   1.00
O39    O     0.20031   0.33440   0.62092   0.00000  Uiso   1.00
O40    O     0.00924   0.92092   0.89331   0.00000  Uiso   1.00
N41    N     0.87292   0.75895   0.72698   0.00000  Uiso   1.00
N42    N     0.34968   0.37222   0.72188   0.00000  Uiso   1.00
N43    N     0.92611   0.07755   0.91600   0.00000  Uiso   1.00
N44    N     0.86989   0.70811   0.57861   0.00000  Uiso   1.00
N45    N     0.34665   0.32137   0.57352   0.00000  Uiso   1.00
N46    N     0.92308   0.02670   0.76763   0.00000  Uiso   1.00
C47    C     0.28344   0.90740   0.69865   0.00000  Uiso   1.00
C48    C     0.24108   0.99185   0.75540   0.00000  Uiso   1.00
C49    C     0.20378   0.09119   0.72047   0.00000  Uiso   1.00
C50    C     0.16845   0.15699   0.78374   0.00000  Uiso   1.00
C51    C     0.10241   0.29309   0.85746   0.00000  Uiso   1.00
C52    C     0.38529   0.88528   0.75681   0.00000  Uiso   1.00
C53    C     0.46924   0.89501   0.72306   0.00000  Uiso   1.00
C54    C     0.55530   0.87108   0.78752   0.00000  Uiso   1.00
C55    C     0.71316   0.84165   0.86341   0.00000  Uiso   1.00
C56    C     0.22642   0.80409   0.70331   0.00000  Uiso   1.00
C57    C     0.17680   0.74552   0.62458   0.00000  Uiso   1.00
C58    C     0.12912   0.65321   0.64400   0.00000  Uiso   1.00
C59    C     0.04030   0.49771   0.63682   0.00000  Uiso   1.00
C60    C     0.28701   0.84760   0.87313   0.00000  Uiso   1.00
C61    C     0.24302   0.95937   0.85017   0.00000  Uiso   1.00
C62    C     0.20773   0.02504   0.91351   0.00000  Uiso   1.00
C63    C     0.17038   0.12445   0.87868   0.00000  Uiso   1.00
C64    C     0.38723   0.85281   0.85158   0.00000  Uiso   1.00
C65    C     0.47319   0.82885   0.91610   0.00000  Uiso   1.00
C66    C     0.55725   0.83854   0.88246   0.00000  Uiso   1.00
C67    C     0.22835   0.77161   0.79808   0.00000  Uiso   1.00
C68    C     0.18075   0.67937   0.81763   0.00000  Uiso   1.00
C69    C     0.13107   0.62067   0.73895   0.00000  Uiso   1.00
H70    H     0.28194   0.93268   0.62487   0.00000  Uiso   1.00
H71    H     0.20230   0.11630   0.64713   0.00000  Uiso   1.00
H72    H     0.46772   0.92013   0.64972   0.00000  Uiso   1.00
H73    H     0.17532   0.77068   0.55126   0.00000  Uiso   1.00
H74    H     0.11490   0.30557   0.71361   0.00000  Uiso   1.00
H75    H     0.67454   0.89190   0.71906   0.00000  Uiso   1.00
H76    H     0.05796   0.57674   0.51143   0.00000  Uiso   1.00
H77    H     0.28852   0.82231   0.94691   0.00000  Uiso   1.00
H78    H     0.20924   0.99988   0.98685   0.00000  Uiso   1.00
H79    H     0.47466   0.80371   0.98943   0.00000  Uiso   1.00
H80    H     0.18226   0.65426   0.89097   0.00000  Uiso   1.00
H81    H     0.12053   0.21108   0.98934   0.00000  Uiso   1.00
H82    H     0.68017   0.79741   0.99479   0.00000  Uiso   1.00
H83    H     0.06360   0.48225   0.78716   0.00000  Uiso   1.00
O84    O     0.06547   0.37714   0.87194   0.00000  Uiso   1.00
O85    O     0.79969   0.83440   0.87908   0.00000  Uiso   1.00
O86    O     0.99076   0.42092   0.60669   0.00000  Uiso   1.00
N87    N     0.12708   0.25895   0.77302   0.00000  Uiso   1.00
N88    N     0.65032   0.87222   0.77812   0.00000  Uiso   1.00
N89    N     0.07389   0.57755   0.58400   0.00000  Uiso   1.00
N90    N     0.13011   0.20811   0.92139   0.00000  Uiso   1.00
N91    N     0.65335   0.82137   0.92648   0.00000  Uiso   1.00
N92    N     0.07692   0.52670   0.73237   0.00000  Uiso   1.00
C93    C     0.28344   0.59260   0.19865   0.00000  Uiso   1.00
C94    C     0.24108   0.50815   0.25540   0.00000  Uiso   1.00
C95    C     0.20378   0.40881   0.22047   0.00000  Uiso   1.00
C96    C     0.16845   0.34301   0.28374   0.00000  Uiso   1.00
C97    C     0.10241   0.20691   0.35746   0.00000  Uiso   1.00
C98    C     0.38529   0.61472   0.25681   0.00000  Uiso   1.00
C99    C     0.46924   0.60499   0.22306   0.00000  Uiso   1.00
C100   C     0.55530   0.62892   0.28752   0.00000  Uiso   1.00
C101   C     0.71316   0.65835   0.36341   0.00000  Uiso   1.00
C102   C     0.22642   0.69591   0.20331   0.00000  Uiso   1.00
C103   C     0.17680   0.75448   0.12458   0.00000  Uiso   1.00
C104   C     0.12912   0.84679   0.14400   0.00000  Uiso   1.00
C105   C     0.04030   0.00229   0.13682   0.00000  Uiso   1.00
C106   C     0.28701   0.65240   0.37313   0.00000  Uiso   1.00
C107   C     0.24302   0.54063   0.35017   0.00000  Uiso   1.00
C108   C     0.20773   0.47496   0.41351   0.00000  Uiso   1.00
C109   C     0.17038   0.37555   0.37868   0.00000  Uiso   1.00
C110   C     0.38723   0.64719   0.35158   0.00000  Uiso   1.00
C111   C     0.47319   0.67115   0.41610   0.00000  Uiso   1.00
C112   C     0.55725   0.66146   0.38246   0.00000  Uiso   1.00
C113   C     0.22835   0.72839   0.29808   0.00000  Uiso   1.00
C114   C     0.18075   0.82063   0.31763   0.00000  Uiso   1.00
C115   C     0.13107   0.87933   0.23895   0.00000  Uiso   1.00
H116   H     0.28194   0.56732   0.12487   0.00000  Uiso   1.00
H117   H     0.20230   0.38370   0.14713   0.00000  Uiso   1.00
H118   H     0.46772   0.57987   0.14972   0.00000  Uiso   1.00
H119   H     0.17532   0.72932   0.05126   0.00000  Uiso   1.00
H120   H     0.11490   0.19443   0.21361   0.00000  Uiso   1.00
H121   H     0.67454   0.60810   0.21906   0.00000  Uiso   1.00
H122   H     0.05796   0.92326   0.01143   0.00000  Uiso   1.00
H123   H     0.28852   0.67769   0.44691   0.00000  Uiso   1.00
H124   H     0.20924   0.50012   0.48685   0.00000  Uiso   1.00
H125   H     0.47466   0.69629   0.48943   0.00000  Uiso   1.00
H126   H     0.18226   0.84574   0.39097   0.00000  Uiso   1.00
H127   H     0.12053   0.28892   0.48934   0.00000  Uiso   1.00
H128   H     0.68017   0.70259   0.49479   0.00000  Uiso   1.00
H129   H     0.06360   0.01775   0.28716   0.00000  Uiso   1.00
O130   O     0.06547   0.12286   0.37194   0.00000  Uiso   1.00
O131   O     0.79969   0.66560   0.37908   0.00000  Uiso   1.00
O132   O     0.99076   0.07908   0.10669   0.00000  Uiso   1.00
N133   N     0.12708   0.24105   0.27302   0.00000  Uiso   1.00
N134   N     0.65032   0.62778   0.27812   0.00000  Uiso   1.00
N135   N     0.07389   0.92245   0.08400   0.00000  Uiso   1.00
N136   N     0.13011   0.29189   0.42139   0.00000  Uiso   1.00
N137   N     0.65335   0.67863   0.42648   0.00000  Uiso   1.00
N138   N     0.07692   0.97330   0.23237   0.00000  Uiso   1.00
C139   C     0.71656   0.09260   0.30135   0.00000  Uiso   1.00
C140   C     0.75892   0.00815   0.24460   0.00000  Uiso   1.00
C141   C     0.79622   0.90881   0.27953   0.00000  Uiso   1.00
C142   C     0.83155   0.84301   0.21626   0.00000  Uiso   1.00
C143   C     0.89759   0.70691   0.14254   0.00000  Uiso   1.00
C144   C     0.61471   0.11472   0.24319   0.00000  Uiso   1.00
C145   C     0.53076   0.10499   0.27694   0.00000  Uiso   1.00
C146   C     0.44470   0.12892   0.21248   0.00000  Uiso   1.00
C147   C     0.28684   0.15835   0.13659   0.00000  Uiso   1.00
C148   C     0.77358   0.19591   0.29669   0.00000  Uiso   1.00
C149   C     0.82320   0.25448   0.37542   0.00000  Uiso   1.00
C150   C     0.87088   0.34679   0.35600   0.00000  Uiso   1.00
C151   C     0.95970   0.50229   0.36318   0.00000  Uiso   1.00
C152   C     0.71299   0.15240   0.12687   0.00000  Uiso   1.00
C153   C     0.75698   0.04063   0.14983   0.00000  Uiso   1.00
C154   C     0.79227   0.97496   0.08649   0.00000  Uiso   1.00
C155   C     0.82962   0.87555   0.12132   0.00000  Uiso   1.00
C156   C     0.61277   0.14719   0.14842   0.00000  Uiso   1.00
C157   C     0.52681   0.17115   0.08390   0.00000  Uiso   1.00
C158   C     0.44275   0.16146   0.11754   0.00000  Uiso   1.00
C159   C     0.77165   0.22839   0.20192   0.00000  Uiso   1.00
C160   C     0.81925   0.32063   0.18237   0.00000  Uiso   1.00
C161   C     0.86893   0.37933   0.26105   0.00000  Uiso   1.00
H162   H     0.71806   0.06732   0.37513   0.00000  Uiso   1.00
H163   H     0.79770   0.88370   0.35287   0.00000  Uiso   1.00
H164   H     0.53228   0.07987   0.35028   0.00000  Uiso   1.00
H165   H     0.82468   0.22932   0.44874   0.00000  Uiso   1.00
H166   H     0.88510   0.69443   0.28639   0.00000  Uiso   1.00
H167   H     0.32546   0.10810   0.28094   0.00000  Uiso   1.00
H168   H     0.94204   0.42326   0.48857   0.00000  Uiso   1.00
H169   H     0.71148   0.17769   0.05309   0.00000  Uiso   1.00
H170   H     0.79076   0.00012   0.01315   0.00000  Uiso   1.00
H171   H     0.52534   0.19629   0.01057   0.00000  Uiso   1.00
H172   H     0.81774   0.34574   0.10903   0.00000  Uiso   1.00
H173   H     0.87947   0.78892   0.01066   0.00000  Uiso   1.00
H174   H     0.31983   0.20259   0.00521   0.00000  Uiso   1.00
H175   H     0.93640   0.51775   0.21284   0.00000  Uiso   1.00
O176   O     0.93453   0.62286   0.12806   0.00000  Uiso   1.00
O177   O     0.20031   0.16560   0.12092   0.00000  Uiso   1.00
O178   O     0.00924   0.57908   0.39331   0.00000  Uiso   1.00
N179   N     0.87292   0.74105   0.22698   0.00000  Uiso   1.00
N180   N     0.34968   0.12778   0.22188   0.00000  Uiso   1.00
N181   N     0.92611   0.42245   0.41600   0.00000  Uiso   1.00
N182   N     0.86989   0.79189   0.07861   0.00000  Uiso   1.00
N183   N     0.34665   0.17863   0.07352   0.00000  Uiso   1.00
N184   N     0.92308   0.47330   0.26763   0.00000  Uiso   1.00
