data_job_01225
_audit_creation_date              2018-12-19
_audit_creation_method            'Materials Studio'
_symmetry_space_group_name_H-M    'P1'
_symmetry_Int_Tables_number       1
_symmetry_cell_setting            triclinic
loop_
_symmetry_equiv_pos_as_xyz
  x,y,z
_cell_length_a                    9.3025
_cell_length_b                    31.3314
_cell_length_c                    23.3323
_cell_angle_alpha                 90.0000
_cell_angle_beta                  90.0000
_cell_angle_gamma                 90.0000
loop_
_atom_site_label
_atom_site_type_symbol
_atom_site_fract_x
_atom_site_fract_y
_atom_site_fract_z
_atom_site_U_iso_or_equiv
_atom_site_adp_type
_atom_site_occupancy
C1     C     0.38721   0.38452   0.30296   0.00000  Uiso   1.00
C2     C     0.34939   0.34964   0.25993   0.00000  Uiso   1.00
C3     C     0.25334   0.35364   0.21474   0.00000  Uiso   1.00
C4     C     0.23352   0.31804   0.18022   0.00000  Uiso   1.00
C5     C     0.16354   0.26969   0.11185   0.00000  Uiso   1.00
C6     C     0.35517   0.36594   0.36200   0.00000  Uiso   1.00
C7     C     0.26398   0.38365   0.40264   0.00000  Uiso   1.00
C8     C     0.24905   0.36177   0.45403   0.00000  Uiso   1.00
C9     C     0.18811   0.33875   0.54415   0.00000  Uiso   1.00
C10    C     0.55001   0.38975   0.29999   0.00000  Uiso   1.00
C11    C     0.62266   0.42748   0.28850   0.00000  Uiso   1.00
C12    C     0.77177   0.42565   0.28771   0.00000  Uiso   1.00
C13    C     0.01336   0.43959   0.28154   0.00000  Uiso   1.00
C14    C     0.52285   0.31417   0.32200   0.00000  Uiso   1.00
C15    C     0.42306   0.31143   0.27028   0.00000  Uiso   1.00
C16    C     0.40340   0.27581   0.23581   0.00000  Uiso   1.00
C17    C     0.30733   0.27976   0.19058   0.00000  Uiso   1.00
C18    C     0.42883   0.32773   0.37235   0.00000  Uiso   1.00
C19    C     0.41404   0.30582   0.42370   0.00000  Uiso   1.00
C20    C     0.32285   0.32349   0.46440   0.00000  Uiso   1.00
C21    C     0.62368   0.35154   0.31033   0.00000  Uiso   1.00
C22    C     0.77272   0.34965   0.30956   0.00000  Uiso   1.00
C23    C     0.84557   0.38737   0.29807   0.00000  Uiso   1.00
H24    H     0.32985   0.41427   0.29491   0.00000  Uiso   1.00
H25    H     0.19633   0.38322   0.20676   0.00000  Uiso   1.00
H26    H     0.20699   0.41322   0.39462   0.00000  Uiso   1.00
H27    H     0.56561   0.45705   0.28050   0.00000  Uiso   1.00
H28    H     0.08075   0.33194   0.11360   0.00000  Uiso   1.00
H29    H     0.10326   0.39522   0.50972   0.00000  Uiso   1.00
H30    H     0.85948   0.48763   0.26908   0.00000  Uiso   1.00
H31    H     0.58020   0.28442   0.33005   0.00000  Uiso   1.00
H32    H     0.46042   0.24624   0.24382   0.00000  Uiso   1.00
H33    H     0.47108   0.27625   0.43169   0.00000  Uiso   1.00
H34    H     0.82969   0.32007   0.31757   0.00000  Uiso   1.00
H35    H     0.29509   0.22077   0.14368   0.00000  Uiso   1.00
H36    H     0.31761   0.28404   0.53981   0.00000  Uiso   1.00
H37    H     0.07382   0.37645   0.29917   0.00000  Uiso   1.00
O38    O     0.10457   0.25358   0.07129   0.00000  Uiso   1.00
O39    O     0.13413   0.33660   0.59100   0.00000  Uiso   1.00
O40    O     0.12626   0.45784   0.27528   0.00000  Uiso   1.00
N41    N     0.14766   0.31102   0.13250   0.00000  Uiso   1.00
N42    N     0.16869   0.37017   0.50286   0.00000  Uiso   1.00
N43    N     0.87568   0.45657   0.27789   0.00000  Uiso   1.00
N44    N     0.26299   0.25120   0.14869   0.00000  Uiso   1.00
N45    N     0.28402   0.31035   0.51905   0.00000  Uiso   1.00
N46    N     0.99102   0.39675   0.29408   0.00000  Uiso   1.00
C47    C     0.88721   0.88452   0.80296   0.00000  Uiso   1.00
C48    C     0.84939   0.84964   0.75993   0.00000  Uiso   1.00
C49    C     0.75334   0.85364   0.71474   0.00000  Uiso   1.00
C50    C     0.73352   0.81804   0.68022   0.00000  Uiso   1.00
C51    C     0.66354   0.76969   0.61185   0.00000  Uiso   1.00
C52    C     0.85517   0.86594   0.86200   0.00000  Uiso   1.00
C53    C     0.76398   0.88365   0.90264   0.00000  Uiso   1.00
C54    C     0.74905   0.86177   0.95403   0.00000  Uiso   1.00
C55    C     0.68811   0.83875   0.04415   0.00000  Uiso   1.00
C56    C     0.05001   0.88975   0.79999   0.00000  Uiso   1.00
C57    C     0.12266   0.92748   0.78850   0.00000  Uiso   1.00
C58    C     0.27177   0.92565   0.78771   0.00000  Uiso   1.00
C59    C     0.51336   0.93959   0.78154   0.00000  Uiso   1.00
C60    C     0.02285   0.81417   0.82200   0.00000  Uiso   1.00
C61    C     0.92306   0.81143   0.77028   0.00000  Uiso   1.00
C62    C     0.90340   0.77581   0.73581   0.00000  Uiso   1.00
C63    C     0.80733   0.77976   0.69058   0.00000  Uiso   1.00
C64    C     0.92883   0.82773   0.87235   0.00000  Uiso   1.00
C65    C     0.91404   0.80582   0.92370   0.00000  Uiso   1.00
C66    C     0.82285   0.82349   0.96440   0.00000  Uiso   1.00
C67    C     0.12368   0.85154   0.81033   0.00000  Uiso   1.00
C68    C     0.27272   0.84965   0.80956   0.00000  Uiso   1.00
C69    C     0.34557   0.88737   0.79807   0.00000  Uiso   1.00
H70    H     0.82985   0.91427   0.79491   0.00000  Uiso   1.00
H71    H     0.69633   0.88322   0.70676   0.00000  Uiso   1.00
H72    H     0.70699   0.91322   0.89462   0.00000  Uiso   1.00
H73    H     0.06561   0.95705   0.78050   0.00000  Uiso   1.00
H74    H     0.58075   0.83194   0.61360   0.00000  Uiso   1.00
H75    H     0.60326   0.89522   0.00972   0.00000  Uiso   1.00
H76    H     0.35948   0.98763   0.76908   0.00000  Uiso   1.00
H77    H     0.08020   0.78442   0.83005   0.00000  Uiso   1.00
H78    H     0.96042   0.74624   0.74382   0.00000  Uiso   1.00
H79    H     0.97108   0.77625   0.93169   0.00000  Uiso   1.00
H80    H     0.32969   0.82007   0.81757   0.00000  Uiso   1.00
H81    H     0.79509   0.72077   0.64368   0.00000  Uiso   1.00
H82    H     0.81761   0.78404   0.03981   0.00000  Uiso   1.00
H83    H     0.57382   0.87645   0.79917   0.00000  Uiso   1.00
O84    O     0.60457   0.75358   0.57129   0.00000  Uiso   1.00
O85    O     0.63413   0.83660   0.09100   0.00000  Uiso   1.00
O86    O     0.62626   0.95784   0.77528   0.00000  Uiso   1.00
N87    N     0.64766   0.81102   0.63250   0.00000  Uiso   1.00
N88    N     0.66869   0.87017   0.00286   0.00000  Uiso   1.00
N89    N     0.37568   0.95657   0.77789   0.00000  Uiso   1.00
N90    N     0.76299   0.75120   0.64869   0.00000  Uiso   1.00
N91    N     0.78402   0.81035   0.01905   0.00000  Uiso   1.00
N92    N     0.49102   0.89675   0.79408   0.00000  Uiso   1.00
C93    C     0.61279   0.61548   0.30296   0.00000  Uiso   1.00
C94    C     0.65061   0.65036   0.25993   0.00000  Uiso   1.00
C95    C     0.74666   0.64636   0.21474   0.00000  Uiso   1.00
C96    C     0.76648   0.68196   0.18022   0.00000  Uiso   1.00
C97    C     0.83646   0.73031   0.11185   0.00000  Uiso   1.00
C98    C     0.64483   0.63406   0.36200   0.00000  Uiso   1.00
C99    C     0.73602   0.61635   0.40264   0.00000  Uiso   1.00
C100   C     0.75095   0.63823   0.45403   0.00000  Uiso   1.00
C101   C     0.81189   0.66125   0.54415   0.00000  Uiso   1.00
C102   C     0.44999   0.61025   0.29999   0.00000  Uiso   1.00
C103   C     0.37734   0.57252   0.28850   0.00000  Uiso   1.00
C104   C     0.22823   0.57435   0.28771   0.00000  Uiso   1.00
C105   C     0.98664   0.56041   0.28154   0.00000  Uiso   1.00
C106   C     0.47715   0.68583   0.32200   0.00000  Uiso   1.00
C107   C     0.57694   0.68857   0.27028   0.00000  Uiso   1.00
C108   C     0.59660   0.72419   0.23581   0.00000  Uiso   1.00
C109   C     0.69267   0.72024   0.19058   0.00000  Uiso   1.00
C110   C     0.57117   0.67227   0.37235   0.00000  Uiso   1.00
C111   C     0.58596   0.69418   0.42370   0.00000  Uiso   1.00
C112   C     0.67715   0.67651   0.46440   0.00000  Uiso   1.00
C113   C     0.37632   0.64846   0.31033   0.00000  Uiso   1.00
C114   C     0.22728   0.65035   0.30956   0.00000  Uiso   1.00
C115   C     0.15443   0.61263   0.29807   0.00000  Uiso   1.00
H116   H     0.67015   0.58573   0.29491   0.00000  Uiso   1.00
H117   H     0.80367   0.61678   0.20676   0.00000  Uiso   1.00
H118   H     0.79301   0.58678   0.39462   0.00000  Uiso   1.00
H119   H     0.43439   0.54295   0.28050   0.00000  Uiso   1.00
H120   H     0.91925   0.66806   0.11360   0.00000  Uiso   1.00
H121   H     0.89674   0.60478   0.50972   0.00000  Uiso   1.00
H122   H     0.14052   0.51237   0.26908   0.00000  Uiso   1.00
H123   H     0.41980   0.71558   0.33005   0.00000  Uiso   1.00
H124   H     0.53958   0.75376   0.24382   0.00000  Uiso   1.00
H125   H     0.52892   0.72375   0.43169   0.00000  Uiso   1.00
H126   H     0.17031   0.67993   0.31757   0.00000  Uiso   1.00
H127   H     0.70491   0.77923   0.14368   0.00000  Uiso   1.00
H128   H     0.68239   0.71596   0.53981   0.00000  Uiso   1.00
H129   H     0.92618   0.62355   0.29917   0.00000  Uiso   1.00
O130   O     0.89543   0.74642   0.07129   0.00000  Uiso   1.00
O131   O     0.86587   0.66340   0.59100   0.00000  Uiso   1.00
O132   O     0.87374   0.54216   0.27528   0.00000  Uiso   1.00
N133   N     0.85234   0.68898   0.13250   0.00000  Uiso   1.00
N134   N     0.83131   0.62983   0.50286   0.00000  Uiso   1.00
N135   N     0.12432   0.54343   0.27789   0.00000  Uiso   1.00
N136   N     0.73701   0.74880   0.14869   0.00000  Uiso   1.00
N137   N     0.71598   0.68965   0.51905   0.00000  Uiso   1.00
N138   N     0.00898   0.60325   0.29408   0.00000  Uiso   1.00
C139   C     0.11279   0.11548   0.80296   0.00000  Uiso   1.00
C140   C     0.15061   0.15036   0.75993   0.00000  Uiso   1.00
C141   C     0.24666   0.14636   0.71474   0.00000  Uiso   1.00
C142   C     0.26648   0.18196   0.68022   0.00000  Uiso   1.00
C143   C     0.33646   0.23031   0.61185   0.00000  Uiso   1.00
C144   C     0.14483   0.13406   0.86200   0.00000  Uiso   1.00
C145   C     0.23602   0.11635   0.90264   0.00000  Uiso   1.00
C146   C     0.25095   0.13823   0.95403   0.00000  Uiso   1.00
C147   C     0.31189   0.16125   0.04415   0.00000  Uiso   1.00
C148   C     0.94999   0.11025   0.79999   0.00000  Uiso   1.00
C149   C     0.87734   0.07252   0.78850   0.00000  Uiso   1.00
C150   C     0.72823   0.07435   0.78771   0.00000  Uiso   1.00
C151   C     0.48664   0.06041   0.78154   0.00000  Uiso   1.00
C152   C     0.97715   0.18583   0.82200   0.00000  Uiso   1.00
C153   C     0.07694   0.18857   0.77028   0.00000  Uiso   1.00
C154   C     0.09660   0.22419   0.73581   0.00000  Uiso   1.00
C155   C     0.19267   0.22024   0.69058   0.00000  Uiso   1.00
C156   C     0.07117   0.17227   0.87235   0.00000  Uiso   1.00
C157   C     0.08596   0.19418   0.92370   0.00000  Uiso   1.00
C158   C     0.17715   0.17651   0.96440   0.00000  Uiso   1.00
C159   C     0.87632   0.14846   0.81033   0.00000  Uiso   1.00
C160   C     0.72728   0.15035   0.80956   0.00000  Uiso   1.00
C161   C     0.65443   0.11263   0.79807   0.00000  Uiso   1.00
H162   H     0.17015   0.08573   0.79491   0.00000  Uiso   1.00
H163   H     0.30367   0.11678   0.70676   0.00000  Uiso   1.00
H164   H     0.29301   0.08678   0.89462   0.00000  Uiso   1.00
H165   H     0.93439   0.04295   0.78050   0.00000  Uiso   1.00
H166   H     0.41925   0.16806   0.61360   0.00000  Uiso   1.00
H167   H     0.39674   0.10478   0.00972   0.00000  Uiso   1.00
H168   H     0.64052   0.01237   0.76908   0.00000  Uiso   1.00
H169   H     0.91980   0.21558   0.83005   0.00000  Uiso   1.00
H170   H     0.03958   0.25376   0.74382   0.00000  Uiso   1.00
H171   H     0.02892   0.22375   0.93169   0.00000  Uiso   1.00
H172   H     0.67031   0.17993   0.81757   0.00000  Uiso   1.00
H173   H     0.20491   0.27923   0.64368   0.00000  Uiso   1.00
H174   H     0.18239   0.21596   0.03981   0.00000  Uiso   1.00
H175   H     0.42618   0.12355   0.79917   0.00000  Uiso   1.00
O176   O     0.39543   0.24642   0.57129   0.00000  Uiso   1.00
O177   O     0.36587   0.16340   0.09100   0.00000  Uiso   1.00
O178   O     0.37374   0.04216   0.77528   0.00000  Uiso   1.00
N179   N     0.35234   0.18898   0.63250   0.00000  Uiso   1.00
N180   N     0.33131   0.12983   0.00286   0.00000  Uiso   1.00
N181   N     0.62432   0.04343   0.77789   0.00000  Uiso   1.00
N182   N     0.23701   0.24880   0.64869   0.00000  Uiso   1.00
N183   N     0.21598   0.18965   0.01905   0.00000  Uiso   1.00
N184   N     0.50898   0.10325   0.79408   0.00000  Uiso   1.00
C185   C     0.88721   0.11548   0.30296   0.00000  Uiso   1.00
C186   C     0.84939   0.15036   0.25993   0.00000  Uiso   1.00
C187   C     0.75334   0.14636   0.21474   0.00000  Uiso   1.00
C188   C     0.73352   0.18196   0.18022   0.00000  Uiso   1.00
C189   C     0.66354   0.23031   0.11185   0.00000  Uiso   1.00
C190   C     0.85517   0.13406   0.36200   0.00000  Uiso   1.00
C191   C     0.76398   0.11635   0.40264   0.00000  Uiso   1.00
C192   C     0.74905   0.13823   0.45403   0.00000  Uiso   1.00
C193   C     0.68811   0.16125   0.54415   0.00000  Uiso   1.00
C194   C     0.05001   0.11025   0.29999   0.00000  Uiso   1.00
C195   C     0.12266   0.07252   0.28850   0.00000  Uiso   1.00
C196   C     0.27177   0.07435   0.28771   0.00000  Uiso   1.00
C197   C     0.51336   0.06041   0.28154   0.00000  Uiso   1.00
C198   C     0.02285   0.18583   0.32200   0.00000  Uiso   1.00
C199   C     0.92306   0.18857   0.27028   0.00000  Uiso   1.00
C200   C     0.90340   0.22419   0.23581   0.00000  Uiso   1.00
C201   C     0.80733   0.22024   0.19058   0.00000  Uiso   1.00
C202   C     0.92883   0.17227   0.37235   0.00000  Uiso   1.00
C203   C     0.91404   0.19418   0.42370   0.00000  Uiso   1.00
C204   C     0.82285   0.17651   0.46440   0.00000  Uiso   1.00
C205   C     0.12368   0.14846   0.31033   0.00000  Uiso   1.00
C206   C     0.27272   0.15035   0.30956   0.00000  Uiso   1.00
C207   C     0.34557   0.11263   0.29807   0.00000  Uiso   1.00
H208   H     0.82985   0.08573   0.29491   0.00000  Uiso   1.00
H209   H     0.69633   0.11678   0.20676   0.00000  Uiso   1.00
H210   H     0.70699   0.08678   0.39462   0.00000  Uiso   1.00
H211   H     0.06561   0.04295   0.28050   0.00000  Uiso   1.00
H212   H     0.58075   0.16806   0.11360   0.00000  Uiso   1.00
H213   H     0.60326   0.10478   0.50972   0.00000  Uiso   1.00
H214   H     0.35948   0.01237   0.26908   0.00000  Uiso   1.00
H215   H     0.08020   0.21558   0.33005   0.00000  Uiso   1.00
H216   H     0.96042   0.25376   0.24382   0.00000  Uiso   1.00
H217   H     0.97108   0.22375   0.43169   0.00000  Uiso   1.00
H218   H     0.32969   0.17993   0.31757   0.00000  Uiso   1.00
H219   H     0.79509   0.27923   0.14368   0.00000  Uiso   1.00
H220   H     0.81761   0.21596   0.53981   0.00000  Uiso   1.00
H221   H     0.57382   0.12355   0.29917   0.00000  Uiso   1.00
O222   O     0.60457   0.24642   0.07129   0.00000  Uiso   1.00
O223   O     0.63413   0.16340   0.59100   0.00000  Uiso   1.00
O224   O     0.62626   0.04216   0.27528   0.00000  Uiso   1.00
N225   N     0.64766   0.18898   0.13250   0.00000  Uiso   1.00
N226   N     0.66869   0.12983   0.50286   0.00000  Uiso   1.00
N227   N     0.37568   0.04343   0.27789   0.00000  Uiso   1.00
N228   N     0.76299   0.24880   0.14869   0.00000  Uiso   1.00
N229   N     0.78402   0.18965   0.51905   0.00000  Uiso   1.00
N230   N     0.49102   0.10325   0.29408   0.00000  Uiso   1.00
C231   C     0.38721   0.61548   0.80296   0.00000  Uiso   1.00
C232   C     0.34939   0.65036   0.75993   0.00000  Uiso   1.00
C233   C     0.25334   0.64636   0.71474   0.00000  Uiso   1.00
C234   C     0.23352   0.68196   0.68022   0.00000  Uiso   1.00
C235   C     0.16354   0.73031   0.61185   0.00000  Uiso   1.00
C236   C     0.35517   0.63406   0.86200   0.00000  Uiso   1.00
C237   C     0.26398   0.61635   0.90264   0.00000  Uiso   1.00
C238   C     0.24905   0.63823   0.95403   0.00000  Uiso   1.00
C239   C     0.18811   0.66125   0.04415   0.00000  Uiso   1.00
C240   C     0.55001   0.61025   0.79999   0.00000  Uiso   1.00
C241   C     0.62266   0.57252   0.78850   0.00000  Uiso   1.00
C242   C     0.77177   0.57435   0.78771   0.00000  Uiso   1.00
C243   C     0.01336   0.56041   0.78154   0.00000  Uiso   1.00
C244   C     0.52285   0.68583   0.82200   0.00000  Uiso   1.00
C245   C     0.42306   0.68857   0.77028   0.00000  Uiso   1.00
C246   C     0.40340   0.72419   0.73581   0.00000  Uiso   1.00
C247   C     0.30733   0.72024   0.69058   0.00000  Uiso   1.00
C248   C     0.42883   0.67227   0.87235   0.00000  Uiso   1.00
C249   C     0.41404   0.69418   0.92370   0.00000  Uiso   1.00
C250   C     0.32285   0.67651   0.96440   0.00000  Uiso   1.00
C251   C     0.62368   0.64846   0.81033   0.00000  Uiso   1.00
C252   C     0.77272   0.65035   0.80956   0.00000  Uiso   1.00
C253   C     0.84557   0.61263   0.79807   0.00000  Uiso   1.00
H254   H     0.32985   0.58573   0.79491   0.00000  Uiso   1.00
H255   H     0.19633   0.61678   0.70676   0.00000  Uiso   1.00
H256   H     0.20699   0.58678   0.89462   0.00000  Uiso   1.00
H257   H     0.56561   0.54295   0.78050   0.00000  Uiso   1.00
H258   H     0.08075   0.66806   0.61360   0.00000  Uiso   1.00
H259   H     0.10326   0.60478   0.00972   0.00000  Uiso   1.00
H260   H     0.85948   0.51237   0.76908   0.00000  Uiso   1.00
H261   H     0.58020   0.71558   0.83005   0.00000  Uiso   1.00
H262   H     0.46042   0.75376   0.74382   0.00000  Uiso   1.00
H263   H     0.47108   0.72375   0.93169   0.00000  Uiso   1.00
H264   H     0.82969   0.67993   0.81757   0.00000  Uiso   1.00
H265   H     0.29509   0.77923   0.64368   0.00000  Uiso   1.00
H266   H     0.31761   0.71596   0.03981   0.00000  Uiso   1.00
H267   H     0.07382   0.62355   0.79917   0.00000  Uiso   1.00
O268   O     0.10457   0.74642   0.57129   0.00000  Uiso   1.00
O269   O     0.13413   0.66340   0.09100   0.00000  Uiso   1.00
O270   O     0.12626   0.54216   0.77528   0.00000  Uiso   1.00
N271   N     0.14766   0.68898   0.63250   0.00000  Uiso   1.00
N272   N     0.16869   0.62983   0.00286   0.00000  Uiso   1.00
N273   N     0.87568   0.54343   0.77789   0.00000  Uiso   1.00
N274   N     0.26299   0.74880   0.64869   0.00000  Uiso   1.00
N275   N     0.28402   0.68965   0.01905   0.00000  Uiso   1.00
N276   N     0.99102   0.60325   0.79408   0.00000  Uiso   1.00
C277   C     0.11279   0.88452   0.30296   0.00000  Uiso   1.00
C278   C     0.15061   0.84964   0.25993   0.00000  Uiso   1.00
C279   C     0.24666   0.85364   0.21474   0.00000  Uiso   1.00
C280   C     0.26648   0.81804   0.18022   0.00000  Uiso   1.00
C281   C     0.33646   0.76969   0.11185   0.00000  Uiso   1.00
C282   C     0.14483   0.86594   0.36200   0.00000  Uiso   1.00
C283   C     0.23602   0.88365   0.40264   0.00000  Uiso   1.00
C284   C     0.25095   0.86177   0.45403   0.00000  Uiso   1.00
C285   C     0.31189   0.83875   0.54415   0.00000  Uiso   1.00
C286   C     0.94999   0.88975   0.29999   0.00000  Uiso   1.00
C287   C     0.87734   0.92748   0.28850   0.00000  Uiso   1.00
C288   C     0.72823   0.92565   0.28771   0.00000  Uiso   1.00
C289   C     0.48664   0.93959   0.28154   0.00000  Uiso   1.00
C290   C     0.97715   0.81417   0.32200   0.00000  Uiso   1.00
C291   C     0.07694   0.81143   0.27028   0.00000  Uiso   1.00
C292   C     0.09660   0.77581   0.23581   0.00000  Uiso   1.00
C293   C     0.19267   0.77976   0.19058   0.00000  Uiso   1.00
C294   C     0.07117   0.82773   0.37235   0.00000  Uiso   1.00
C295   C     0.08596   0.80582   0.42370   0.00000  Uiso   1.00
C296   C     0.17715   0.82349   0.46440   0.00000  Uiso   1.00
C297   C     0.87632   0.85154   0.31033   0.00000  Uiso   1.00
C298   C     0.72728   0.84965   0.30956   0.00000  Uiso   1.00
C299   C     0.65443   0.88737   0.29807   0.00000  Uiso   1.00
H300   H     0.17015   0.91427   0.29491   0.00000  Uiso   1.00
H301   H     0.30367   0.88322   0.20676   0.00000  Uiso   1.00
H302   H     0.29301   0.91322   0.39462   0.00000  Uiso   1.00
H303   H     0.93439   0.95705   0.28050   0.00000  Uiso   1.00
H304   H     0.41925   0.83194   0.11360   0.00000  Uiso   1.00
H305   H     0.39674   0.89522   0.50972   0.00000  Uiso   1.00
H306   H     0.64052   0.98763   0.26908   0.00000  Uiso   1.00
H307   H     0.91980   0.78442   0.33005   0.00000  Uiso   1.00
H308   H     0.03958   0.74624   0.24382   0.00000  Uiso   1.00
H309   H     0.02892   0.77625   0.43169   0.00000  Uiso   1.00
H310   H     0.67031   0.82007   0.31757   0.00000  Uiso   1.00
H311   H     0.20491   0.72077   0.14368   0.00000  Uiso   1.00
H312   H     0.18239   0.78404   0.53981   0.00000  Uiso   1.00
H313   H     0.42618   0.87645   0.29917   0.00000  Uiso   1.00
O314   O     0.39543   0.75358   0.07129   0.00000  Uiso   1.00
O315   O     0.36587   0.83660   0.59100   0.00000  Uiso   1.00
O316   O     0.37374   0.95784   0.27528   0.00000  Uiso   1.00
N317   N     0.35234   0.81102   0.13250   0.00000  Uiso   1.00
N318   N     0.33131   0.87017   0.50286   0.00000  Uiso   1.00
N319   N     0.62432   0.95657   0.27789   0.00000  Uiso   1.00
N320   N     0.23701   0.75120   0.14869   0.00000  Uiso   1.00
N321   N     0.21598   0.81035   0.51905   0.00000  Uiso   1.00
N322   N     0.50898   0.89675   0.29408   0.00000  Uiso   1.00
C323   C     0.61279   0.38452   0.80296   0.00000  Uiso   1.00
C324   C     0.65061   0.34964   0.75993   0.00000  Uiso   1.00
C325   C     0.74666   0.35364   0.71474   0.00000  Uiso   1.00
C326   C     0.76648   0.31804   0.68022   0.00000  Uiso   1.00
C327   C     0.83646   0.26969   0.61185   0.00000  Uiso   1.00
C328   C     0.64483   0.36594   0.86200   0.00000  Uiso   1.00
C329   C     0.73602   0.38365   0.90264   0.00000  Uiso   1.00
C330   C     0.75095   0.36177   0.95403   0.00000  Uiso   1.00
C331   C     0.81189   0.33875   0.04415   0.00000  Uiso   1.00
C332   C     0.44999   0.38975   0.79999   0.00000  Uiso   1.00
C333   C     0.37734   0.42748   0.78850   0.00000  Uiso   1.00
C334   C     0.22823   0.42565   0.78771   0.00000  Uiso   1.00
C335   C     0.98664   0.43959   0.78154   0.00000  Uiso   1.00
C336   C     0.47715   0.31417   0.82200   0.00000  Uiso   1.00
C337   C     0.57694   0.31143   0.77028   0.00000  Uiso   1.00
C338   C     0.59660   0.27581   0.73581   0.00000  Uiso   1.00
C339   C     0.69267   0.27976   0.69058   0.00000  Uiso   1.00
C340   C     0.57117   0.32773   0.87235   0.00000  Uiso   1.00
C341   C     0.58596   0.30582   0.92370   0.00000  Uiso   1.00
C342   C     0.67715   0.32349   0.96440   0.00000  Uiso   1.00
C343   C     0.37632   0.35154   0.81033   0.00000  Uiso   1.00
C344   C     0.22728   0.34965   0.80956   0.00000  Uiso   1.00
C345   C     0.15443   0.38737   0.79807   0.00000  Uiso   1.00
H346   H     0.67015   0.41427   0.79491   0.00000  Uiso   1.00
H347   H     0.80367   0.38322   0.70676   0.00000  Uiso   1.00
H348   H     0.79301   0.41322   0.89462   0.00000  Uiso   1.00
H349   H     0.43439   0.45705   0.78050   0.00000  Uiso   1.00
H350   H     0.91925   0.33194   0.61360   0.00000  Uiso   1.00
H351   H     0.89674   0.39522   0.00972   0.00000  Uiso   1.00
H352   H     0.14052   0.48763   0.76908   0.00000  Uiso   1.00
H353   H     0.41980   0.28442   0.83005   0.00000  Uiso   1.00
H354   H     0.53958   0.24624   0.74382   0.00000  Uiso   1.00
H355   H     0.52892   0.27625   0.93169   0.00000  Uiso   1.00
H356   H     0.17031   0.32007   0.81757   0.00000  Uiso   1.00
H357   H     0.70491   0.22077   0.64368   0.00000  Uiso   1.00
H358   H     0.68239   0.28404   0.03981   0.00000  Uiso   1.00
H359   H     0.92618   0.37645   0.79917   0.00000  Uiso   1.00
O360   O     0.89543   0.25358   0.57129   0.00000  Uiso   1.00
O361   O     0.86587   0.33660   0.09100   0.00000  Uiso   1.00
O362   O     0.87374   0.45784   0.77528   0.00000  Uiso   1.00
N363   N     0.85234   0.31102   0.63250   0.00000  Uiso   1.00
N364   N     0.83131   0.37017   0.00286   0.00000  Uiso   1.00
N365   N     0.12432   0.45657   0.77789   0.00000  Uiso   1.00
N366   N     0.73701   0.25120   0.64869   0.00000  Uiso   1.00
N367   N     0.71598   0.31035   0.01905   0.00000  Uiso   1.00
N368   N     0.00898   0.39675   0.79408   0.00000  Uiso   1.00
