data_job_00228
_audit_creation_date              2018-12-19
_audit_creation_method            'Materials Studio'
_symmetry_space_group_name_H-M    'P1'
_symmetry_Int_Tables_number       1
_symmetry_cell_setting            triclinic
loop_
_symmetry_equiv_pos_as_xyz
  x,y,z
_cell_length_a                    23.2462
_cell_length_b                    10.1951
_cell_length_c                    9.5303
_cell_angle_alpha                 90.0000
_cell_angle_beta                  81.4610
_cell_angle_gamma                 90.0000
loop_
_atom_site_label
_atom_site_type_symbol
_atom_site_fract_x
_atom_site_fract_y
_atom_site_fract_z
_atom_site_U_iso_or_equiv
_atom_site_adp_type
_atom_site_occupancy
C1     C     0.38873   0.63195   0.60603   0.00000  Uiso   1.00
C2     C     0.32476   0.63359   0.67146   0.00000  Uiso   1.00
C3     C     0.29933   0.72014   0.77485   0.00000  Uiso   1.00
C4     C     0.24016   0.70554   0.82089   0.00000  Uiso   1.00
C5     C     0.14578   0.72291   0.93099   0.00000  Uiso   1.00
C6     C     0.41070   0.49409   0.63038   0.00000  Uiso   1.00
C7     C     0.45755   0.46335   0.69920   0.00000  Uiso   1.00
C8     C     0.47072   0.33132   0.71064   0.00000  Uiso   1.00
C9     C     0.50980   0.13211   0.75685   0.00000  Uiso   1.00
C10    C     0.38971   0.64492   0.44629   0.00000  Uiso   1.00
C11    C     0.41891   0.74098   0.36032   0.00000  Uiso   1.00
C12    C     0.41442   0.73592   0.21676   0.00000  Uiso   1.00
C13    C     0.42089   0.77089   0.97716   0.00000  Uiso   1.00
C14    C     0.32886   0.45211   0.50394   0.00000  Uiso   1.00
C15    C     0.29224   0.53590   0.61601   0.00000  Uiso   1.00
C16    C     0.23309   0.52117   0.66191   0.00000  Uiso   1.00
C17    C     0.20758   0.60769   0.76534   0.00000  Uiso   1.00
C18    C     0.37819   0.39641   0.57493   0.00000  Uiso   1.00
C19    C     0.39130   0.26438   0.58626   0.00000  Uiso   1.00
C20    C     0.43814   0.23346   0.65509   0.00000  Uiso   1.00
C21    C     0.35718   0.54724   0.39084   0.00000  Uiso   1.00
C22    C     0.35266   0.54201   0.24738   0.00000  Uiso   1.00
C23    C     0.38184   0.63806   0.16121   0.00000  Uiso   1.00
H24    H     0.41406   0.70799   0.64920   0.00000  Uiso   1.00
H25    H     0.32452   0.79572   0.81774   0.00000  Uiso   1.00
H26    H     0.48271   0.53897   0.74209   0.00000  Uiso   1.00
H27    H     0.44407   0.81656   0.40327   0.00000  Uiso   1.00
H28    H     0.21091   0.84987   0.98019   0.00000  Uiso   1.00
H29    H     0.54447   0.30850   0.82063   0.00000  Uiso   1.00
H30    H     0.46300   0.89385   0.10616   0.00000  Uiso   1.00
H31    H     0.30354   0.37606   0.46077   0.00000  Uiso   1.00
H32    H     0.20793   0.44557   0.61898   0.00000  Uiso   1.00
H33    H     0.36613   0.18882   0.54333   0.00000  Uiso   1.00
H34    H     0.32749   0.46641   0.20451   0.00000  Uiso   1.00
H35    H     0.11629   0.56567   0.81888   0.00000  Uiso   1.00
H36    H     0.44985   0.02430   0.65931   0.00000  Uiso   1.00
H37    H     0.36838   0.60966   0.94484   0.00000  Uiso   1.00
O38    O     0.10270   0.75946   0.00704   0.00000  Uiso   1.00
O39    O     0.54033   0.04921   0.79768   0.00000  Uiso   1.00
O40    O     0.43344   0.81718   0.86031   0.00000  Uiso   1.00
N41    N     0.20176   0.77346   0.92050   0.00000  Uiso   1.00
N42    N     0.51362   0.26731   0.77133   0.00000  Uiso   1.00
N43    N     0.43746   0.81455   0.10336   0.00000  Uiso   1.00
N44    N     0.15084   0.62054   0.83369   0.00000  Uiso   1.00
N45    N     0.46270   0.11439   0.68453   0.00000  Uiso   1.00
N46    N     0.38654   0.66162   0.01655   0.00000  Uiso   1.00
C47    C     0.88873   0.13195   0.60603   0.00000  Uiso   1.00
C48    C     0.82476   0.13359   0.67146   0.00000  Uiso   1.00
C49    C     0.79933   0.22014   0.77485   0.00000  Uiso   1.00
C50    C     0.74016   0.20554   0.82089   0.00000  Uiso   1.00
C51    C     0.64578   0.22291   0.93099   0.00000  Uiso   1.00
C52    C     0.91070   0.99409   0.63038   0.00000  Uiso   1.00
C53    C     0.95755   0.96335   0.69920   0.00000  Uiso   1.00
C54    C     0.97072   0.83132   0.71064   0.00000  Uiso   1.00
C55    C     0.00980   0.63211   0.75685   0.00000  Uiso   1.00
C56    C     0.88971   0.14492   0.44629   0.00000  Uiso   1.00
C57    C     0.91891   0.24098   0.36032   0.00000  Uiso   1.00
C58    C     0.91442   0.23592   0.21676   0.00000  Uiso   1.00
C59    C     0.92089   0.27089   0.97716   0.00000  Uiso   1.00
C60    C     0.82886   0.95211   0.50394   0.00000  Uiso   1.00
C61    C     0.79224   0.03590   0.61601   0.00000  Uiso   1.00
C62    C     0.73309   0.02117   0.66191   0.00000  Uiso   1.00
C63    C     0.70758   0.10769   0.76534   0.00000  Uiso   1.00
C64    C     0.87819   0.89641   0.57493   0.00000  Uiso   1.00
C65    C     0.89130   0.76438   0.58626   0.00000  Uiso   1.00
C66    C     0.93814   0.73346   0.65509   0.00000  Uiso   1.00
C67    C     0.85718   0.04724   0.39084   0.00000  Uiso   1.00
C68    C     0.85266   0.04201   0.24738   0.00000  Uiso   1.00
C69    C     0.88184   0.13806   0.16121   0.00000  Uiso   1.00
H70    H     0.91406   0.20799   0.64920   0.00000  Uiso   1.00
H71    H     0.82452   0.29572   0.81774   0.00000  Uiso   1.00
H72    H     0.98271   0.03897   0.74209   0.00000  Uiso   1.00
H73    H     0.94407   0.31656   0.40327   0.00000  Uiso   1.00
H74    H     0.71091   0.34987   0.98019   0.00000  Uiso   1.00
H75    H     0.04447   0.80850   0.82063   0.00000  Uiso   1.00
H76    H     0.96300   0.39385   0.10616   0.00000  Uiso   1.00
H77    H     0.80354   0.87606   0.46077   0.00000  Uiso   1.00
H78    H     0.70793   0.94557   0.61898   0.00000  Uiso   1.00
H79    H     0.86613   0.68882   0.54333   0.00000  Uiso   1.00
H80    H     0.82749   0.96641   0.20451   0.00000  Uiso   1.00
H81    H     0.61629   0.06567   0.81888   0.00000  Uiso   1.00
H82    H     0.94985   0.52430   0.65931   0.00000  Uiso   1.00
H83    H     0.86838   0.10966   0.94484   0.00000  Uiso   1.00
O84    O     0.60270   0.25946   0.00704   0.00000  Uiso   1.00
O85    O     0.04033   0.54921   0.79768   0.00000  Uiso   1.00
O86    O     0.93344   0.31718   0.86031   0.00000  Uiso   1.00
N87    N     0.70176   0.27346   0.92050   0.00000  Uiso   1.00
N88    N     0.01362   0.76731   0.77133   0.00000  Uiso   1.00
N89    N     0.93746   0.31455   0.10336   0.00000  Uiso   1.00
N90    N     0.65084   0.12054   0.83369   0.00000  Uiso   1.00
N91    N     0.96270   0.61439   0.68453   0.00000  Uiso   1.00
N92    N     0.88654   0.16162   0.01655   0.00000  Uiso   1.00
C93    C     0.61127   0.63195   0.39397   0.00000  Uiso   1.00
C94    C     0.67524   0.63359   0.32854   0.00000  Uiso   1.00
C95    C     0.70067   0.72014   0.22515   0.00000  Uiso   1.00
C96    C     0.75984   0.70554   0.17911   0.00000  Uiso   1.00
C97    C     0.85422   0.72291   0.06901   0.00000  Uiso   1.00
C98    C     0.58930   0.49409   0.36962   0.00000  Uiso   1.00
C99    C     0.54245   0.46335   0.30080   0.00000  Uiso   1.00
C100   C     0.52928   0.33132   0.28936   0.00000  Uiso   1.00
C101   C     0.49020   0.13211   0.24315   0.00000  Uiso   1.00
C102   C     0.61029   0.64492   0.55371   0.00000  Uiso   1.00
C103   C     0.58109   0.74098   0.63968   0.00000  Uiso   1.00
C104   C     0.58558   0.73592   0.78324   0.00000  Uiso   1.00
C105   C     0.57911   0.77089   0.02284   0.00000  Uiso   1.00
C106   C     0.67114   0.45211   0.49606   0.00000  Uiso   1.00
C107   C     0.70776   0.53590   0.38399   0.00000  Uiso   1.00
C108   C     0.76691   0.52117   0.33809   0.00000  Uiso   1.00
C109   C     0.79242   0.60769   0.23466   0.00000  Uiso   1.00
C110   C     0.62181   0.39641   0.42507   0.00000  Uiso   1.00
C111   C     0.60870   0.26438   0.41374   0.00000  Uiso   1.00
C112   C     0.56186   0.23346   0.34491   0.00000  Uiso   1.00
C113   C     0.64282   0.54724   0.60916   0.00000  Uiso   1.00
C114   C     0.64734   0.54201   0.75262   0.00000  Uiso   1.00
C115   C     0.61816   0.63806   0.83879   0.00000  Uiso   1.00
H116   H     0.58594   0.70799   0.35080   0.00000  Uiso   1.00
H117   H     0.67548   0.79572   0.18226   0.00000  Uiso   1.00
H118   H     0.51729   0.53897   0.25791   0.00000  Uiso   1.00
H119   H     0.55593   0.81656   0.59673   0.00000  Uiso   1.00
H120   H     0.78909   0.84987   0.01981   0.00000  Uiso   1.00
H121   H     0.45553   0.30850   0.17937   0.00000  Uiso   1.00
H122   H     0.53700   0.89385   0.89384   0.00000  Uiso   1.00
H123   H     0.69646   0.37606   0.53923   0.00000  Uiso   1.00
H124   H     0.79207   0.44557   0.38102   0.00000  Uiso   1.00
H125   H     0.63387   0.18882   0.45667   0.00000  Uiso   1.00
H126   H     0.67251   0.46641   0.79549   0.00000  Uiso   1.00
H127   H     0.88371   0.56567   0.18112   0.00000  Uiso   1.00
H128   H     0.55015   0.02430   0.34069   0.00000  Uiso   1.00
H129   H     0.63162   0.60966   0.05516   0.00000  Uiso   1.00
O130   O     0.89730   0.75946   0.99296   0.00000  Uiso   1.00
O131   O     0.45967   0.04921   0.20232   0.00000  Uiso   1.00
O132   O     0.56656   0.81718   0.13969   0.00000  Uiso   1.00
N133   N     0.79824   0.77346   0.07950   0.00000  Uiso   1.00
N134   N     0.48638   0.26731   0.22867   0.00000  Uiso   1.00
N135   N     0.56254   0.81455   0.89664   0.00000  Uiso   1.00
N136   N     0.84916   0.62054   0.16631   0.00000  Uiso   1.00
N137   N     0.53730   0.11439   0.31547   0.00000  Uiso   1.00
N138   N     0.61346   0.66162   0.98345   0.00000  Uiso   1.00
C139   C     0.11127   0.13195   0.39397   0.00000  Uiso   1.00
C140   C     0.17524   0.13359   0.32854   0.00000  Uiso   1.00
C141   C     0.20067   0.22014   0.22515   0.00000  Uiso   1.00
C142   C     0.25984   0.20554   0.17911   0.00000  Uiso   1.00
C143   C     0.35422   0.22291   0.06901   0.00000  Uiso   1.00
C144   C     0.08930   0.99409   0.36962   0.00000  Uiso   1.00
C145   C     0.04245   0.96335   0.30080   0.00000  Uiso   1.00
C146   C     0.02928   0.83132   0.28936   0.00000  Uiso   1.00
C147   C     0.99020   0.63211   0.24315   0.00000  Uiso   1.00
C148   C     0.11029   0.14492   0.55371   0.00000  Uiso   1.00
C149   C     0.08109   0.24098   0.63968   0.00000  Uiso   1.00
C150   C     0.08558   0.23592   0.78324   0.00000  Uiso   1.00
C151   C     0.07911   0.27089   0.02284   0.00000  Uiso   1.00
C152   C     0.17114   0.95211   0.49606   0.00000  Uiso   1.00
C153   C     0.20776   0.03590   0.38399   0.00000  Uiso   1.00
C154   C     0.26691   0.02117   0.33809   0.00000  Uiso   1.00
C155   C     0.29242   0.10769   0.23466   0.00000  Uiso   1.00
C156   C     0.12181   0.89641   0.42507   0.00000  Uiso   1.00
C157   C     0.10870   0.76438   0.41374   0.00000  Uiso   1.00
C158   C     0.06186   0.73346   0.34491   0.00000  Uiso   1.00
C159   C     0.14282   0.04724   0.60916   0.00000  Uiso   1.00
C160   C     0.14734   0.04201   0.75262   0.00000  Uiso   1.00
C161   C     0.11816   0.13806   0.83879   0.00000  Uiso   1.00
H162   H     0.08594   0.20799   0.35080   0.00000  Uiso   1.00
H163   H     0.17548   0.29572   0.18226   0.00000  Uiso   1.00
H164   H     0.01729   0.03897   0.25791   0.00000  Uiso   1.00
H165   H     0.05593   0.31656   0.59673   0.00000  Uiso   1.00
H166   H     0.28909   0.34987   0.01981   0.00000  Uiso   1.00
H167   H     0.95553   0.80850   0.17937   0.00000  Uiso   1.00
H168   H     0.03700   0.39385   0.89384   0.00000  Uiso   1.00
H169   H     0.19646   0.87606   0.53923   0.00000  Uiso   1.00
H170   H     0.29207   0.94557   0.38102   0.00000  Uiso   1.00
H171   H     0.13387   0.68882   0.45667   0.00000  Uiso   1.00
H172   H     0.17251   0.96641   0.79549   0.00000  Uiso   1.00
H173   H     0.38371   0.06567   0.18112   0.00000  Uiso   1.00
H174   H     0.05015   0.52430   0.34069   0.00000  Uiso   1.00
H175   H     0.13162   0.10966   0.05516   0.00000  Uiso   1.00
O176   O     0.39730   0.25946   0.99296   0.00000  Uiso   1.00
O177   O     0.95967   0.54921   0.20232   0.00000  Uiso   1.00
O178   O     0.06656   0.31718   0.13969   0.00000  Uiso   1.00
N179   N     0.29824   0.27346   0.07950   0.00000  Uiso   1.00
N180   N     0.98638   0.76731   0.22867   0.00000  Uiso   1.00
N181   N     0.06254   0.31455   0.89664   0.00000  Uiso   1.00
N182   N     0.34916   0.12054   0.16631   0.00000  Uiso   1.00
N183   N     0.03730   0.61439   0.31547   0.00000  Uiso   1.00
N184   N     0.11346   0.16162   0.98345   0.00000  Uiso   1.00
