data_job_06707
_audit_creation_date              2018-12-19
_audit_creation_method            'Materials Studio'
_symmetry_space_group_name_H-M    'P1'
_symmetry_Int_Tables_number       1
_symmetry_cell_setting            triclinic
loop_
_symmetry_equiv_pos_as_xyz
  x,y,z
_cell_length_a                    18.6320
_cell_length_b                    20.4961
_cell_length_c                    21.0853
_cell_angle_alpha                 73.0217
_cell_angle_beta                  71.0237
_cell_angle_gamma                 69.9621
loop_
_atom_site_label
_atom_site_type_symbol
_atom_site_fract_x
_atom_site_fract_y
_atom_site_fract_z
_atom_site_U_iso_or_equiv
_atom_site_adp_type
_atom_site_occupancy
C1     C     0.65301   0.25923   0.50549   0.00000  Uiso   1.00
C2     C     0.64394   0.27725   0.57342   0.00000  Uiso   1.00
C3     C     0.58786   0.33408   0.59987   0.00000  Uiso   1.00
C4     C     0.58932   0.34144   0.66281   0.00000  Uiso   1.00
C5     C     0.56681   0.37671   0.76292   0.00000  Uiso   1.00
C6     C     0.73779   0.25691   0.46474   0.00000  Uiso   1.00
C7     C     0.76061   0.29663   0.39980   0.00000  Uiso   1.00
C8     C     0.84108   0.28687   0.37124   0.00000  Uiso   1.00
C9     C     0.96427   0.29052   0.30260   0.00000  Uiso   1.00
C10    C     0.64741   0.18324   0.52267   0.00000  Uiso   1.00
C11    C     0.59427   0.16101   0.50643   0.00000  Uiso   1.00
C12    C     0.59865   0.08921   0.52664   0.00000  Uiso   1.00
C13    C     0.58152   0.97848   0.54795   0.00000  Uiso   1.00
C14    C     0.75531   0.17124   0.57023   0.00000  Uiso   1.00
C15    C     0.69951   0.22945   0.60859   0.00000  Uiso   1.00
C16    C     0.70105   0.23673   0.67150   0.00000  Uiso   1.00
C17    C     0.64498   0.29357   0.69804   0.00000  Uiso   1.00
C18    C     0.79335   0.20912   0.49990   0.00000  Uiso   1.00
C19    C     0.87380   0.19929   0.47143   0.00000  Uiso   1.00
C20    C     0.89674   0.23899   0.40647   0.00000  Uiso   1.00
C21    C     0.70298   0.13544   0.55784   0.00000  Uiso   1.00
C22    C     0.70745   0.06366   0.57806   0.00000  Uiso   1.00
C23    C     0.65432   0.04133   0.56186   0.00000  Uiso   1.00
H24    H     0.60975   0.29644   0.47811   0.00000  Uiso   1.00
H25    H     0.54487   0.37106   0.57264   0.00000  Uiso   1.00
H26    H     0.71760   0.33361   0.37260   0.00000  Uiso   1.00
H27    H     0.55128   0.19801   0.47922   0.00000  Uiso   1.00
H28    H     0.49747   0.43273   0.69294   0.00000  Uiso   1.00
H29    H     0.86167   0.35375   0.27113   0.00000  Uiso   1.00
H30    H     0.51094   0.06781   0.49596   0.00000  Uiso   1.00
H31    H     0.79857   0.13403   0.59761   0.00000  Uiso   1.00
H32    H     0.74405   0.19974   0.69870   0.00000  Uiso   1.00
H33    H     0.91678   0.16229   0.49865   0.00000  Uiso   1.00
H34    H     0.75046   0.02670   0.60528   0.00000  Uiso   1.00
H35    H     0.65913   0.29368   0.79525   0.00000  Uiso   1.00
H36    H     0.02334   0.21470   0.37344   0.00000  Uiso   1.00
H37    H     0.67261   0.92876   0.59827   0.00000  Uiso   1.00
O38    O     0.53905   0.40938   0.80843   0.00000  Uiso   1.00
O39    O     0.01686   0.30575   0.25503   0.00000  Uiso   1.00
O40    O     0.55671   0.93061   0.55000   0.00000  Uiso   1.00
N41    N     0.54299   0.39098   0.70315   0.00000  Uiso   1.00
N42    N     0.88350   0.31715   0.30879   0.00000  Uiso   1.00
N43    N     0.55561   0.04981   0.51897   0.00000  Uiso   1.00
N44    N     0.62998   0.31616   0.75820   0.00000  Uiso   1.00
N45    N     0.97049   0.24233   0.36384   0.00000  Uiso   1.00
N46    N     0.64260   0.97499   0.57402   0.00000  Uiso   1.00
C47    C     0.69299   0.54400   0.52450   0.00000  Uiso   1.00
C48    C     0.66803   0.61700   0.47989   0.00000  Uiso   1.00
C49    C     0.60987   0.63856   0.44464   0.00000  Uiso   1.00
C50    C     0.59584   0.70748   0.40665   0.00000  Uiso   1.00
C51    C     0.55062   0.81388   0.33776   0.00000  Uiso   1.00
C52    C     0.78148   0.51566   0.49549   0.00000  Uiso   1.00
C53    C     0.81871   0.45200   0.47336   0.00000  Uiso   1.00
C54    C     0.90018   0.43560   0.44851   0.00000  Uiso   1.00
C55    C     0.03111   0.38463   0.40387   0.00000  Uiso   1.00
C56    C     0.68325   0.55695   0.59484   0.00000  Uiso   1.00
C57    C     0.63791   0.52799   0.65626   0.00000  Uiso   1.00
C58    C     0.63669   0.54635   0.71506   0.00000  Uiso   1.00
C59    C     0.61511   0.55949   0.82469   0.00000  Uiso   1.00
C60    C     0.77148   0.62806   0.51973   0.00000  Uiso   1.00
C61    C     0.71066   0.66266   0.47730   0.00000  Uiso   1.00
C62    C     0.69671   0.73157   0.43936   0.00000  Uiso   1.00
C63    C     0.63854   0.75322   0.40406   0.00000  Uiso   1.00
C64    C     0.82411   0.56131   0.49290   0.00000  Uiso   1.00
C65    C     0.90555   0.54501   0.46808   0.00000  Uiso   1.00
C66    C     0.94290   0.48134   0.44591   0.00000  Uiso   1.00
C67    C     0.72588   0.60261   0.59226   0.00000  Uiso   1.00
C68    C     0.72475   0.62100   0.65098   0.00000  Uiso   1.00
C69    C     0.67941   0.59209   0.71247   0.00000  Uiso   1.00
H70    H     0.65980   0.50845   0.52651   0.00000  Uiso   1.00
H71    H     0.57689   0.60321   0.44665   0.00000  Uiso   1.00
H72    H     0.78570   0.41667   0.47537   0.00000  Uiso   1.00
H73    H     0.60492   0.49266   0.65824   0.00000  Uiso   1.00
H74    H     0.50380   0.72839   0.35694   0.00000  Uiso   1.00
H75    H     0.94409   0.33506   0.41753   0.00000  Uiso   1.00
H76    H     0.56288   0.49529   0.80314   0.00000  Uiso   1.00
H77    H     0.80468   0.66361   0.51772   0.00000  Uiso   1.00
H78    H     0.72971   0.76689   0.43737   0.00000  Uiso   1.00
H79    H     0.93853   0.58035   0.46609   0.00000  Uiso   1.00
H80    H     0.75775   0.65634   0.64896   0.00000  Uiso   1.00
H81    H     0.62784   0.86124   0.34941   0.00000  Uiso   1.00
H82    H     0.06813   0.46791   0.40999   0.00000  Uiso   1.00
H83    H     0.68692   0.62814   0.79561   0.00000  Uiso   1.00
O84    O     0.51391   0.85995   0.30046   0.00000  Uiso   1.00
O85    O     0.09155   0.34391   0.37996   0.00000  Uiso   1.00
O86    O     0.59141   0.55413   0.88587   0.00000  Uiso   1.00
N87    N     0.54327   0.74549   0.36621   0.00000  Uiso   1.00
N88    N     0.95491   0.37775   0.42284   0.00000  Uiso   1.00
N89    N     0.59853   0.52754   0.78336   0.00000  Uiso   1.00
N90    N     0.61001   0.81697   0.36215   0.00000  Uiso   1.00
N91    N     0.02165   0.44924   0.41879   0.00000  Uiso   1.00
N92    N     0.66527   0.59903   0.77931   0.00000  Uiso   1.00
C93    C     0.70662   0.56745   0.26575   0.00000  Uiso   1.00
C94    C     0.67220   0.50677   0.27462   0.00000  Uiso   1.00
C95    C     0.62060   0.48101   0.33328   0.00000  Uiso   1.00
C96    C     0.59588   0.42519   0.33116   0.00000  Uiso   1.00
C97    C     0.53851   0.33536   0.35388   0.00000  Uiso   1.00
C98    C     0.79602   0.53736   0.24529   0.00000  Uiso   1.00
C99    C     0.84854   0.53733   0.27927   0.00000  Uiso   1.00
C100   C     0.92806   0.50727   0.25245   0.00000  Uiso   1.00
C101   C     0.06294   0.46498   0.22959   0.00000  Uiso   1.00
C102   C     0.68443   0.62166   0.20328   0.00000  Uiso   1.00
C103   C     0.64313   0.69251   0.20193   0.00000  Uiso   1.00
C104   C     0.62872   0.73343   0.13973   0.00000  Uiso   1.00
C105   C     0.59033   0.82202   0.05166   0.00000  Uiso   1.00
C106   C     0.75447   0.51413   0.15767   0.00000  Uiso   1.00
C107   C     0.69819   0.47781   0.21592   0.00000  Uiso   1.00
C108   C     0.67354   0.42202   0.21371   0.00000  Uiso   1.00
C109   C     0.62191   0.39618   0.27235   0.00000  Uiso   1.00
C110   C     0.82202   0.50840   0.18659   0.00000  Uiso   1.00
C111   C     0.90148   0.47834   0.15970   0.00000  Uiso   1.00
C112   C     0.95410   0.47825   0.19364   0.00000  Uiso   1.00
C113   C     0.71042   0.59270   0.14457   0.00000  Uiso   1.00
C114   C     0.69607   0.63352   0.08236   0.00000  Uiso   1.00
C115   C     0.65475   0.70441   0.08093   0.00000  Uiso   1.00
H116   H     0.68639   0.59000   0.31145   0.00000  Uiso   1.00
H117   H     0.60050   0.50343   0.37870   0.00000  Uiso   1.00
H118   H     0.82841   0.55975   0.32470   0.00000  Uiso   1.00
H119   H     0.62303   0.71490   0.24737   0.00000  Uiso   1.00
H120   H     0.51677   0.39467   0.42738   0.00000  Uiso   1.00
H121   H     0.99732   0.51345   0.31350   0.00000  Uiso   1.00
H122   H     0.56424   0.84062   0.15044   0.00000  Uiso   1.00
H123   H     0.77471   0.49158   0.11197   0.00000  Uiso   1.00
H124   H     0.69367   0.39962   0.16827   0.00000  Uiso   1.00
H125   H     0.92157   0.45593   0.11427   0.00000  Uiso   1.00
H126   H     0.71619   0.61109   0.03695   0.00000  Uiso   1.00
H127   H     0.59239   0.31041   0.25659   0.00000  Uiso   1.00
H128   H     0.07294   0.42919   0.14271   0.00000  Uiso   1.00
H129   H     0.63986   0.75635   0.97965   0.00000  Uiso   1.00
O130   O     0.49970   0.29380   0.38263   0.00000  Uiso   1.00
O131   O     0.13016   0.44965   0.23321   0.00000  Uiso   1.00
O132   O     0.56196   0.87888   0.01929   0.00000  Uiso   1.00
N133   N     0.54568   0.38747   0.37945   0.00000  Uiso   1.00
N134   N     0.99496   0.49851   0.27299   0.00000  Uiso   1.00
N135   N     0.59009   0.80439   0.12054   0.00000  Uiso   1.00
N136   N     0.58636   0.34213   0.28755   0.00000  Uiso   1.00
N137   N     0.03565   0.45317   0.18108   0.00000  Uiso   1.00
N138   N     0.63077   0.75905   0.02864   0.00000  Uiso   1.00
C139   C     0.20176   0.76922   0.05037   0.00000  Uiso   1.00
C140   C     0.16225   0.76307   0.00018   0.00000  Uiso   1.00
C141   C     0.10715   0.81741   0.97004   0.00000  Uiso   1.00
C142   C     0.07801   0.80109   0.92552   0.00000  Uiso   1.00
C143   C     0.01287   0.80193   0.84967   0.00000  Uiso   1.00
C144   C     0.29037   0.74567   0.01907   0.00000  Uiso   1.00
C145   C     0.34298   0.78539   0.00481   0.00000  Uiso   1.00
C146   C     0.42168   0.75441   0.97620   0.00000  Uiso   1.00
C147   C     0.55545   0.72822   0.92972   0.00000  Uiso   1.00
C148   C     0.18434   0.71281   0.11440   0.00000  Uiso   1.00
C149   C     0.14783   0.72489   0.18031   0.00000  Uiso   1.00
C150   C     0.13728   0.66624   0.23196   0.00000  Uiso   1.00
C151   C     0.10644   0.58904   0.33350   0.00000  Uiso   1.00
C152   C     0.24798   0.64358   0.02491   0.00000  Uiso   1.00
C153   C     0.18736   0.69483   0.98635   0.00000  Uiso   1.00
C154   C     0.15829   0.67841   0.94187   0.00000  Uiso   1.00
C155   C     0.10315   0.73272   0.91167   0.00000  Uiso   1.00
C156   C     0.31547   0.67743   0.00524   0.00000  Uiso   1.00
C157   C     0.39412   0.64639   0.97664   0.00000  Uiso   1.00
C158   C     0.44683   0.68604   0.96234   0.00000  Uiso   1.00
C159   C     0.20945   0.64457   0.10057   0.00000  Uiso   1.00
C160   C     0.19897   0.58589   0.15213   0.00000  Uiso   1.00
C161   C     0.16244   0.59788   0.21811   0.00000  Uiso   1.00
H162   H     0.18222   0.82234   0.06113   0.00000  Uiso   1.00
H163   H     0.08774   0.87022   0.98075   0.00000  Uiso   1.00
H164   H     0.32353   0.83819   0.01553   0.00000  Uiso   1.00
H165   H     0.12841   0.77771   0.19099   0.00000  Uiso   1.00
H166   H     0.99409   0.89321   0.88551   0.00000  Uiso   1.00
H167   H     0.49127   0.82567   0.95886   0.00000  Uiso   1.00
H168   H     0.07982   0.69813   0.32887   0.00000  Uiso   1.00
H169   H     0.26753   0.59045   0.01414   0.00000  Uiso   1.00
H170   H     0.17773   0.62560   0.93118   0.00000  Uiso   1.00
H171   H     0.41353   0.59357   0.96595   0.00000  Uiso   1.00
H172   H     0.21840   0.53309   0.14141   0.00000  Uiso   1.00
H173   H     0.06713   0.69467   0.84527   0.00000  Uiso   1.00
H174   H     0.56432   0.62713   0.91862   0.00000  Uiso   1.00
H175   H     0.15286   0.49959   0.28863   0.00000  Uiso   1.00
O176   O     0.97002   0.82125   0.81165   0.00000  Uiso   1.00
O177   O     0.62230   0.73264   0.90789   0.00000  Uiso   1.00
O178   O     0.08248   0.56531   0.39332   0.00000  Uiso   1.00
N179   N     0.02359   0.84165   0.88744   0.00000  Uiso   1.00
N180   N     0.48843   0.77851   0.95600   0.00000  Uiso   1.00
N181   N     0.10377   0.65927   0.30193   0.00000  Uiso   1.00
N182   N     0.06289   0.73482   0.86579   0.00000  Uiso   1.00
N183   N     0.52773   0.67168   0.93435   0.00000  Uiso   1.00
N184   N     0.14307   0.55244   0.28028   0.00000  Uiso   1.00
C185   C     0.16628   0.97032   0.78264   0.00000  Uiso   1.00
C186   C     0.15630   0.04683   0.78446   0.00000  Uiso   1.00
C187   C     0.11788   0.07829   0.84097   0.00000  Uiso   1.00
C188   C     0.11512   0.14885   0.83220   0.00000  Uiso   1.00
C189   C     0.09442   0.26190   0.84462   0.00000  Uiso   1.00
C190   C     0.25481   0.93738   0.75878   0.00000  Uiso   1.00
C191   C     0.29921   0.87682   0.79370   0.00000  Uiso   1.00
C192   C     0.37938   0.85525   0.76329   0.00000  Uiso   1.00
C193   C     0.51161   0.79835   0.73582   0.00000  Uiso   1.00
C194   C     0.13119   0.97430   0.72514   0.00000  Uiso   1.00
C195   C     0.07167   0.94476   0.73177   0.00000  Uiso   1.00
C196   C     0.04777   0.95426   0.67304   0.00000  Uiso   1.00
C197   C     0.98807   0.95469   0.59334   0.00000  Uiso   1.00
C198   C     0.22970   0.03970   0.66655   0.00000  Uiso   1.00
C199   C     0.19075   0.08451   0.72140   0.00000  Uiso   1.00
C200   C     0.18805   0.15505   0.71254   0.00000  Uiso   1.00
C201   C     0.14963   0.18660   0.76903   0.00000  Uiso   1.00
C202   C     0.28926   0.97507   0.69572   0.00000  Uiso   1.00
C203   C     0.36938   0.95358   0.66526   0.00000  Uiso   1.00
C204   C     0.41389   0.89300   0.70013   0.00000  Uiso   1.00
C205   C     0.16564   0.01199   0.66208   0.00000  Uiso   1.00
C206   C     0.14184   0.02153   0.60333   0.00000  Uiso   1.00
C207   C     0.08228   0.99201   0.60987   0.00000  Uiso   1.00
H208   H     0.13946   0.94098   0.83173   0.00000  Uiso   1.00
H209   H     0.09123   0.04910   0.88977   0.00000  Uiso   1.00
H210   H     0.27253   0.84766   0.84249   0.00000  Uiso   1.00
H211   H     0.04502   0.91560   0.78057   0.00000  Uiso   1.00
H212   H     0.05298   0.18558   0.92631   0.00000  Uiso   1.00
H213   H     0.43526   0.76083   0.82661   0.00000  Uiso   1.00
H214   H     0.95551   0.90408   0.69605   0.00000  Uiso   1.00
H215   H     0.25652   0.06904   0.61746   0.00000  Uiso   1.00
H216   H     0.21471   0.18419   0.66374   0.00000  Uiso   1.00
H217   H     0.39602   0.98275   0.61646   0.00000  Uiso   1.00
H218   H     0.16851   0.05069   0.55455   0.00000  Uiso   1.00
H219   H     0.15320   0.29523   0.74285   0.00000  Uiso   1.00
H220   H     0.53548   0.87047   0.64316   0.00000  Uiso   1.00
H221   H     0.05574   0.01373   0.51260   0.00000  Uiso   1.00
O222   O     0.07350   0.31384   0.86889   0.00000  Uiso   1.00
O223   O     0.57503   0.75656   0.73809   0.00000  Uiso   1.00
O224   O     0.94561   0.94452   0.56680   0.00000  Uiso   1.00
N225   N     0.08229   0.19559   0.87678   0.00000  Uiso   1.00
N226   N     0.43970   0.79847   0.78357   0.00000  Uiso   1.00
N227   N     0.99119   0.93239   0.66150   0.00000  Uiso   1.00
N228   N     0.13622   0.25459   0.77806   0.00000  Uiso   1.00
N229   N     0.49363   0.85747   0.68486   0.00000  Uiso   1.00
N230   N     0.04512   0.99139   0.56279   0.00000  Uiso   1.00
C231   C     0.18186   0.06144   0.02345   0.00000  Uiso   1.00
C232   C     0.16063   0.01197   0.09211   0.00000  Uiso   1.00
C233   C     0.09805   0.98199   0.11399   0.00000  Uiso   1.00
C234   C     0.08857   0.93816   0.17851   0.00000  Uiso   1.00
C235   C     0.04783   0.86334   0.27885   0.00000  Uiso   1.00
C236   C     0.26728   0.02680   0.98984   0.00000  Uiso   1.00
C237   C     0.29437   0.00930   0.92573   0.00000  Uiso   1.00
C238   C     0.37467   0.97796   0.90416   0.00000  Uiso   1.00
C239   C     0.49952   0.92622   0.84570   0.00000  Uiso   1.00
C240   C     0.18240   0.12873   0.04025   0.00000  Uiso   1.00
C241   C     0.13813   0.19694   0.01852   0.00000  Uiso   1.00
C242   C     0.14699   0.25142   0.03937   0.00000  Uiso   1.00
C243   C     0.14005   0.35794   0.05919   0.00000  Uiso   1.00
C244   C     0.27632   0.03692   0.09912   0.00000  Uiso   1.00
C245   C     0.21194   0.99865   0.13321   0.00000  Uiso   1.00
C246   C     0.20256   0.95486   0.19771   0.00000  Uiso   1.00
C247   C     0.13997   0.92481   0.21969   0.00000  Uiso   1.00
C248   C     0.31859   0.01348   0.03094   0.00000  Uiso   1.00
C249   C     0.39888   0.98217   0.00945   0.00000  Uiso   1.00
C250   C     0.42608   0.96461   0.94533   0.00000  Uiso   1.00
C251   C     0.23371   0.11541   0.08135   0.00000  Uiso   1.00
C252   C     0.24264   0.16980   0.10224   0.00000  Uiso   1.00
C253   C     0.19840   0.23808   0.08054   0.00000  Uiso   1.00
H254   H     0.14192   0.07181   0.99145   0.00000  Uiso   1.00
H255   H     0.05836   0.99230   0.08217   0.00000  Uiso   1.00
H256   H     0.25465   0.01962   0.89394   0.00000  Uiso   1.00
H257   H     0.09844   0.20722   0.98671   0.00000  Uiso   1.00
H258   H     0.98836   0.89826   0.20086   0.00000  Uiso   1.00
H259   H     0.40225   0.95588   0.80395   0.00000  Uiso   1.00
H260   H     0.07285   0.35149   0.99959   0.00000  Uiso   1.00
H261   H     0.31627   0.02655   0.13112   0.00000  Uiso   1.00
H262   H     0.24227   0.94456   0.22950   0.00000  Uiso   1.00
H263   H     0.43857   0.97187   0.04127   0.00000  Uiso   1.00
H264   H     0.28236   0.15948   0.13404   0.00000  Uiso   1.00
H265   H     0.13764   0.85951   0.32044   0.00000  Uiso   1.00
H266   H     0.55153   0.91713   0.92353   0.00000  Uiso   1.00
H267   H     0.22213   0.31273   0.11917   0.00000  Uiso   1.00
O268   O     0.01119   0.82575   0.32284   0.00000  Uiso   1.00
O269   O     0.55420   0.90135   0.80211   0.00000  Uiso   1.00
O270   O     0.12204   0.42038   0.05878   0.00000  Uiso   1.00
N271   N     0.03364   0.90041   0.21551   0.00000  Uiso   1.00
N272   N     0.42060   0.95426   0.84442   0.00000  Uiso   1.00
N273   N     0.11265   0.32412   0.02731   0.00000  Uiso   1.00
N274   N     0.11396   0.87955   0.27985   0.00000  Uiso   1.00
N275   N     0.50092   0.93341   0.90877   0.00000  Uiso   1.00
N276   N     0.19298   0.30327   0.09166   0.00000  Uiso   1.00
C277   C     0.34699   0.74077   0.49451   0.00000  Uiso   1.00
C278   C     0.35606   0.72275   0.42658   0.00000  Uiso   1.00
C279   C     0.41214   0.66592   0.40013   0.00000  Uiso   1.00
C280   C     0.41068   0.65856   0.33719   0.00000  Uiso   1.00
C281   C     0.43319   0.62329   0.23708   0.00000  Uiso   1.00
C282   C     0.26221   0.74309   0.53526   0.00000  Uiso   1.00
C283   C     0.23939   0.70337   0.60020   0.00000  Uiso   1.00
C284   C     0.15892   0.71313   0.62876   0.00000  Uiso   1.00
C285   C     0.03573   0.70948   0.69740   0.00000  Uiso   1.00
C286   C     0.35259   0.81676   0.47733   0.00000  Uiso   1.00
C287   C     0.40573   0.83899   0.49357   0.00000  Uiso   1.00
C288   C     0.40135   0.91079   0.47336   0.00000  Uiso   1.00
C289   C     0.41848   0.02152   0.45205   0.00000  Uiso   1.00
C290   C     0.24469   0.82876   0.42977   0.00000  Uiso   1.00
C291   C     0.30049   0.77055   0.39141   0.00000  Uiso   1.00
C292   C     0.29895   0.76327   0.32850   0.00000  Uiso   1.00
C293   C     0.35502   0.70643   0.30196   0.00000  Uiso   1.00
C294   C     0.20665   0.79088   0.50010   0.00000  Uiso   1.00
C295   C     0.12620   0.80071   0.52857   0.00000  Uiso   1.00
C296   C     0.10326   0.76101   0.59353   0.00000  Uiso   1.00
C297   C     0.29702   0.86456   0.44216   0.00000  Uiso   1.00
C298   C     0.29255   0.93634   0.42194   0.00000  Uiso   1.00
C299   C     0.34568   0.95867   0.43814   0.00000  Uiso   1.00
H300   H     0.39025   0.70356   0.52189   0.00000  Uiso   1.00
H301   H     0.45513   0.62894   0.42736   0.00000  Uiso   1.00
H302   H     0.28240   0.66639   0.62740   0.00000  Uiso   1.00
H303   H     0.44872   0.80199   0.52078   0.00000  Uiso   1.00
H304   H     0.50253   0.56727   0.30706   0.00000  Uiso   1.00
H305   H     0.13833   0.64625   0.72887   0.00000  Uiso   1.00
H306   H     0.48906   0.93219   0.50404   0.00000  Uiso   1.00
H307   H     0.20143   0.86597   0.40239   0.00000  Uiso   1.00
H308   H     0.25595   0.80026   0.30130   0.00000  Uiso   1.00
H309   H     0.08322   0.83771   0.50135   0.00000  Uiso   1.00
H310   H     0.24954   0.97330   0.39472   0.00000  Uiso   1.00
H311   H     0.34087   0.70632   0.20475   0.00000  Uiso   1.00
H312   H     0.97666   0.78530   0.62656   0.00000  Uiso   1.00
H313   H     0.32739   0.07124   0.40173   0.00000  Uiso   1.00
O314   O     0.46095   0.59062   0.19157   0.00000  Uiso   1.00
O315   O     0.98314   0.69425   0.74497   0.00000  Uiso   1.00
O316   O     0.44329   0.06939   0.45000   0.00000  Uiso   1.00
N317   N     0.45701   0.60902   0.29685   0.00000  Uiso   1.00
N318   N     0.11650   0.68285   0.69121   0.00000  Uiso   1.00
N319   N     0.44439   0.95019   0.48103   0.00000  Uiso   1.00
N320   N     0.37002   0.68384   0.24180   0.00000  Uiso   1.00
N321   N     0.02951   0.75767   0.63616   0.00000  Uiso   1.00
N322   N     0.35740   0.02501   0.42598   0.00000  Uiso   1.00
C323   C     0.30701   0.45600   0.47550   0.00000  Uiso   1.00
C324   C     0.33197   0.38300   0.52011   0.00000  Uiso   1.00
C325   C     0.39013   0.36144   0.55536   0.00000  Uiso   1.00
C326   C     0.40416   0.29252   0.59335   0.00000  Uiso   1.00
C327   C     0.44938   0.18612   0.66224   0.00000  Uiso   1.00
C328   C     0.21852   0.48434   0.50451   0.00000  Uiso   1.00
C329   C     0.18129   0.54800   0.52664   0.00000  Uiso   1.00
C330   C     0.09982   0.56440   0.55149   0.00000  Uiso   1.00
C331   C     0.96889   0.61537   0.59613   0.00000  Uiso   1.00
C332   C     0.31675   0.44305   0.40516   0.00000  Uiso   1.00
C333   C     0.36209   0.47201   0.34374   0.00000  Uiso   1.00
C334   C     0.36331   0.45365   0.28494   0.00000  Uiso   1.00
C335   C     0.38489   0.44051   0.17531   0.00000  Uiso   1.00
C336   C     0.22852   0.37194   0.48027   0.00000  Uiso   1.00
C337   C     0.28934   0.33734   0.52270   0.00000  Uiso   1.00
C338   C     0.30329   0.26843   0.56064   0.00000  Uiso   1.00
C339   C     0.36146   0.24678   0.59594   0.00000  Uiso   1.00
C340   C     0.17589   0.43869   0.50710   0.00000  Uiso   1.00
C341   C     0.09445   0.45499   0.53192   0.00000  Uiso   1.00
C342   C     0.05710   0.51866   0.55409   0.00000  Uiso   1.00
C343   C     0.27412   0.39739   0.40774   0.00000  Uiso   1.00
C344   C     0.27525   0.37900   0.34902   0.00000  Uiso   1.00
C345   C     0.32059   0.40791   0.28753   0.00000  Uiso   1.00
H346   H     0.34020   0.49155   0.47349   0.00000  Uiso   1.00
H347   H     0.42311   0.39679   0.55335   0.00000  Uiso   1.00
H348   H     0.21430   0.58333   0.52463   0.00000  Uiso   1.00
H349   H     0.39508   0.50734   0.34176   0.00000  Uiso   1.00
H350   H     0.49620   0.27161   0.64306   0.00000  Uiso   1.00
H351   H     0.05591   0.66494   0.58247   0.00000  Uiso   1.00
H352   H     0.43712   0.50471   0.19686   0.00000  Uiso   1.00
H353   H     0.19532   0.33639   0.48228   0.00000  Uiso   1.00
H354   H     0.27029   0.23311   0.56263   0.00000  Uiso   1.00
H355   H     0.06147   0.41965   0.53391   0.00000  Uiso   1.00
H356   H     0.24225   0.34366   0.35104   0.00000  Uiso   1.00
H357   H     0.37216   0.13876   0.65059   0.00000  Uiso   1.00
H358   H     0.93187   0.53209   0.59001   0.00000  Uiso   1.00
H359   H     0.31308   0.37186   0.20439   0.00000  Uiso   1.00
O360   O     0.48609   0.14005   0.69954   0.00000  Uiso   1.00
O361   O     0.90845   0.65609   0.62004   0.00000  Uiso   1.00
O362   O     0.40859   0.44587   0.11413   0.00000  Uiso   1.00
N363   N     0.45673   0.25451   0.63379   0.00000  Uiso   1.00
N364   N     0.04509   0.62225   0.57716   0.00000  Uiso   1.00
N365   N     0.40147   0.47246   0.21664   0.00000  Uiso   1.00
N366   N     0.38999   0.18303   0.63785   0.00000  Uiso   1.00
N367   N     0.97835   0.55076   0.58121   0.00000  Uiso   1.00
N368   N     0.33473   0.40097   0.22069   0.00000  Uiso   1.00
C369   C     0.29338   0.43255   0.73425   0.00000  Uiso   1.00
C370   C     0.32780   0.49323   0.72538   0.00000  Uiso   1.00
C371   C     0.37940   0.51899   0.66672   0.00000  Uiso   1.00
C372   C     0.40412   0.57481   0.66884   0.00000  Uiso   1.00
C373   C     0.46149   0.66464   0.64612   0.00000  Uiso   1.00
C374   C     0.20398   0.46264   0.75471   0.00000  Uiso   1.00
C375   C     0.15146   0.46267   0.72073   0.00000  Uiso   1.00
C376   C     0.07194   0.49273   0.74755   0.00000  Uiso   1.00
C377   C     0.93706   0.53502   0.77041   0.00000  Uiso   1.00
C378   C     0.31557   0.37834   0.79672   0.00000  Uiso   1.00
C379   C     0.35687   0.30749   0.79807   0.00000  Uiso   1.00
C380   C     0.37128   0.26657   0.86027   0.00000  Uiso   1.00
C381   C     0.40967   0.17798   0.94834   0.00000  Uiso   1.00
C382   C     0.24553   0.48587   0.84233   0.00000  Uiso   1.00
C383   C     0.30181   0.52219   0.78408   0.00000  Uiso   1.00
C384   C     0.32646   0.57798   0.78629   0.00000  Uiso   1.00
C385   C     0.37809   0.60382   0.72765   0.00000  Uiso   1.00
C386   C     0.17798   0.49160   0.81341   0.00000  Uiso   1.00
C387   C     0.09852   0.52166   0.84030   0.00000  Uiso   1.00
C388   C     0.04590   0.52175   0.80636   0.00000  Uiso   1.00
C389   C     0.28958   0.40730   0.85543   0.00000  Uiso   1.00
C390   C     0.30393   0.36648   0.91764   0.00000  Uiso   1.00
C391   C     0.34525   0.29559   0.91907   0.00000  Uiso   1.00
H392   H     0.31361   0.41000   0.68855   0.00000  Uiso   1.00
H393   H     0.39950   0.49657   0.62130   0.00000  Uiso   1.00
H394   H     0.17159   0.44025   0.67530   0.00000  Uiso   1.00
H395   H     0.37697   0.28510   0.75263   0.00000  Uiso   1.00
H396   H     0.48323   0.60533   0.57262   0.00000  Uiso   1.00
H397   H     0.00268   0.48655   0.68650   0.00000  Uiso   1.00
H398   H     0.43576   0.15938   0.84956   0.00000  Uiso   1.00
H399   H     0.22529   0.50842   0.88803   0.00000  Uiso   1.00
H400   H     0.30633   0.60038   0.83173   0.00000  Uiso   1.00
H401   H     0.07843   0.54407   0.88573   0.00000  Uiso   1.00
H402   H     0.28381   0.38891   0.96305   0.00000  Uiso   1.00
H403   H     0.40761   0.68959   0.74341   0.00000  Uiso   1.00
H404   H     0.92706   0.57081   0.85729   0.00000  Uiso   1.00
H405   H     0.36014   0.24365   0.02035   0.00000  Uiso   1.00
O406   O     0.50030   0.70620   0.61737   0.00000  Uiso   1.00
O407   O     0.86984   0.55035   0.76679   0.00000  Uiso   1.00
O408   O     0.43804   0.12112   0.98071   0.00000  Uiso   1.00
N409   N     0.45432   0.61253   0.62055   0.00000  Uiso   1.00
N410   N     0.00504   0.50149   0.72701   0.00000  Uiso   1.00
N411   N     0.40991   0.19561   0.87946   0.00000  Uiso   1.00
N412   N     0.41364   0.65787   0.71245   0.00000  Uiso   1.00
N413   N     0.96435   0.54683   0.81892   0.00000  Uiso   1.00
N414   N     0.36923   0.24095   0.97136   0.00000  Uiso   1.00
C415   C     0.79824   0.23078   0.94963   0.00000  Uiso   1.00
C416   C     0.83775   0.23693   0.99982   0.00000  Uiso   1.00
C417   C     0.89285   0.18259   0.02996   0.00000  Uiso   1.00
C418   C     0.92199   0.19891   0.07448   0.00000  Uiso   1.00
C419   C     0.98713   0.19807   0.15033   0.00000  Uiso   1.00
C420   C     0.70963   0.25433   0.98093   0.00000  Uiso   1.00
C421   C     0.65702   0.21461   0.99519   0.00000  Uiso   1.00
C422   C     0.57832   0.24559   0.02380   0.00000  Uiso   1.00
C423   C     0.44455   0.27178   0.07028   0.00000  Uiso   1.00
C424   C     0.81566   0.28719   0.88560   0.00000  Uiso   1.00
C425   C     0.85217   0.27511   0.81969   0.00000  Uiso   1.00
C426   C     0.86272   0.33376   0.76804   0.00000  Uiso   1.00
C427   C     0.89356   0.41096   0.66650   0.00000  Uiso   1.00
C428   C     0.75202   0.35642   0.97509   0.00000  Uiso   1.00
C429   C     0.81264   0.30517   0.01365   0.00000  Uiso   1.00
C430   C     0.84171   0.32159   0.05813   0.00000  Uiso   1.00
C431   C     0.89685   0.26728   0.08833   0.00000  Uiso   1.00
C432   C     0.68453   0.32257   0.99476   0.00000  Uiso   1.00
C433   C     0.60588   0.35361   0.02336   0.00000  Uiso   1.00
C434   C     0.55317   0.31396   0.03766   0.00000  Uiso   1.00
C435   C     0.79055   0.35543   0.89943   0.00000  Uiso   1.00
C436   C     0.80103   0.41411   0.84787   0.00000  Uiso   1.00
C437   C     0.83756   0.40212   0.78189   0.00000  Uiso   1.00
H438   H     0.81778   0.17766   0.93887   0.00000  Uiso   1.00
H439   H     0.91226   0.12978   0.01925   0.00000  Uiso   1.00
H440   H     0.67647   0.16181   0.98447   0.00000  Uiso   1.00
H441   H     0.87159   0.22229   0.80901   0.00000  Uiso   1.00
H442   H     0.00591   0.10679   0.11449   0.00000  Uiso   1.00
H443   H     0.50873   0.17433   0.04114   0.00000  Uiso   1.00
H444   H     0.92018   0.30187   0.67113   0.00000  Uiso   1.00
H445   H     0.73247   0.40955   0.98586   0.00000  Uiso   1.00
H446   H     0.82227   0.37440   0.06882   0.00000  Uiso   1.00
H447   H     0.58647   0.40643   0.03405   0.00000  Uiso   1.00
H448   H     0.78160   0.46691   0.85859   0.00000  Uiso   1.00
H449   H     0.93287   0.30533   0.15473   0.00000  Uiso   1.00
H450   H     0.43568   0.37287   0.08138   0.00000  Uiso   1.00
H451   H     0.84714   0.50041   0.71137   0.00000  Uiso   1.00
O452   O     0.02998   0.17875   0.18835   0.00000  Uiso   1.00
O453   O     0.37770   0.26736   0.09211   0.00000  Uiso   1.00
O454   O     0.91752   0.43469   0.60668   0.00000  Uiso   1.00
N455   N     0.97641   0.15835   0.11256   0.00000  Uiso   1.00
N456   N     0.51157   0.22149   0.04400   0.00000  Uiso   1.00
N457   N     0.89623   0.34073   0.69807   0.00000  Uiso   1.00
N458   N     0.93711   0.26518   0.13421   0.00000  Uiso   1.00
N459   N     0.47227   0.32832   0.06565   0.00000  Uiso   1.00
N460   N     0.85693   0.44756   0.71972   0.00000  Uiso   1.00
C461   C     0.83372   0.02968   0.21736   0.00000  Uiso   1.00
C462   C     0.84370   0.95317   0.21554   0.00000  Uiso   1.00
C463   C     0.88212   0.92171   0.15903   0.00000  Uiso   1.00
C464   C     0.88488   0.85115   0.16780   0.00000  Uiso   1.00
C465   C     0.90558   0.73810   0.15538   0.00000  Uiso   1.00
C466   C     0.74519   0.06262   0.24122   0.00000  Uiso   1.00
C467   C     0.70079   0.12318   0.20630   0.00000  Uiso   1.00
C468   C     0.62062   0.14475   0.23671   0.00000  Uiso   1.00
C469   C     0.48839   0.20165   0.26418   0.00000  Uiso   1.00
C470   C     0.86881   0.02570   0.27486   0.00000  Uiso   1.00
C471   C     0.92833   0.05524   0.26823   0.00000  Uiso   1.00
C472   C     0.95223   0.04574   0.32696   0.00000  Uiso   1.00
C473   C     0.01193   0.04531   0.40666   0.00000  Uiso   1.00
C474   C     0.77030   0.96030   0.33345   0.00000  Uiso   1.00
C475   C     0.80925   0.91549   0.27860   0.00000  Uiso   1.00
C476   C     0.81195   0.84495   0.28746   0.00000  Uiso   1.00
C477   C     0.85037   0.81340   0.23097   0.00000  Uiso   1.00
C478   C     0.71074   0.02493   0.30428   0.00000  Uiso   1.00
C479   C     0.63062   0.04642   0.33474   0.00000  Uiso   1.00
C480   C     0.58611   0.10700   0.29987   0.00000  Uiso   1.00
C481   C     0.83436   0.98801   0.33792   0.00000  Uiso   1.00
C482   C     0.85816   0.97847   0.39667   0.00000  Uiso   1.00
C483   C     0.91772   0.00799   0.39013   0.00000  Uiso   1.00
H484   H     0.86054   0.05902   0.16827   0.00000  Uiso   1.00
H485   H     0.90877   0.95090   0.11023   0.00000  Uiso   1.00
H486   H     0.72747   0.15234   0.15751   0.00000  Uiso   1.00
H487   H     0.95498   0.08440   0.21943   0.00000  Uiso   1.00
H488   H     0.94702   0.81442   0.07369   0.00000  Uiso   1.00
H489   H     0.56474   0.23917   0.17339   0.00000  Uiso   1.00
H490   H     0.04449   0.09592   0.30395   0.00000  Uiso   1.00
H491   H     0.74348   0.93096   0.38254   0.00000  Uiso   1.00
H492   H     0.78529   0.81581   0.33626   0.00000  Uiso   1.00
H493   H     0.60398   0.01725   0.38354   0.00000  Uiso   1.00
H494   H     0.83149   0.94931   0.44545   0.00000  Uiso   1.00
H495   H     0.84680   0.70477   0.25715   0.00000  Uiso   1.00
H496   H     0.46452   0.12953   0.35684   0.00000  Uiso   1.00
H497   H     0.94426   0.98627   0.48740   0.00000  Uiso   1.00
O498   O     0.92650   0.68616   0.13111   0.00000  Uiso   1.00
O499   O     0.42497   0.24344   0.26191   0.00000  Uiso   1.00
O500   O     0.05439   0.05548   0.43320   0.00000  Uiso   1.00
N501   N     0.91771   0.80441   0.12322   0.00000  Uiso   1.00
N502   N     0.56030   0.20153   0.21643   0.00000  Uiso   1.00
N503   N     0.00881   0.06761   0.33850   0.00000  Uiso   1.00
N504   N     0.86378   0.74541   0.22194   0.00000  Uiso   1.00
N505   N     0.50637   0.14253   0.31514   0.00000  Uiso   1.00
N506   N     0.95488   0.00861   0.43721   0.00000  Uiso   1.00
C507   C     0.81814   0.93856   0.97655   0.00000  Uiso   1.00
C508   C     0.83937   0.98803   0.90789   0.00000  Uiso   1.00
C509   C     0.90195   0.01801   0.88601   0.00000  Uiso   1.00
C510   C     0.91143   0.06184   0.82149   0.00000  Uiso   1.00
C511   C     0.95217   0.13666   0.72115   0.00000  Uiso   1.00
C512   C     0.73272   0.97320   0.01016   0.00000  Uiso   1.00
C513   C     0.70563   0.99070   0.07427   0.00000  Uiso   1.00
C514   C     0.62533   0.02204   0.09584   0.00000  Uiso   1.00
C515   C     0.50048   0.07378   0.15430   0.00000  Uiso   1.00
C516   C     0.81760   0.87127   0.95975   0.00000  Uiso   1.00
C517   C     0.86187   0.80306   0.98148   0.00000  Uiso   1.00
C518   C     0.85301   0.74858   0.96063   0.00000  Uiso   1.00
C519   C     0.85995   0.64206   0.94081   0.00000  Uiso   1.00
C520   C     0.72368   0.96308   0.90088   0.00000  Uiso   1.00
C521   C     0.78806   0.00135   0.86679   0.00000  Uiso   1.00
C522   C     0.79744   0.04514   0.80229   0.00000  Uiso   1.00
C523   C     0.86003   0.07519   0.78031   0.00000  Uiso   1.00
C524   C     0.68141   0.98652   0.96906   0.00000  Uiso   1.00
C525   C     0.60112   0.01783   0.99055   0.00000  Uiso   1.00
C526   C     0.57392   0.03539   0.05467   0.00000  Uiso   1.00
C527   C     0.76629   0.88459   0.91865   0.00000  Uiso   1.00
C528   C     0.75736   0.83020   0.89776   0.00000  Uiso   1.00
C529   C     0.80160   0.76192   0.91946   0.00000  Uiso   1.00
H530   H     0.85808   0.92819   0.00855   0.00000  Uiso   1.00
H531   H     0.94164   0.00770   0.91783   0.00000  Uiso   1.00
H532   H     0.74535   0.98038   0.10606   0.00000  Uiso   1.00
H533   H     0.90156   0.79278   0.01329   0.00000  Uiso   1.00
H534   H     0.01164   0.10174   0.79914   0.00000  Uiso   1.00
H535   H     0.59775   0.04412   0.19605   0.00000  Uiso   1.00
H536   H     0.92715   0.64851   0.00041   0.00000  Uiso   1.00
H537   H     0.68373   0.97345   0.86888   0.00000  Uiso   1.00
H538   H     0.75773   0.05544   0.77050   0.00000  Uiso   1.00
H539   H     0.56143   0.02813   0.95873   0.00000  Uiso   1.00
H540   H     0.71764   0.84052   0.86596   0.00000  Uiso   1.00
H541   H     0.86236   0.14049   0.67956   0.00000  Uiso   1.00
H542   H     0.44847   0.08287   0.07647   0.00000  Uiso   1.00
H543   H     0.77787   0.68727   0.88083   0.00000  Uiso   1.00
O544   O     0.98881   0.17425   0.67716   0.00000  Uiso   1.00
O545   O     0.44580   0.09865   0.19789   0.00000  Uiso   1.00
O546   O     0.87796   0.57962   0.94122   0.00000  Uiso   1.00
N547   N     0.96636   0.09959   0.78449   0.00000  Uiso   1.00
N548   N     0.57940   0.04574   0.15558   0.00000  Uiso   1.00
N549   N     0.88735   0.67588   0.97269   0.00000  Uiso   1.00
N550   N     0.88604   0.12045   0.72015   0.00000  Uiso   1.00
N551   N     0.49908   0.06659   0.09123   0.00000  Uiso   1.00
N552   N     0.80702   0.69673   0.90834   0.00000  Uiso   1.00
