data_job_04137
_audit_creation_date              2018-12-19
_audit_creation_method            'Materials Studio'
_symmetry_space_group_name_H-M    'P1'
_symmetry_Int_Tables_number       1
_symmetry_cell_setting            triclinic
loop_
_symmetry_equiv_pos_as_xyz
  x,y,z
_cell_length_a                    25.9510
_cell_length_b                    7.0396
_cell_length_c                    17.8367
_cell_angle_alpha                 90.0000
_cell_angle_beta                  84.8925
_cell_angle_gamma                 90.0000
loop_
_atom_site_label
_atom_site_type_symbol
_atom_site_fract_x
_atom_site_fract_y
_atom_site_fract_z
_atom_site_U_iso_or_equiv
_atom_site_adp_type
_atom_site_occupancy
C1     C     0.40301   0.80336   0.66521   0.00000  Uiso   1.00
C2     C     0.36843   0.73308   0.73316   0.00000  Uiso   1.00
C3     C     0.35376   0.83760   0.79751   0.00000  Uiso   1.00
C4     C     0.32196   0.74774   0.85337   0.00000  Uiso   1.00
C5     C     0.27080   0.66711   0.96016   0.00000  Uiso   1.00
C6     C     0.44786   0.66311   0.65471   0.00000  Uiso   1.00
C7     C     0.49997   0.70882   0.65309   0.00000  Uiso   1.00
C8     C     0.53502   0.56006   0.64291   0.00000  Uiso   1.00
C9     C     0.60717   0.37083   0.62784   0.00000  Uiso   1.00
C10    C     0.37192   0.77717   0.59733   0.00000  Uiso   1.00
C11    C     0.36019   0.91876   0.54744   0.00000  Uiso   1.00
C12    C     0.33132   0.86601   0.48892   0.00000  Uiso   1.00
C13    C     0.28556   0.85388   0.38476   0.00000  Uiso   1.00
C14    C     0.37261   0.45792   0.64998   0.00000  Uiso   1.00
C15    C     0.35192   0.54545   0.72489   0.00000  Uiso   1.00
C16    C     0.32013   0.45541   0.78066   0.00000  Uiso   1.00
C17    C     0.30542   0.55978   0.84509   0.00000  Uiso   1.00
C18    C     0.43135   0.47549   0.64644   0.00000  Uiso   1.00
C19    C     0.46633   0.32663   0.63625   0.00000  Uiso   1.00
C20    C     0.51848   0.37209   0.63462   0.00000  Uiso   1.00
C21    C     0.35541   0.58954   0.58905   0.00000  Uiso   1.00
C22    C     0.32655   0.53657   0.53060   0.00000  Uiso   1.00
C23    C     0.31478   0.67805   0.48063   0.00000  Uiso   1.00
H24    H     0.41587   0.94943   0.67165   0.00000  Uiso   1.00
H25    H     0.36655   0.98279   0.80390   0.00000  Uiso   1.00
H26    H     0.51273   0.85403   0.65949   0.00000  Uiso   1.00
H27    H     0.37297   0.06393   0.55386   0.00000  Uiso   1.00
H28    H     0.30461   0.93700   0.94688   0.00000  Uiso   1.00
H29    H     0.61284   0.66552   0.64237   0.00000  Uiso   1.00
H30    H     0.31813   0.10814   0.41962   0.00000  Uiso   1.00
H31    H     0.35976   0.31184   0.64354   0.00000  Uiso   1.00
H32    H     0.30736   0.31021   0.77425   0.00000  Uiso   1.00
H33    H     0.45354   0.18145   0.62984   0.00000  Uiso   1.00
H34    H     0.31378   0.39136   0.52421   0.00000  Uiso   1.00
H35    H     0.25657   0.39111   0.92282   0.00000  Uiso   1.00
H36    H     0.56480   0.11962   0.61830   0.00000  Uiso   1.00
H37    H     0.27009   0.56225   0.39556   0.00000  Uiso   1.00
O38    O     0.24715   0.67447   0.02135   0.00000  Uiso   1.00
O39    O     0.65153   0.31830   0.62183   0.00000  Uiso   1.00
O40    O     0.26488   0.89901   0.32959   0.00000  Uiso   1.00
N41    N     0.30049   0.80876   0.92327   0.00000  Uiso   1.00
N42    N     0.58866   0.55494   0.63858   0.00000  Uiso   1.00
N43    N     0.31315   0.96875   0.43032   0.00000  Uiso   1.00
N44    N     0.27463   0.51502   0.91032   0.00000  Uiso   1.00
N45    N     0.56281   0.26120   0.62564   0.00000  Uiso   1.00
N46    N     0.28730   0.67501   0.41737   0.00000  Uiso   1.00
C47    C     0.90301   0.30336   0.66521   0.00000  Uiso   1.00
C48    C     0.86843   0.23308   0.73316   0.00000  Uiso   1.00
C49    C     0.85376   0.33760   0.79751   0.00000  Uiso   1.00
C50    C     0.82196   0.24774   0.85337   0.00000  Uiso   1.00
C51    C     0.77080   0.16711   0.96016   0.00000  Uiso   1.00
C52    C     0.94786   0.16311   0.65471   0.00000  Uiso   1.00
C53    C     0.99997   0.20882   0.65309   0.00000  Uiso   1.00
C54    C     0.03502   0.06006   0.64291   0.00000  Uiso   1.00
C55    C     0.10717   0.87083   0.62784   0.00000  Uiso   1.00
C56    C     0.87192   0.27717   0.59733   0.00000  Uiso   1.00
C57    C     0.86019   0.41876   0.54744   0.00000  Uiso   1.00
C58    C     0.83132   0.36601   0.48892   0.00000  Uiso   1.00
C59    C     0.78556   0.35388   0.38476   0.00000  Uiso   1.00
C60    C     0.87261   0.95792   0.64998   0.00000  Uiso   1.00
C61    C     0.85192   0.04545   0.72489   0.00000  Uiso   1.00
C62    C     0.82013   0.95541   0.78066   0.00000  Uiso   1.00
C63    C     0.80542   0.05978   0.84509   0.00000  Uiso   1.00
C64    C     0.93135   0.97549   0.64644   0.00000  Uiso   1.00
C65    C     0.96633   0.82663   0.63625   0.00000  Uiso   1.00
C66    C     0.01848   0.87209   0.63462   0.00000  Uiso   1.00
C67    C     0.85541   0.08954   0.58905   0.00000  Uiso   1.00
C68    C     0.82655   0.03657   0.53060   0.00000  Uiso   1.00
C69    C     0.81478   0.17805   0.48063   0.00000  Uiso   1.00
H70    H     0.91587   0.44943   0.67165   0.00000  Uiso   1.00
H71    H     0.86655   0.48279   0.80390   0.00000  Uiso   1.00
H72    H     0.01273   0.35403   0.65949   0.00000  Uiso   1.00
H73    H     0.87297   0.56393   0.55386   0.00000  Uiso   1.00
H74    H     0.80461   0.43700   0.94688   0.00000  Uiso   1.00
H75    H     0.11284   0.16552   0.64237   0.00000  Uiso   1.00
H76    H     0.81813   0.60814   0.41962   0.00000  Uiso   1.00
H77    H     0.85976   0.81184   0.64354   0.00000  Uiso   1.00
H78    H     0.80736   0.81021   0.77425   0.00000  Uiso   1.00
H79    H     0.95354   0.68145   0.62984   0.00000  Uiso   1.00
H80    H     0.81378   0.89136   0.52421   0.00000  Uiso   1.00
H81    H     0.75657   0.89111   0.92282   0.00000  Uiso   1.00
H82    H     0.06480   0.61962   0.61830   0.00000  Uiso   1.00
H83    H     0.77009   0.06225   0.39556   0.00000  Uiso   1.00
O84    O     0.74715   0.17447   0.02135   0.00000  Uiso   1.00
O85    O     0.15153   0.81830   0.62183   0.00000  Uiso   1.00
O86    O     0.76488   0.39901   0.32959   0.00000  Uiso   1.00
N87    N     0.80049   0.30876   0.92327   0.00000  Uiso   1.00
N88    N     0.08866   0.05494   0.63858   0.00000  Uiso   1.00
N89    N     0.81315   0.46875   0.43032   0.00000  Uiso   1.00
N90    N     0.77463   0.01502   0.91032   0.00000  Uiso   1.00
N91    N     0.06281   0.76120   0.62564   0.00000  Uiso   1.00
N92    N     0.78730   0.17501   0.41737   0.00000  Uiso   1.00
C93    C     0.59699   0.80336   0.33479   0.00000  Uiso   1.00
C94    C     0.63157   0.73308   0.26684   0.00000  Uiso   1.00
C95    C     0.64624   0.83760   0.20249   0.00000  Uiso   1.00
C96    C     0.67804   0.74774   0.14663   0.00000  Uiso   1.00
C97    C     0.72920   0.66711   0.03984   0.00000  Uiso   1.00
C98    C     0.55214   0.66311   0.34529   0.00000  Uiso   1.00
C99    C     0.50003   0.70882   0.34691   0.00000  Uiso   1.00
C100   C     0.46498   0.56006   0.35709   0.00000  Uiso   1.00
C101   C     0.39283   0.37083   0.37216   0.00000  Uiso   1.00
C102   C     0.62808   0.77717   0.40267   0.00000  Uiso   1.00
C103   C     0.63981   0.91876   0.45256   0.00000  Uiso   1.00
C104   C     0.66868   0.86601   0.51108   0.00000  Uiso   1.00
C105   C     0.71444   0.85388   0.61524   0.00000  Uiso   1.00
C106   C     0.62739   0.45792   0.35002   0.00000  Uiso   1.00
C107   C     0.64808   0.54545   0.27511   0.00000  Uiso   1.00
C108   C     0.67987   0.45541   0.21934   0.00000  Uiso   1.00
C109   C     0.69458   0.55978   0.15491   0.00000  Uiso   1.00
C110   C     0.56865   0.47549   0.35356   0.00000  Uiso   1.00
C111   C     0.53367   0.32663   0.36375   0.00000  Uiso   1.00
C112   C     0.48152   0.37209   0.36538   0.00000  Uiso   1.00
C113   C     0.64459   0.58954   0.41095   0.00000  Uiso   1.00
C114   C     0.67345   0.53657   0.46940   0.00000  Uiso   1.00
C115   C     0.68522   0.67805   0.51937   0.00000  Uiso   1.00
H116   H     0.58413   0.94943   0.32835   0.00000  Uiso   1.00
H117   H     0.63345   0.98279   0.19610   0.00000  Uiso   1.00
H118   H     0.48727   0.85403   0.34051   0.00000  Uiso   1.00
H119   H     0.62703   0.06393   0.44614   0.00000  Uiso   1.00
H120   H     0.69539   0.93700   0.05312   0.00000  Uiso   1.00
H121   H     0.38716   0.66552   0.35763   0.00000  Uiso   1.00
H122   H     0.68187   0.10814   0.58038   0.00000  Uiso   1.00
H123   H     0.64024   0.31184   0.35646   0.00000  Uiso   1.00
H124   H     0.69264   0.31021   0.22575   0.00000  Uiso   1.00
H125   H     0.54646   0.18145   0.37016   0.00000  Uiso   1.00
H126   H     0.68622   0.39136   0.47579   0.00000  Uiso   1.00
H127   H     0.74343   0.39111   0.07718   0.00000  Uiso   1.00
H128   H     0.43520   0.11962   0.38170   0.00000  Uiso   1.00
H129   H     0.72991   0.56225   0.60444   0.00000  Uiso   1.00
O130   O     0.75285   0.67447   0.97865   0.00000  Uiso   1.00
O131   O     0.34847   0.31830   0.37817   0.00000  Uiso   1.00
O132   O     0.73512   0.89901   0.67041   0.00000  Uiso   1.00
N133   N     0.69951   0.80876   0.07673   0.00000  Uiso   1.00
N134   N     0.41134   0.55494   0.36142   0.00000  Uiso   1.00
N135   N     0.68685   0.96875   0.56968   0.00000  Uiso   1.00
N136   N     0.72537   0.51502   0.08968   0.00000  Uiso   1.00
N137   N     0.43719   0.26120   0.37436   0.00000  Uiso   1.00
N138   N     0.71270   0.67501   0.58263   0.00000  Uiso   1.00
C139   C     0.09699   0.30336   0.33479   0.00000  Uiso   1.00
C140   C     0.13157   0.23308   0.26684   0.00000  Uiso   1.00
C141   C     0.14624   0.33760   0.20249   0.00000  Uiso   1.00
C142   C     0.17804   0.24774   0.14663   0.00000  Uiso   1.00
C143   C     0.22920   0.16711   0.03984   0.00000  Uiso   1.00
C144   C     0.05214   0.16311   0.34529   0.00000  Uiso   1.00
C145   C     0.00003   0.20882   0.34691   0.00000  Uiso   1.00
C146   C     0.96498   0.06006   0.35709   0.00000  Uiso   1.00
C147   C     0.89283   0.87083   0.37216   0.00000  Uiso   1.00
C148   C     0.12808   0.27717   0.40267   0.00000  Uiso   1.00
C149   C     0.13981   0.41876   0.45256   0.00000  Uiso   1.00
C150   C     0.16868   0.36601   0.51108   0.00000  Uiso   1.00
C151   C     0.21444   0.35388   0.61524   0.00000  Uiso   1.00
C152   C     0.12739   0.95792   0.35002   0.00000  Uiso   1.00
C153   C     0.14808   0.04545   0.27511   0.00000  Uiso   1.00
C154   C     0.17987   0.95541   0.21934   0.00000  Uiso   1.00
C155   C     0.19458   0.05978   0.15491   0.00000  Uiso   1.00
C156   C     0.06865   0.97549   0.35356   0.00000  Uiso   1.00
C157   C     0.03367   0.82663   0.36375   0.00000  Uiso   1.00
C158   C     0.98152   0.87209   0.36538   0.00000  Uiso   1.00
C159   C     0.14459   0.08954   0.41095   0.00000  Uiso   1.00
C160   C     0.17345   0.03657   0.46940   0.00000  Uiso   1.00
C161   C     0.18522   0.17805   0.51937   0.00000  Uiso   1.00
H162   H     0.08413   0.44943   0.32835   0.00000  Uiso   1.00
H163   H     0.13345   0.48279   0.19610   0.00000  Uiso   1.00
H164   H     0.98727   0.35403   0.34051   0.00000  Uiso   1.00
H165   H     0.12703   0.56393   0.44614   0.00000  Uiso   1.00
H166   H     0.19539   0.43700   0.05312   0.00000  Uiso   1.00
H167   H     0.88716   0.16552   0.35763   0.00000  Uiso   1.00
H168   H     0.18187   0.60814   0.58038   0.00000  Uiso   1.00
H169   H     0.14024   0.81184   0.35646   0.00000  Uiso   1.00
H170   H     0.19264   0.81021   0.22575   0.00000  Uiso   1.00
H171   H     0.04646   0.68145   0.37016   0.00000  Uiso   1.00
H172   H     0.18622   0.89136   0.47579   0.00000  Uiso   1.00
H173   H     0.24343   0.89111   0.07718   0.00000  Uiso   1.00
H174   H     0.93520   0.61962   0.38170   0.00000  Uiso   1.00
H175   H     0.22991   0.06225   0.60444   0.00000  Uiso   1.00
O176   O     0.25285   0.17447   0.97865   0.00000  Uiso   1.00
O177   O     0.84847   0.81830   0.37817   0.00000  Uiso   1.00
O178   O     0.23512   0.39901   0.67041   0.00000  Uiso   1.00
N179   N     0.19951   0.30876   0.07673   0.00000  Uiso   1.00
N180   N     0.91134   0.05494   0.36142   0.00000  Uiso   1.00
N181   N     0.18685   0.46875   0.56968   0.00000  Uiso   1.00
N182   N     0.22537   0.01502   0.08968   0.00000  Uiso   1.00
N183   N     0.93719   0.76120   0.37436   0.00000  Uiso   1.00
N184   N     0.21270   0.17501   0.58263   0.00000  Uiso   1.00
