data_job_01592
_audit_creation_date              2018-12-19
_audit_creation_method            'Materials Studio'
_symmetry_space_group_name_H-M    'P1'
_symmetry_Int_Tables_number       1
_symmetry_cell_setting            triclinic
loop_
_symmetry_equiv_pos_as_xyz
  x,y,z
_cell_length_a                    16.3564
_cell_length_b                    36.2216
_cell_length_c                    8.8625
_cell_angle_alpha                 90.0000
_cell_angle_beta                  90.0000
_cell_angle_gamma                 90.0000
loop_
_atom_site_label
_atom_site_type_symbol
_atom_site_fract_x
_atom_site_fract_y
_atom_site_fract_z
_atom_site_U_iso_or_equiv
_atom_site_adp_type
_atom_site_occupancy
C1     C     0.17482   0.91148   0.30603   0.00000  Uiso   1.00
C2     C     0.16206   0.93941   0.43260   0.00000  Uiso   1.00
C3     C     0.11960   0.97245   0.42056   0.00000  Uiso   1.00
C4     C     0.11482   0.99418   0.54931   0.00000  Uiso   1.00
C5     C     0.08950   0.03923   0.72516   0.00000  Uiso   1.00
C6     C     0.26704   0.90630   0.29219   0.00000  Uiso   1.00
C7     C     0.31283   0.91150   0.16208   0.00000  Uiso   1.00
C8     C     0.39643   0.90534   0.17263   0.00000  Uiso   1.00
C9     C     0.53408   0.89896   0.13045   0.00000  Uiso   1.00
C10    C     0.14130   0.87491   0.36469   0.00000  Uiso   1.00
C11    C     0.08139   0.85371   0.29552   0.00000  Uiso   1.00
C12    C     0.05913   0.82113   0.36710   0.00000  Uiso   1.00
C13    C     0.00156   0.76600   0.43748   0.00000  Uiso   1.00
C14    C     0.24185   0.89132   0.55612   0.00000  Uiso   1.00
C15    C     0.19847   0.92846   0.56844   0.00000  Uiso   1.00
C16    C     0.19375   0.95014   0.69725   0.00000  Uiso   1.00
C17    C     0.15128   0.98321   0.68540   0.00000  Uiso   1.00
C18    C     0.30345   0.89535   0.42802   0.00000  Uiso   1.00
C19    C     0.38699   0.88919   0.43877   0.00000  Uiso   1.00
C20    C     0.43290   0.89437   0.30871   0.00000  Uiso   1.00
C21    C     0.17771   0.86396   0.50053   0.00000  Uiso   1.00
C22    C     0.15554   0.83140   0.57222   0.00000  Uiso   1.00
C23    C     0.09561   0.81015   0.50318   0.00000  Uiso   1.00
H24    H     0.14649   0.92001   0.20028   0.00000  Uiso   1.00
H25    H     0.09144   0.98092   0.31541   0.00000  Uiso   1.00
H26    H     0.28464   0.91997   0.05697   0.00000  Uiso   1.00
H27    H     0.05323   0.86219   0.19040   0.00000  Uiso   1.00
H28    H     0.04649   0.04363   0.50295   0.00000  Uiso   1.00
H29    H     0.45387   0.91510   0.95800   0.00000  Uiso   1.00
H30    H     0.96590   0.79326   0.23935   0.00000  Uiso   1.00
H31    H     0.27019   0.88279   0.66188   0.00000  Uiso   1.00
H32    H     0.22193   0.94166   0.80235   0.00000  Uiso   1.00
H33    H     0.41514   0.88071   0.54391   0.00000  Uiso   1.00
H34    H     0.18373   0.82294   0.67734   0.00000  Uiso   1.00
H35    H     0.15240   0.01177   0.89817   0.00000  Uiso   1.00
H36    H     0.55979   0.88323   0.35321   0.00000  Uiso   1.00
H37    H     0.07181   0.76140   0.63457   0.00000  Uiso   1.00
O38    O     0.06549   0.06710   0.78462   0.00000  Uiso   1.00
O39    O     0.59995   0.89846   0.06966   0.00000  Uiso   1.00
O40    O     0.95974   0.73863   0.43880   0.00000  Uiso   1.00
N41    N     0.07802   0.02805   0.57669   0.00000  Uiso   1.00
N42    N     0.45890   0.90788   0.06720   0.00000  Uiso   1.00
N43    N     0.00271   0.79398   0.33023   0.00000  Uiso   1.00
N44    N     0.13501   0.01090   0.78936   0.00000  Uiso   1.00
N45    N     0.51589   0.89074   0.27987   0.00000  Uiso   1.00
N46    N     0.05970   0.77683   0.54289   0.00000  Uiso   1.00
C47    C     0.32518   0.08852   0.30603   0.00000  Uiso   1.00
C48    C     0.33794   0.06059   0.43260   0.00000  Uiso   1.00
C49    C     0.38040   0.02755   0.42056   0.00000  Uiso   1.00
C50    C     0.38518   0.00582   0.54931   0.00000  Uiso   1.00
C51    C     0.41050   0.96077   0.72516   0.00000  Uiso   1.00
C52    C     0.23296   0.09370   0.29219   0.00000  Uiso   1.00
C53    C     0.18717   0.08850   0.16208   0.00000  Uiso   1.00
C54    C     0.10357   0.09466   0.17263   0.00000  Uiso   1.00
C55    C     0.96592   0.10104   0.13045   0.00000  Uiso   1.00
C56    C     0.35870   0.12509   0.36469   0.00000  Uiso   1.00
C57    C     0.41861   0.14629   0.29552   0.00000  Uiso   1.00
C58    C     0.44087   0.17887   0.36710   0.00000  Uiso   1.00
C59    C     0.49844   0.23400   0.43748   0.00000  Uiso   1.00
C60    C     0.25815   0.10868   0.55612   0.00000  Uiso   1.00
C61    C     0.30153   0.07154   0.56844   0.00000  Uiso   1.00
C62    C     0.30625   0.04986   0.69725   0.00000  Uiso   1.00
C63    C     0.34872   0.01679   0.68540   0.00000  Uiso   1.00
C64    C     0.19655   0.10465   0.42802   0.00000  Uiso   1.00
C65    C     0.11301   0.11081   0.43877   0.00000  Uiso   1.00
C66    C     0.06710   0.10563   0.30871   0.00000  Uiso   1.00
C67    C     0.32229   0.13604   0.50053   0.00000  Uiso   1.00
C68    C     0.34446   0.16860   0.57222   0.00000  Uiso   1.00
C69    C     0.40439   0.18985   0.50318   0.00000  Uiso   1.00
H70    H     0.35351   0.07999   0.20028   0.00000  Uiso   1.00
H71    H     0.40856   0.01908   0.31541   0.00000  Uiso   1.00
H72    H     0.21536   0.08003   0.05697   0.00000  Uiso   1.00
H73    H     0.44677   0.13781   0.19040   0.00000  Uiso   1.00
H74    H     0.45351   0.95637   0.50295   0.00000  Uiso   1.00
H75    H     0.04613   0.08490   0.95800   0.00000  Uiso   1.00
H76    H     0.53410   0.20674   0.23935   0.00000  Uiso   1.00
H77    H     0.22981   0.11721   0.66188   0.00000  Uiso   1.00
H78    H     0.27807   0.05834   0.80235   0.00000  Uiso   1.00
H79    H     0.08486   0.11929   0.54391   0.00000  Uiso   1.00
H80    H     0.31627   0.17706   0.67734   0.00000  Uiso   1.00
H81    H     0.34760   0.98823   0.89817   0.00000  Uiso   1.00
H82    H     0.94021   0.11677   0.35321   0.00000  Uiso   1.00
H83    H     0.42819   0.23860   0.63457   0.00000  Uiso   1.00
O84    O     0.43451   0.93290   0.78462   0.00000  Uiso   1.00
O85    O     0.90005   0.10154   0.06966   0.00000  Uiso   1.00
O86    O     0.54026   0.26137   0.43880   0.00000  Uiso   1.00
N87    N     0.42198   0.97195   0.57669   0.00000  Uiso   1.00
N88    N     0.04110   0.09212   0.06720   0.00000  Uiso   1.00
N89    N     0.49729   0.20602   0.33023   0.00000  Uiso   1.00
N90    N     0.36499   0.98910   0.78936   0.00000  Uiso   1.00
N91    N     0.98411   0.10926   0.27987   0.00000  Uiso   1.00
N92    N     0.44030   0.22317   0.54289   0.00000  Uiso   1.00
C93    C     0.32518   0.41148   0.19397   0.00000  Uiso   1.00
C94    C     0.33794   0.43941   0.06740   0.00000  Uiso   1.00
C95    C     0.38040   0.47245   0.07944   0.00000  Uiso   1.00
C96    C     0.38518   0.49418   0.95069   0.00000  Uiso   1.00
C97    C     0.41050   0.53923   0.77484   0.00000  Uiso   1.00
C98    C     0.23296   0.40630   0.20781   0.00000  Uiso   1.00
C99    C     0.18717   0.41150   0.33792   0.00000  Uiso   1.00
C100   C     0.10357   0.40534   0.32737   0.00000  Uiso   1.00
C101   C     0.96592   0.39896   0.36955   0.00000  Uiso   1.00
C102   C     0.35870   0.37491   0.13531   0.00000  Uiso   1.00
C103   C     0.41861   0.35371   0.20448   0.00000  Uiso   1.00
C104   C     0.44087   0.32113   0.13290   0.00000  Uiso   1.00
C105   C     0.49844   0.26600   0.06252   0.00000  Uiso   1.00
C106   C     0.25815   0.39132   0.94388   0.00000  Uiso   1.00
C107   C     0.30153   0.42846   0.93156   0.00000  Uiso   1.00
C108   C     0.30625   0.45014   0.80275   0.00000  Uiso   1.00
C109   C     0.34872   0.48321   0.81460   0.00000  Uiso   1.00
C110   C     0.19655   0.39535   0.07198   0.00000  Uiso   1.00
C111   C     0.11301   0.38919   0.06123   0.00000  Uiso   1.00
C112   C     0.06710   0.39437   0.19129   0.00000  Uiso   1.00
C113   C     0.32229   0.36396   0.99947   0.00000  Uiso   1.00
C114   C     0.34446   0.33140   0.92778   0.00000  Uiso   1.00
C115   C     0.40439   0.31015   0.99682   0.00000  Uiso   1.00
H116   H     0.35351   0.42001   0.29972   0.00000  Uiso   1.00
H117   H     0.40856   0.48092   0.18459   0.00000  Uiso   1.00
H118   H     0.21536   0.41997   0.44303   0.00000  Uiso   1.00
H119   H     0.44677   0.36219   0.30960   0.00000  Uiso   1.00
H120   H     0.45351   0.54363   0.99705   0.00000  Uiso   1.00
H121   H     0.04613   0.41510   0.54200   0.00000  Uiso   1.00
H122   H     0.53410   0.29326   0.26065   0.00000  Uiso   1.00
H123   H     0.22981   0.38279   0.83812   0.00000  Uiso   1.00
H124   H     0.27807   0.44166   0.69765   0.00000  Uiso   1.00
H125   H     0.08486   0.38071   0.95609   0.00000  Uiso   1.00
H126   H     0.31627   0.32294   0.82266   0.00000  Uiso   1.00
H127   H     0.34760   0.51177   0.60183   0.00000  Uiso   1.00
H128   H     0.94021   0.38323   0.14679   0.00000  Uiso   1.00
H129   H     0.42819   0.26140   0.86543   0.00000  Uiso   1.00
O130   O     0.43451   0.56710   0.71538   0.00000  Uiso   1.00
O131   O     0.90005   0.39846   0.43034   0.00000  Uiso   1.00
O132   O     0.54026   0.23863   0.06120   0.00000  Uiso   1.00
N133   N     0.42198   0.52805   0.92331   0.00000  Uiso   1.00
N134   N     0.04110   0.40788   0.43280   0.00000  Uiso   1.00
N135   N     0.49729   0.29398   0.16977   0.00000  Uiso   1.00
N136   N     0.36499   0.51090   0.71064   0.00000  Uiso   1.00
N137   N     0.98411   0.39074   0.22013   0.00000  Uiso   1.00
N138   N     0.44030   0.27683   0.95711   0.00000  Uiso   1.00
C139   C     0.17482   0.58852   0.19397   0.00000  Uiso   1.00
C140   C     0.16206   0.56059   0.06740   0.00000  Uiso   1.00
C141   C     0.11960   0.52755   0.07944   0.00000  Uiso   1.00
C142   C     0.11482   0.50582   0.95069   0.00000  Uiso   1.00
C143   C     0.08950   0.46077   0.77484   0.00000  Uiso   1.00
C144   C     0.26704   0.59370   0.20781   0.00000  Uiso   1.00
C145   C     0.31283   0.58850   0.33792   0.00000  Uiso   1.00
C146   C     0.39643   0.59466   0.32737   0.00000  Uiso   1.00
C147   C     0.53408   0.60104   0.36955   0.00000  Uiso   1.00
C148   C     0.14130   0.62509   0.13531   0.00000  Uiso   1.00
C149   C     0.08139   0.64629   0.20448   0.00000  Uiso   1.00
C150   C     0.05913   0.67887   0.13290   0.00000  Uiso   1.00
C151   C     0.00156   0.73400   0.06252   0.00000  Uiso   1.00
C152   C     0.24185   0.60868   0.94388   0.00000  Uiso   1.00
C153   C     0.19847   0.57154   0.93156   0.00000  Uiso   1.00
C154   C     0.19375   0.54986   0.80275   0.00000  Uiso   1.00
C155   C     0.15128   0.51679   0.81460   0.00000  Uiso   1.00
C156   C     0.30345   0.60465   0.07198   0.00000  Uiso   1.00
C157   C     0.38699   0.61081   0.06123   0.00000  Uiso   1.00
C158   C     0.43290   0.60563   0.19129   0.00000  Uiso   1.00
C159   C     0.17771   0.63604   0.99947   0.00000  Uiso   1.00
C160   C     0.15554   0.66860   0.92778   0.00000  Uiso   1.00
C161   C     0.09561   0.68985   0.99682   0.00000  Uiso   1.00
H162   H     0.14649   0.57999   0.29972   0.00000  Uiso   1.00
H163   H     0.09144   0.51908   0.18459   0.00000  Uiso   1.00
H164   H     0.28464   0.58003   0.44303   0.00000  Uiso   1.00
H165   H     0.05323   0.63781   0.30960   0.00000  Uiso   1.00
H166   H     0.04649   0.45637   0.99705   0.00000  Uiso   1.00
H167   H     0.45387   0.58490   0.54200   0.00000  Uiso   1.00
H168   H     0.96590   0.70674   0.26065   0.00000  Uiso   1.00
H169   H     0.27019   0.61721   0.83812   0.00000  Uiso   1.00
H170   H     0.22193   0.55834   0.69765   0.00000  Uiso   1.00
H171   H     0.41514   0.61929   0.95609   0.00000  Uiso   1.00
H172   H     0.18373   0.67706   0.82266   0.00000  Uiso   1.00
H173   H     0.15240   0.48823   0.60183   0.00000  Uiso   1.00
H174   H     0.55979   0.61677   0.14679   0.00000  Uiso   1.00
H175   H     0.07181   0.73860   0.86543   0.00000  Uiso   1.00
O176   O     0.06549   0.43290   0.71538   0.00000  Uiso   1.00
O177   O     0.59995   0.60154   0.43034   0.00000  Uiso   1.00
O178   O     0.95974   0.76137   0.06120   0.00000  Uiso   1.00
N179   N     0.07802   0.47195   0.92331   0.00000  Uiso   1.00
N180   N     0.45890   0.59212   0.43280   0.00000  Uiso   1.00
N181   N     0.00271   0.70602   0.16977   0.00000  Uiso   1.00
N182   N     0.13501   0.48910   0.71064   0.00000  Uiso   1.00
N183   N     0.51589   0.60926   0.22013   0.00000  Uiso   1.00
N184   N     0.05970   0.72317   0.95711   0.00000  Uiso   1.00
C185   C     0.82518   0.08852   0.69397   0.00000  Uiso   1.00
C186   C     0.83794   0.06059   0.56740   0.00000  Uiso   1.00
C187   C     0.88040   0.02755   0.57944   0.00000  Uiso   1.00
C188   C     0.88518   0.00582   0.45069   0.00000  Uiso   1.00
C189   C     0.91050   0.96077   0.27484   0.00000  Uiso   1.00
C190   C     0.73296   0.09370   0.70781   0.00000  Uiso   1.00
C191   C     0.68717   0.08850   0.83792   0.00000  Uiso   1.00
C192   C     0.60357   0.09466   0.82737   0.00000  Uiso   1.00
C193   C     0.46592   0.10104   0.86955   0.00000  Uiso   1.00
C194   C     0.85870   0.12509   0.63531   0.00000  Uiso   1.00
C195   C     0.91861   0.14629   0.70448   0.00000  Uiso   1.00
C196   C     0.94087   0.17887   0.63290   0.00000  Uiso   1.00
C197   C     0.99844   0.23400   0.56252   0.00000  Uiso   1.00
C198   C     0.75815   0.10868   0.44388   0.00000  Uiso   1.00
C199   C     0.80153   0.07154   0.43156   0.00000  Uiso   1.00
C200   C     0.80625   0.04986   0.30275   0.00000  Uiso   1.00
C201   C     0.84872   0.01679   0.31460   0.00000  Uiso   1.00
C202   C     0.69655   0.10465   0.57198   0.00000  Uiso   1.00
C203   C     0.61301   0.11081   0.56123   0.00000  Uiso   1.00
C204   C     0.56710   0.10563   0.69129   0.00000  Uiso   1.00
C205   C     0.82229   0.13604   0.49947   0.00000  Uiso   1.00
C206   C     0.84446   0.16860   0.42778   0.00000  Uiso   1.00
C207   C     0.90439   0.18985   0.49682   0.00000  Uiso   1.00
H208   H     0.85351   0.07999   0.79972   0.00000  Uiso   1.00
H209   H     0.90856   0.01908   0.68459   0.00000  Uiso   1.00
H210   H     0.71536   0.08003   0.94303   0.00000  Uiso   1.00
H211   H     0.94677   0.13781   0.80960   0.00000  Uiso   1.00
H212   H     0.95351   0.95637   0.49705   0.00000  Uiso   1.00
H213   H     0.54613   0.08490   0.04200   0.00000  Uiso   1.00
H214   H     0.03410   0.20674   0.76065   0.00000  Uiso   1.00
H215   H     0.72981   0.11721   0.33812   0.00000  Uiso   1.00
H216   H     0.77807   0.05834   0.19765   0.00000  Uiso   1.00
H217   H     0.58486   0.11929   0.45609   0.00000  Uiso   1.00
H218   H     0.81627   0.17706   0.32266   0.00000  Uiso   1.00
H219   H     0.84760   0.98823   0.10183   0.00000  Uiso   1.00
H220   H     0.44021   0.11677   0.64679   0.00000  Uiso   1.00
H221   H     0.92819   0.23860   0.36543   0.00000  Uiso   1.00
O222   O     0.93451   0.93290   0.21538   0.00000  Uiso   1.00
O223   O     0.40005   0.10154   0.93034   0.00000  Uiso   1.00
O224   O     0.04026   0.26137   0.56120   0.00000  Uiso   1.00
N225   N     0.92198   0.97195   0.42331   0.00000  Uiso   1.00
N226   N     0.54110   0.09212   0.93280   0.00000  Uiso   1.00
N227   N     0.99729   0.20602   0.66977   0.00000  Uiso   1.00
N228   N     0.86499   0.98910   0.21064   0.00000  Uiso   1.00
N229   N     0.48411   0.10926   0.72013   0.00000  Uiso   1.00
N230   N     0.94030   0.22317   0.45711   0.00000  Uiso   1.00
C231   C     0.67482   0.91148   0.69397   0.00000  Uiso   1.00
C232   C     0.66206   0.93941   0.56740   0.00000  Uiso   1.00
C233   C     0.61960   0.97245   0.57944   0.00000  Uiso   1.00
C234   C     0.61482   0.99418   0.45069   0.00000  Uiso   1.00
C235   C     0.58950   0.03923   0.27484   0.00000  Uiso   1.00
C236   C     0.76704   0.90630   0.70781   0.00000  Uiso   1.00
C237   C     0.81283   0.91150   0.83792   0.00000  Uiso   1.00
C238   C     0.89643   0.90534   0.82737   0.00000  Uiso   1.00
C239   C     0.03408   0.89896   0.86955   0.00000  Uiso   1.00
C240   C     0.64130   0.87491   0.63531   0.00000  Uiso   1.00
C241   C     0.58139   0.85371   0.70448   0.00000  Uiso   1.00
C242   C     0.55913   0.82113   0.63290   0.00000  Uiso   1.00
C243   C     0.50156   0.76600   0.56252   0.00000  Uiso   1.00
C244   C     0.74185   0.89132   0.44388   0.00000  Uiso   1.00
C245   C     0.69847   0.92846   0.43156   0.00000  Uiso   1.00
C246   C     0.69375   0.95014   0.30275   0.00000  Uiso   1.00
C247   C     0.65128   0.98321   0.31460   0.00000  Uiso   1.00
C248   C     0.80345   0.89535   0.57198   0.00000  Uiso   1.00
C249   C     0.88699   0.88919   0.56123   0.00000  Uiso   1.00
C250   C     0.93290   0.89437   0.69129   0.00000  Uiso   1.00
C251   C     0.67771   0.86396   0.49947   0.00000  Uiso   1.00
C252   C     0.65554   0.83140   0.42778   0.00000  Uiso   1.00
C253   C     0.59561   0.81015   0.49682   0.00000  Uiso   1.00
H254   H     0.64649   0.92001   0.79972   0.00000  Uiso   1.00
H255   H     0.59144   0.98092   0.68459   0.00000  Uiso   1.00
H256   H     0.78464   0.91997   0.94303   0.00000  Uiso   1.00
H257   H     0.55323   0.86219   0.80960   0.00000  Uiso   1.00
H258   H     0.54649   0.04363   0.49705   0.00000  Uiso   1.00
H259   H     0.95387   0.91510   0.04200   0.00000  Uiso   1.00
H260   H     0.46590   0.79326   0.76065   0.00000  Uiso   1.00
H261   H     0.77019   0.88279   0.33812   0.00000  Uiso   1.00
H262   H     0.72193   0.94166   0.19765   0.00000  Uiso   1.00
H263   H     0.91514   0.88071   0.45609   0.00000  Uiso   1.00
H264   H     0.68373   0.82294   0.32266   0.00000  Uiso   1.00
H265   H     0.65240   0.01177   0.10183   0.00000  Uiso   1.00
H266   H     0.05979   0.88323   0.64679   0.00000  Uiso   1.00
H267   H     0.57181   0.76140   0.36543   0.00000  Uiso   1.00
O268   O     0.56549   0.06710   0.21538   0.00000  Uiso   1.00
O269   O     0.09995   0.89846   0.93034   0.00000  Uiso   1.00
O270   O     0.45974   0.73863   0.56120   0.00000  Uiso   1.00
N271   N     0.57802   0.02805   0.42331   0.00000  Uiso   1.00
N272   N     0.95890   0.90788   0.93280   0.00000  Uiso   1.00
N273   N     0.50271   0.79398   0.66977   0.00000  Uiso   1.00
N274   N     0.63501   0.01090   0.21064   0.00000  Uiso   1.00
N275   N     0.01589   0.89074   0.72013   0.00000  Uiso   1.00
N276   N     0.55970   0.77683   0.45711   0.00000  Uiso   1.00
C277   C     0.67482   0.58852   0.80603   0.00000  Uiso   1.00
C278   C     0.66206   0.56059   0.93260   0.00000  Uiso   1.00
C279   C     0.61960   0.52755   0.92056   0.00000  Uiso   1.00
C280   C     0.61482   0.50582   0.04931   0.00000  Uiso   1.00
C281   C     0.58950   0.46077   0.22516   0.00000  Uiso   1.00
C282   C     0.76704   0.59370   0.79219   0.00000  Uiso   1.00
C283   C     0.81283   0.58850   0.66208   0.00000  Uiso   1.00
C284   C     0.89643   0.59466   0.67263   0.00000  Uiso   1.00
C285   C     0.03408   0.60104   0.63045   0.00000  Uiso   1.00
C286   C     0.64130   0.62509   0.86469   0.00000  Uiso   1.00
C287   C     0.58139   0.64629   0.79552   0.00000  Uiso   1.00
C288   C     0.55913   0.67887   0.86710   0.00000  Uiso   1.00
C289   C     0.50156   0.73400   0.93748   0.00000  Uiso   1.00
C290   C     0.74185   0.60868   0.05612   0.00000  Uiso   1.00
C291   C     0.69847   0.57154   0.06844   0.00000  Uiso   1.00
C292   C     0.69375   0.54986   0.19725   0.00000  Uiso   1.00
C293   C     0.65128   0.51679   0.18540   0.00000  Uiso   1.00
C294   C     0.80345   0.60465   0.92802   0.00000  Uiso   1.00
C295   C     0.88699   0.61081   0.93877   0.00000  Uiso   1.00
C296   C     0.93290   0.60563   0.80871   0.00000  Uiso   1.00
C297   C     0.67771   0.63604   0.00053   0.00000  Uiso   1.00
C298   C     0.65554   0.66860   0.07222   0.00000  Uiso   1.00
C299   C     0.59561   0.68985   0.00318   0.00000  Uiso   1.00
H300   H     0.64649   0.57999   0.70028   0.00000  Uiso   1.00
H301   H     0.59144   0.51908   0.81541   0.00000  Uiso   1.00
H302   H     0.78464   0.58003   0.55697   0.00000  Uiso   1.00
H303   H     0.55323   0.63781   0.69040   0.00000  Uiso   1.00
H304   H     0.54649   0.45637   0.00295   0.00000  Uiso   1.00
H305   H     0.95387   0.58490   0.45800   0.00000  Uiso   1.00
H306   H     0.46590   0.70674   0.73935   0.00000  Uiso   1.00
H307   H     0.77019   0.61721   0.16188   0.00000  Uiso   1.00
H308   H     0.72193   0.55834   0.30235   0.00000  Uiso   1.00
H309   H     0.91514   0.61929   0.04391   0.00000  Uiso   1.00
H310   H     0.68373   0.67706   0.17734   0.00000  Uiso   1.00
H311   H     0.65240   0.48823   0.39817   0.00000  Uiso   1.00
H312   H     0.05979   0.61677   0.85321   0.00000  Uiso   1.00
H313   H     0.57181   0.73860   0.13457   0.00000  Uiso   1.00
O314   O     0.56549   0.43290   0.28462   0.00000  Uiso   1.00
O315   O     0.09995   0.60154   0.56966   0.00000  Uiso   1.00
O316   O     0.45974   0.76137   0.93880   0.00000  Uiso   1.00
N317   N     0.57802   0.47195   0.07669   0.00000  Uiso   1.00
N318   N     0.95890   0.59212   0.56720   0.00000  Uiso   1.00
N319   N     0.50271   0.70602   0.83023   0.00000  Uiso   1.00
N320   N     0.63501   0.48910   0.28936   0.00000  Uiso   1.00
N321   N     0.01589   0.60926   0.77987   0.00000  Uiso   1.00
N322   N     0.55970   0.72317   0.04289   0.00000  Uiso   1.00
C323   C     0.82518   0.41148   0.80603   0.00000  Uiso   1.00
C324   C     0.83794   0.43941   0.93260   0.00000  Uiso   1.00
C325   C     0.88040   0.47245   0.92056   0.00000  Uiso   1.00
C326   C     0.88518   0.49418   0.04931   0.00000  Uiso   1.00
C327   C     0.91050   0.53923   0.22516   0.00000  Uiso   1.00
C328   C     0.73296   0.40630   0.79219   0.00000  Uiso   1.00
C329   C     0.68717   0.41150   0.66208   0.00000  Uiso   1.00
C330   C     0.60357   0.40534   0.67263   0.00000  Uiso   1.00
C331   C     0.46592   0.39896   0.63045   0.00000  Uiso   1.00
C332   C     0.85870   0.37491   0.86469   0.00000  Uiso   1.00
C333   C     0.91861   0.35371   0.79552   0.00000  Uiso   1.00
C334   C     0.94087   0.32113   0.86710   0.00000  Uiso   1.00
C335   C     0.99844   0.26600   0.93748   0.00000  Uiso   1.00
C336   C     0.75815   0.39132   0.05612   0.00000  Uiso   1.00
C337   C     0.80153   0.42846   0.06844   0.00000  Uiso   1.00
C338   C     0.80625   0.45014   0.19725   0.00000  Uiso   1.00
C339   C     0.84872   0.48321   0.18540   0.00000  Uiso   1.00
C340   C     0.69655   0.39535   0.92802   0.00000  Uiso   1.00
C341   C     0.61301   0.38919   0.93877   0.00000  Uiso   1.00
C342   C     0.56710   0.39437   0.80871   0.00000  Uiso   1.00
C343   C     0.82229   0.36396   0.00053   0.00000  Uiso   1.00
C344   C     0.84446   0.33140   0.07222   0.00000  Uiso   1.00
C345   C     0.90439   0.31015   0.00318   0.00000  Uiso   1.00
H346   H     0.85351   0.42001   0.70028   0.00000  Uiso   1.00
H347   H     0.90856   0.48092   0.81541   0.00000  Uiso   1.00
H348   H     0.71536   0.41997   0.55697   0.00000  Uiso   1.00
H349   H     0.94677   0.36219   0.69040   0.00000  Uiso   1.00
H350   H     0.95351   0.54363   0.00295   0.00000  Uiso   1.00
H351   H     0.54613   0.41510   0.45800   0.00000  Uiso   1.00
H352   H     0.03410   0.29326   0.73935   0.00000  Uiso   1.00
H353   H     0.72981   0.38279   0.16188   0.00000  Uiso   1.00
H354   H     0.77807   0.44166   0.30235   0.00000  Uiso   1.00
H355   H     0.58486   0.38071   0.04391   0.00000  Uiso   1.00
H356   H     0.81627   0.32294   0.17734   0.00000  Uiso   1.00
H357   H     0.84760   0.51177   0.39817   0.00000  Uiso   1.00
H358   H     0.44021   0.38323   0.85321   0.00000  Uiso   1.00
H359   H     0.92819   0.26140   0.13457   0.00000  Uiso   1.00
O360   O     0.93451   0.56710   0.28462   0.00000  Uiso   1.00
O361   O     0.40005   0.39846   0.56966   0.00000  Uiso   1.00
O362   O     0.04026   0.23863   0.93880   0.00000  Uiso   1.00
N363   N     0.92198   0.52805   0.07669   0.00000  Uiso   1.00
N364   N     0.54110   0.40788   0.56720   0.00000  Uiso   1.00
N365   N     0.99729   0.29398   0.83023   0.00000  Uiso   1.00
N366   N     0.86499   0.51090   0.28936   0.00000  Uiso   1.00
N367   N     0.48411   0.39074   0.77987   0.00000  Uiso   1.00
N368   N     0.94030   0.27683   0.04289   0.00000  Uiso   1.00
