data_job_00803
_audit_creation_date              2018-12-19
_audit_creation_method            'Materials Studio'
_symmetry_space_group_name_H-M    'P1'
_symmetry_Int_Tables_number       1
_symmetry_cell_setting            triclinic
loop_
_symmetry_equiv_pos_as_xyz
  x,y,z
_cell_length_a                    19.9961
_cell_length_b                    18.8817
_cell_length_c                    15.5276
_cell_angle_alpha                 90.0000
_cell_angle_beta                  90.0000
_cell_angle_gamma                 90.0000
loop_
_atom_site_label
_atom_site_type_symbol
_atom_site_fract_x
_atom_site_fract_y
_atom_site_fract_z
_atom_site_U_iso_or_equiv
_atom_site_adp_type
_atom_site_occupancy
C1     C     0.90053   0.35600   0.13178   0.00000  Uiso   1.00
C2     C     0.85656   0.38335   0.20480   0.00000  Uiso   1.00
C3     C     0.82378   0.44812   0.20639   0.00000  Uiso   1.00
C4     C     0.78598   0.46332   0.27908   0.00000  Uiso   1.00
C5     C     0.71846   0.51310   0.38204   0.00000  Uiso   1.00
C6     C     0.96821   0.33922   0.17218   0.00000  Uiso   1.00
C7     C     0.02931   0.36688   0.14634   0.00000  Uiso   1.00
C8     C     0.08550   0.34492   0.19157   0.00000  Uiso   1.00
C9     C     0.19132   0.32614   0.24386   0.00000  Uiso   1.00
C10    C     0.87078   0.28500   0.10490   0.00000  Uiso   1.00
C11    C     0.84997   0.26706   0.02247   0.00000  Uiso   1.00
C12    C     0.82415   0.19945   0.01104   0.00000  Uiso   1.00
C13    C     0.77871   0.09649   0.95885   0.00000  Uiso   1.00
C14    C     0.89170   0.26782   0.25805   0.00000  Uiso   1.00
C15    C     0.85177   0.33546   0.27339   0.00000  Uiso   1.00
C16    C     0.81401   0.35056   0.34609   0.00000  Uiso   1.00
C17    C     0.78117   0.41534   0.34779   0.00000  Uiso   1.00
C18    C     0.96342   0.29133   0.24077   0.00000  Uiso   1.00
C19    C     0.01953   0.26932   0.28604   0.00000  Uiso   1.00
C20    C     0.08069   0.29694   0.26028   0.00000  Uiso   1.00
C21    C     0.86598   0.23711   0.17348   0.00000  Uiso   1.00
C22    C     0.84020   0.16951   0.16218   0.00000  Uiso   1.00
C23    C     0.81935   0.15147   0.07975   0.00000  Uiso   1.00
H24    H     0.90427   0.39329   0.07838   0.00000  Uiso   1.00
H25    H     0.82751   0.48518   0.15330   0.00000  Uiso   1.00
H26    H     0.03300   0.40393   0.09326   0.00000  Uiso   1.00
H27    H     0.85369   0.30414   0.96941   0.00000  Uiso   1.00
H28    H     0.74030   0.56594   0.26662   0.00000  Uiso   1.00
H29    H     0.17360   0.39462   0.13999   0.00000  Uiso   1.00
H30    H     0.79550   0.18418   0.87883   0.00000  Uiso   1.00
H31    H     0.88797   0.23053   0.31145   0.00000  Uiso   1.00
H32    H     0.81030   0.31349   0.39916   0.00000  Uiso   1.00
H33    H     0.01580   0.23225   0.33911   0.00000  Uiso   1.00
H34    H     0.83649   0.13246   0.21527   0.00000  Uiso   1.00
H35    H     0.72634   0.42659   0.46617   0.00000  Uiso   1.00
H36    H     0.15965   0.25528   0.33954   0.00000  Uiso   1.00
H37    H     0.78154   0.04484   0.07838   0.00000  Uiso   1.00
O38    O     0.68255   0.55378   0.41989   0.00000  Uiso   1.00
O39    O     0.25102   0.32902   0.25376   0.00000  Uiso   1.00
O40    O     0.75495   0.05293   0.91113   0.00000  Uiso   1.00
N41    N     0.74766   0.52175   0.30154   0.00000  Uiso   1.00
N42    N     0.15277   0.36159   0.18316   0.00000  Uiso   1.00
N43    N     0.79929   0.16484   0.93899   0.00000  Uiso   1.00
N44    N     0.74015   0.44677   0.40891   0.00000  Uiso   1.00
N45    N     0.14526   0.28661   0.29053   0.00000  Uiso   1.00
N46    N     0.79178   0.08986   0.04637   0.00000  Uiso   1.00
C47    C     0.40053   0.85600   0.13178   0.00000  Uiso   1.00
C48    C     0.35656   0.88335   0.20480   0.00000  Uiso   1.00
C49    C     0.32378   0.94812   0.20639   0.00000  Uiso   1.00
C50    C     0.28598   0.96332   0.27908   0.00000  Uiso   1.00
C51    C     0.21846   0.01310   0.38204   0.00000  Uiso   1.00
C52    C     0.46821   0.83922   0.17218   0.00000  Uiso   1.00
C53    C     0.52931   0.86688   0.14634   0.00000  Uiso   1.00
C54    C     0.58550   0.84492   0.19157   0.00000  Uiso   1.00
C55    C     0.69132   0.82614   0.24386   0.00000  Uiso   1.00
C56    C     0.37078   0.78500   0.10490   0.00000  Uiso   1.00
C57    C     0.34997   0.76706   0.02247   0.00000  Uiso   1.00
C58    C     0.32415   0.69945   0.01104   0.00000  Uiso   1.00
C59    C     0.27871   0.59649   0.95885   0.00000  Uiso   1.00
C60    C     0.39170   0.76782   0.25805   0.00000  Uiso   1.00
C61    C     0.35177   0.83546   0.27339   0.00000  Uiso   1.00
C62    C     0.31401   0.85056   0.34609   0.00000  Uiso   1.00
C63    C     0.28117   0.91534   0.34779   0.00000  Uiso   1.00
C64    C     0.46342   0.79133   0.24077   0.00000  Uiso   1.00
C65    C     0.51953   0.76932   0.28604   0.00000  Uiso   1.00
C66    C     0.58069   0.79694   0.26028   0.00000  Uiso   1.00
C67    C     0.36598   0.73711   0.17348   0.00000  Uiso   1.00
C68    C     0.34020   0.66951   0.16218   0.00000  Uiso   1.00
C69    C     0.31935   0.65147   0.07975   0.00000  Uiso   1.00
H70    H     0.40427   0.89329   0.07838   0.00000  Uiso   1.00
H71    H     0.32751   0.98518   0.15330   0.00000  Uiso   1.00
H72    H     0.53300   0.90393   0.09326   0.00000  Uiso   1.00
H73    H     0.35369   0.80414   0.96941   0.00000  Uiso   1.00
H74    H     0.24030   0.06594   0.26662   0.00000  Uiso   1.00
H75    H     0.67360   0.89462   0.13999   0.00000  Uiso   1.00
H76    H     0.29550   0.68418   0.87883   0.00000  Uiso   1.00
H77    H     0.38797   0.73053   0.31145   0.00000  Uiso   1.00
H78    H     0.31030   0.81349   0.39916   0.00000  Uiso   1.00
H79    H     0.51580   0.73225   0.33911   0.00000  Uiso   1.00
H80    H     0.33649   0.63246   0.21527   0.00000  Uiso   1.00
H81    H     0.22634   0.92659   0.46617   0.00000  Uiso   1.00
H82    H     0.65965   0.75528   0.33954   0.00000  Uiso   1.00
H83    H     0.28154   0.54484   0.07838   0.00000  Uiso   1.00
O84    O     0.18255   0.05378   0.41989   0.00000  Uiso   1.00
O85    O     0.75102   0.82902   0.25376   0.00000  Uiso   1.00
O86    O     0.25495   0.55293   0.91113   0.00000  Uiso   1.00
N87    N     0.24766   0.02175   0.30154   0.00000  Uiso   1.00
N88    N     0.65277   0.86159   0.18316   0.00000  Uiso   1.00
N89    N     0.29929   0.66484   0.93899   0.00000  Uiso   1.00
N90    N     0.24015   0.94677   0.40891   0.00000  Uiso   1.00
N91    N     0.64526   0.78661   0.29053   0.00000  Uiso   1.00
N92    N     0.29178   0.58986   0.04637   0.00000  Uiso   1.00
C93    C     0.09947   0.64400   0.13178   0.00000  Uiso   1.00
C94    C     0.14344   0.61665   0.20480   0.00000  Uiso   1.00
C95    C     0.17622   0.55188   0.20639   0.00000  Uiso   1.00
C96    C     0.21402   0.53668   0.27908   0.00000  Uiso   1.00
C97    C     0.28154   0.48690   0.38204   0.00000  Uiso   1.00
C98    C     0.03179   0.66078   0.17218   0.00000  Uiso   1.00
C99    C     0.97069   0.63312   0.14634   0.00000  Uiso   1.00
C100   C     0.91450   0.65508   0.19157   0.00000  Uiso   1.00
C101   C     0.80868   0.67386   0.24386   0.00000  Uiso   1.00
C102   C     0.12922   0.71500   0.10490   0.00000  Uiso   1.00
C103   C     0.15003   0.73294   0.02247   0.00000  Uiso   1.00
C104   C     0.17585   0.80055   0.01104   0.00000  Uiso   1.00
C105   C     0.22129   0.90351   0.95885   0.00000  Uiso   1.00
C106   C     0.10830   0.73218   0.25805   0.00000  Uiso   1.00
C107   C     0.14823   0.66454   0.27339   0.00000  Uiso   1.00
C108   C     0.18599   0.64944   0.34609   0.00000  Uiso   1.00
C109   C     0.21883   0.58466   0.34779   0.00000  Uiso   1.00
C110   C     0.03658   0.70867   0.24077   0.00000  Uiso   1.00
C111   C     0.98047   0.73068   0.28604   0.00000  Uiso   1.00
C112   C     0.91931   0.70306   0.26028   0.00000  Uiso   1.00
C113   C     0.13402   0.76289   0.17348   0.00000  Uiso   1.00
C114   C     0.15980   0.83049   0.16218   0.00000  Uiso   1.00
C115   C     0.18065   0.84853   0.07975   0.00000  Uiso   1.00
H116   H     0.09573   0.60671   0.07838   0.00000  Uiso   1.00
H117   H     0.17249   0.51482   0.15330   0.00000  Uiso   1.00
H118   H     0.96700   0.59607   0.09326   0.00000  Uiso   1.00
H119   H     0.14631   0.69586   0.96941   0.00000  Uiso   1.00
H120   H     0.25970   0.43406   0.26662   0.00000  Uiso   1.00
H121   H     0.82640   0.60538   0.13999   0.00000  Uiso   1.00
H122   H     0.20450   0.81582   0.87883   0.00000  Uiso   1.00
H123   H     0.11203   0.76947   0.31145   0.00000  Uiso   1.00
H124   H     0.18970   0.68651   0.39916   0.00000  Uiso   1.00
H125   H     0.98420   0.76775   0.33911   0.00000  Uiso   1.00
H126   H     0.16351   0.86754   0.21527   0.00000  Uiso   1.00
H127   H     0.27366   0.57341   0.46617   0.00000  Uiso   1.00
H128   H     0.84035   0.74472   0.33954   0.00000  Uiso   1.00
H129   H     0.21846   0.95516   0.07838   0.00000  Uiso   1.00
O130   O     0.31745   0.44622   0.41989   0.00000  Uiso   1.00
O131   O     0.74898   0.67098   0.25376   0.00000  Uiso   1.00
O132   O     0.24505   0.94707   0.91113   0.00000  Uiso   1.00
N133   N     0.25234   0.47825   0.30154   0.00000  Uiso   1.00
N134   N     0.84723   0.63841   0.18316   0.00000  Uiso   1.00
N135   N     0.20071   0.83516   0.93899   0.00000  Uiso   1.00
N136   N     0.25985   0.55323   0.40891   0.00000  Uiso   1.00
N137   N     0.85474   0.71339   0.29053   0.00000  Uiso   1.00
N138   N     0.20822   0.91014   0.04637   0.00000  Uiso   1.00
C139   C     0.59947   0.14400   0.13178   0.00000  Uiso   1.00
C140   C     0.64344   0.11665   0.20480   0.00000  Uiso   1.00
C141   C     0.67622   0.05188   0.20639   0.00000  Uiso   1.00
C142   C     0.71402   0.03668   0.27908   0.00000  Uiso   1.00
C143   C     0.78154   0.98690   0.38204   0.00000  Uiso   1.00
C144   C     0.53179   0.16078   0.17218   0.00000  Uiso   1.00
C145   C     0.47069   0.13312   0.14634   0.00000  Uiso   1.00
C146   C     0.41450   0.15508   0.19157   0.00000  Uiso   1.00
C147   C     0.30868   0.17386   0.24386   0.00000  Uiso   1.00
C148   C     0.62922   0.21500   0.10490   0.00000  Uiso   1.00
C149   C     0.65003   0.23294   0.02247   0.00000  Uiso   1.00
C150   C     0.67585   0.30055   0.01104   0.00000  Uiso   1.00
C151   C     0.72129   0.40351   0.95885   0.00000  Uiso   1.00
C152   C     0.60830   0.23218   0.25805   0.00000  Uiso   1.00
C153   C     0.64823   0.16454   0.27339   0.00000  Uiso   1.00
C154   C     0.68599   0.14944   0.34609   0.00000  Uiso   1.00
C155   C     0.71883   0.08466   0.34779   0.00000  Uiso   1.00
C156   C     0.53658   0.20867   0.24077   0.00000  Uiso   1.00
C157   C     0.48047   0.23068   0.28604   0.00000  Uiso   1.00
C158   C     0.41931   0.20306   0.26028   0.00000  Uiso   1.00
C159   C     0.63402   0.26289   0.17348   0.00000  Uiso   1.00
C160   C     0.65980   0.33049   0.16218   0.00000  Uiso   1.00
C161   C     0.68065   0.34853   0.07975   0.00000  Uiso   1.00
H162   H     0.59573   0.10671   0.07838   0.00000  Uiso   1.00
H163   H     0.67249   0.01482   0.15330   0.00000  Uiso   1.00
H164   H     0.46700   0.09607   0.09326   0.00000  Uiso   1.00
H165   H     0.64631   0.19586   0.96941   0.00000  Uiso   1.00
H166   H     0.75970   0.93406   0.26662   0.00000  Uiso   1.00
H167   H     0.32640   0.10538   0.13999   0.00000  Uiso   1.00
H168   H     0.70450   0.31582   0.87883   0.00000  Uiso   1.00
H169   H     0.61203   0.26947   0.31145   0.00000  Uiso   1.00
H170   H     0.68970   0.18651   0.39916   0.00000  Uiso   1.00
H171   H     0.48420   0.26775   0.33911   0.00000  Uiso   1.00
H172   H     0.66351   0.36754   0.21527   0.00000  Uiso   1.00
H173   H     0.77366   0.07341   0.46617   0.00000  Uiso   1.00
H174   H     0.34035   0.24472   0.33954   0.00000  Uiso   1.00
H175   H     0.71846   0.45516   0.07838   0.00000  Uiso   1.00
O176   O     0.81745   0.94622   0.41989   0.00000  Uiso   1.00
O177   O     0.24898   0.17098   0.25376   0.00000  Uiso   1.00
O178   O     0.74505   0.44707   0.91113   0.00000  Uiso   1.00
N179   N     0.75234   0.97825   0.30154   0.00000  Uiso   1.00
N180   N     0.34723   0.13841   0.18316   0.00000  Uiso   1.00
N181   N     0.70071   0.33516   0.93899   0.00000  Uiso   1.00
N182   N     0.75985   0.05323   0.40891   0.00000  Uiso   1.00
N183   N     0.35474   0.21339   0.29053   0.00000  Uiso   1.00
N184   N     0.70822   0.41014   0.04637   0.00000  Uiso   1.00
C185   C     0.09947   0.35600   0.86822   0.00000  Uiso   1.00
C186   C     0.14344   0.38335   0.79520   0.00000  Uiso   1.00
C187   C     0.17622   0.44812   0.79361   0.00000  Uiso   1.00
C188   C     0.21402   0.46332   0.72092   0.00000  Uiso   1.00
C189   C     0.28154   0.51310   0.61796   0.00000  Uiso   1.00
C190   C     0.03179   0.33922   0.82782   0.00000  Uiso   1.00
C191   C     0.97069   0.36688   0.85366   0.00000  Uiso   1.00
C192   C     0.91450   0.34492   0.80843   0.00000  Uiso   1.00
C193   C     0.80868   0.32614   0.75614   0.00000  Uiso   1.00
C194   C     0.12922   0.28500   0.89510   0.00000  Uiso   1.00
C195   C     0.15003   0.26706   0.97753   0.00000  Uiso   1.00
C196   C     0.17585   0.19945   0.98896   0.00000  Uiso   1.00
C197   C     0.22129   0.09649   0.04115   0.00000  Uiso   1.00
C198   C     0.10830   0.26782   0.74195   0.00000  Uiso   1.00
C199   C     0.14823   0.33546   0.72661   0.00000  Uiso   1.00
C200   C     0.18599   0.35056   0.65391   0.00000  Uiso   1.00
C201   C     0.21883   0.41534   0.65221   0.00000  Uiso   1.00
C202   C     0.03658   0.29133   0.75923   0.00000  Uiso   1.00
C203   C     0.98047   0.26932   0.71396   0.00000  Uiso   1.00
C204   C     0.91931   0.29694   0.73972   0.00000  Uiso   1.00
C205   C     0.13402   0.23711   0.82652   0.00000  Uiso   1.00
C206   C     0.15980   0.16951   0.83782   0.00000  Uiso   1.00
C207   C     0.18065   0.15147   0.92025   0.00000  Uiso   1.00
H208   H     0.09573   0.39329   0.92162   0.00000  Uiso   1.00
H209   H     0.17249   0.48518   0.84670   0.00000  Uiso   1.00
H210   H     0.96700   0.40393   0.90674   0.00000  Uiso   1.00
H211   H     0.14631   0.30414   0.03059   0.00000  Uiso   1.00
H212   H     0.25970   0.56594   0.73338   0.00000  Uiso   1.00
H213   H     0.82640   0.39462   0.86001   0.00000  Uiso   1.00
H214   H     0.20450   0.18418   0.12117   0.00000  Uiso   1.00
H215   H     0.11203   0.23053   0.68855   0.00000  Uiso   1.00
H216   H     0.18970   0.31349   0.60084   0.00000  Uiso   1.00
H217   H     0.98420   0.23225   0.66089   0.00000  Uiso   1.00
H218   H     0.16351   0.13246   0.78473   0.00000  Uiso   1.00
H219   H     0.27366   0.42659   0.53383   0.00000  Uiso   1.00
H220   H     0.84035   0.25528   0.66046   0.00000  Uiso   1.00
H221   H     0.21846   0.04484   0.92162   0.00000  Uiso   1.00
O222   O     0.31745   0.55378   0.58011   0.00000  Uiso   1.00
O223   O     0.74898   0.32902   0.74625   0.00000  Uiso   1.00
O224   O     0.24505   0.05293   0.08887   0.00000  Uiso   1.00
N225   N     0.25234   0.52175   0.69846   0.00000  Uiso   1.00
N226   N     0.84723   0.36159   0.81684   0.00000  Uiso   1.00
N227   N     0.20071   0.16484   0.06101   0.00000  Uiso   1.00
N228   N     0.25985   0.44677   0.59109   0.00000  Uiso   1.00
N229   N     0.85474   0.28661   0.70947   0.00000  Uiso   1.00
N230   N     0.20822   0.08986   0.95363   0.00000  Uiso   1.00
C231   C     0.59947   0.85600   0.86822   0.00000  Uiso   1.00
C232   C     0.64344   0.88335   0.79520   0.00000  Uiso   1.00
C233   C     0.67622   0.94812   0.79361   0.00000  Uiso   1.00
C234   C     0.71402   0.96332   0.72092   0.00000  Uiso   1.00
C235   C     0.78154   0.01310   0.61796   0.00000  Uiso   1.00
C236   C     0.53179   0.83922   0.82782   0.00000  Uiso   1.00
C237   C     0.47069   0.86688   0.85366   0.00000  Uiso   1.00
C238   C     0.41450   0.84492   0.80843   0.00000  Uiso   1.00
C239   C     0.30868   0.82614   0.75614   0.00000  Uiso   1.00
C240   C     0.62922   0.78500   0.89510   0.00000  Uiso   1.00
C241   C     0.65003   0.76706   0.97753   0.00000  Uiso   1.00
C242   C     0.67585   0.69945   0.98896   0.00000  Uiso   1.00
C243   C     0.72129   0.59649   0.04115   0.00000  Uiso   1.00
C244   C     0.60830   0.76782   0.74195   0.00000  Uiso   1.00
C245   C     0.64823   0.83546   0.72661   0.00000  Uiso   1.00
C246   C     0.68599   0.85056   0.65391   0.00000  Uiso   1.00
C247   C     0.71883   0.91534   0.65221   0.00000  Uiso   1.00
C248   C     0.53658   0.79133   0.75923   0.00000  Uiso   1.00
C249   C     0.48047   0.76932   0.71396   0.00000  Uiso   1.00
C250   C     0.41931   0.79694   0.73972   0.00000  Uiso   1.00
C251   C     0.63402   0.73711   0.82652   0.00000  Uiso   1.00
C252   C     0.65980   0.66951   0.83782   0.00000  Uiso   1.00
C253   C     0.68065   0.65147   0.92025   0.00000  Uiso   1.00
H254   H     0.59573   0.89329   0.92162   0.00000  Uiso   1.00
H255   H     0.67249   0.98518   0.84670   0.00000  Uiso   1.00
H256   H     0.46700   0.90393   0.90674   0.00000  Uiso   1.00
H257   H     0.64631   0.80414   0.03059   0.00000  Uiso   1.00
H258   H     0.75970   0.06594   0.73338   0.00000  Uiso   1.00
H259   H     0.32640   0.89462   0.86001   0.00000  Uiso   1.00
H260   H     0.70450   0.68418   0.12117   0.00000  Uiso   1.00
H261   H     0.61203   0.73053   0.68855   0.00000  Uiso   1.00
H262   H     0.68970   0.81349   0.60084   0.00000  Uiso   1.00
H263   H     0.48420   0.73225   0.66089   0.00000  Uiso   1.00
H264   H     0.66351   0.63246   0.78473   0.00000  Uiso   1.00
H265   H     0.77366   0.92659   0.53383   0.00000  Uiso   1.00
H266   H     0.34035   0.75528   0.66046   0.00000  Uiso   1.00
H267   H     0.71846   0.54484   0.92162   0.00000  Uiso   1.00
O268   O     0.81745   0.05378   0.58011   0.00000  Uiso   1.00
O269   O     0.24898   0.82902   0.74625   0.00000  Uiso   1.00
O270   O     0.74505   0.55293   0.08887   0.00000  Uiso   1.00
N271   N     0.75234   0.02175   0.69846   0.00000  Uiso   1.00
N272   N     0.34723   0.86159   0.81684   0.00000  Uiso   1.00
N273   N     0.70071   0.66484   0.06101   0.00000  Uiso   1.00
N274   N     0.75985   0.94677   0.59109   0.00000  Uiso   1.00
N275   N     0.35474   0.78661   0.70947   0.00000  Uiso   1.00
N276   N     0.70822   0.58986   0.95363   0.00000  Uiso   1.00
C277   C     0.90053   0.64400   0.86822   0.00000  Uiso   1.00
C278   C     0.85656   0.61665   0.79520   0.00000  Uiso   1.00
C279   C     0.82378   0.55188   0.79361   0.00000  Uiso   1.00
C280   C     0.78598   0.53668   0.72092   0.00000  Uiso   1.00
C281   C     0.71846   0.48690   0.61796   0.00000  Uiso   1.00
C282   C     0.96821   0.66078   0.82782   0.00000  Uiso   1.00
C283   C     0.02931   0.63312   0.85366   0.00000  Uiso   1.00
C284   C     0.08550   0.65508   0.80843   0.00000  Uiso   1.00
C285   C     0.19132   0.67386   0.75614   0.00000  Uiso   1.00
C286   C     0.87078   0.71500   0.89510   0.00000  Uiso   1.00
C287   C     0.84997   0.73294   0.97753   0.00000  Uiso   1.00
C288   C     0.82415   0.80055   0.98896   0.00000  Uiso   1.00
C289   C     0.77871   0.90351   0.04115   0.00000  Uiso   1.00
C290   C     0.89170   0.73218   0.74195   0.00000  Uiso   1.00
C291   C     0.85177   0.66454   0.72661   0.00000  Uiso   1.00
C292   C     0.81401   0.64944   0.65391   0.00000  Uiso   1.00
C293   C     0.78117   0.58466   0.65221   0.00000  Uiso   1.00
C294   C     0.96342   0.70867   0.75923   0.00000  Uiso   1.00
C295   C     0.01953   0.73068   0.71396   0.00000  Uiso   1.00
C296   C     0.08069   0.70306   0.73972   0.00000  Uiso   1.00
C297   C     0.86598   0.76289   0.82652   0.00000  Uiso   1.00
C298   C     0.84020   0.83049   0.83782   0.00000  Uiso   1.00
C299   C     0.81935   0.84853   0.92025   0.00000  Uiso   1.00
H300   H     0.90427   0.60671   0.92162   0.00000  Uiso   1.00
H301   H     0.82751   0.51482   0.84670   0.00000  Uiso   1.00
H302   H     0.03300   0.59607   0.90674   0.00000  Uiso   1.00
H303   H     0.85369   0.69586   0.03059   0.00000  Uiso   1.00
H304   H     0.74030   0.43406   0.73338   0.00000  Uiso   1.00
H305   H     0.17360   0.60538   0.86001   0.00000  Uiso   1.00
H306   H     0.79550   0.81582   0.12117   0.00000  Uiso   1.00
H307   H     0.88797   0.76947   0.68855   0.00000  Uiso   1.00
H308   H     0.81030   0.68651   0.60084   0.00000  Uiso   1.00
H309   H     0.01580   0.76775   0.66089   0.00000  Uiso   1.00
H310   H     0.83649   0.86754   0.78473   0.00000  Uiso   1.00
H311   H     0.72634   0.57341   0.53383   0.00000  Uiso   1.00
H312   H     0.15965   0.74472   0.66046   0.00000  Uiso   1.00
H313   H     0.78154   0.95516   0.92162   0.00000  Uiso   1.00
O314   O     0.68255   0.44622   0.58011   0.00000  Uiso   1.00
O315   O     0.25102   0.67098   0.74625   0.00000  Uiso   1.00
O316   O     0.75495   0.94707   0.08887   0.00000  Uiso   1.00
N317   N     0.74766   0.47825   0.69846   0.00000  Uiso   1.00
N318   N     0.15277   0.63841   0.81684   0.00000  Uiso   1.00
N319   N     0.79929   0.83516   0.06101   0.00000  Uiso   1.00
N320   N     0.74015   0.55323   0.59109   0.00000  Uiso   1.00
N321   N     0.14526   0.71339   0.70947   0.00000  Uiso   1.00
N322   N     0.79178   0.91014   0.95363   0.00000  Uiso   1.00
C323   C     0.40053   0.14400   0.86822   0.00000  Uiso   1.00
C324   C     0.35656   0.11665   0.79520   0.00000  Uiso   1.00
C325   C     0.32378   0.05188   0.79361   0.00000  Uiso   1.00
C326   C     0.28598   0.03668   0.72092   0.00000  Uiso   1.00
C327   C     0.21846   0.98690   0.61796   0.00000  Uiso   1.00
C328   C     0.46821   0.16078   0.82782   0.00000  Uiso   1.00
C329   C     0.52931   0.13312   0.85366   0.00000  Uiso   1.00
C330   C     0.58550   0.15508   0.80843   0.00000  Uiso   1.00
C331   C     0.69132   0.17386   0.75614   0.00000  Uiso   1.00
C332   C     0.37078   0.21500   0.89510   0.00000  Uiso   1.00
C333   C     0.34997   0.23294   0.97753   0.00000  Uiso   1.00
C334   C     0.32415   0.30055   0.98896   0.00000  Uiso   1.00
C335   C     0.27871   0.40351   0.04115   0.00000  Uiso   1.00
C336   C     0.39170   0.23218   0.74195   0.00000  Uiso   1.00
C337   C     0.35177   0.16454   0.72661   0.00000  Uiso   1.00
C338   C     0.31401   0.14944   0.65391   0.00000  Uiso   1.00
C339   C     0.28117   0.08466   0.65221   0.00000  Uiso   1.00
C340   C     0.46342   0.20867   0.75923   0.00000  Uiso   1.00
C341   C     0.51953   0.23068   0.71396   0.00000  Uiso   1.00
C342   C     0.58069   0.20306   0.73972   0.00000  Uiso   1.00
C343   C     0.36598   0.26289   0.82652   0.00000  Uiso   1.00
C344   C     0.34020   0.33049   0.83782   0.00000  Uiso   1.00
C345   C     0.31935   0.34853   0.92025   0.00000  Uiso   1.00
H346   H     0.40427   0.10671   0.92162   0.00000  Uiso   1.00
H347   H     0.32751   0.01482   0.84670   0.00000  Uiso   1.00
H348   H     0.53300   0.09607   0.90674   0.00000  Uiso   1.00
H349   H     0.35369   0.19586   0.03059   0.00000  Uiso   1.00
H350   H     0.24030   0.93406   0.73338   0.00000  Uiso   1.00
H351   H     0.67360   0.10538   0.86001   0.00000  Uiso   1.00
H352   H     0.29550   0.31582   0.12117   0.00000  Uiso   1.00
H353   H     0.38797   0.26947   0.68855   0.00000  Uiso   1.00
H354   H     0.31030   0.18651   0.60084   0.00000  Uiso   1.00
H355   H     0.51580   0.26775   0.66089   0.00000  Uiso   1.00
H356   H     0.33649   0.36754   0.78473   0.00000  Uiso   1.00
H357   H     0.22634   0.07341   0.53383   0.00000  Uiso   1.00
H358   H     0.65965   0.24472   0.66046   0.00000  Uiso   1.00
H359   H     0.28154   0.45516   0.92162   0.00000  Uiso   1.00
O360   O     0.18255   0.94622   0.58011   0.00000  Uiso   1.00
O361   O     0.75102   0.17098   0.74625   0.00000  Uiso   1.00
O362   O     0.25495   0.44707   0.08887   0.00000  Uiso   1.00
N363   N     0.24766   0.97825   0.69846   0.00000  Uiso   1.00
N364   N     0.65277   0.13841   0.81684   0.00000  Uiso   1.00
N365   N     0.29929   0.33516   0.06101   0.00000  Uiso   1.00
N366   N     0.24015   0.05323   0.59109   0.00000  Uiso   1.00
N367   N     0.64526   0.21339   0.70947   0.00000  Uiso   1.00
N368   N     0.29178   0.41014   0.95363   0.00000  Uiso   1.00
