data_job_04577
_audit_creation_date              2018-12-19
_audit_creation_method            'Materials Studio'
_symmetry_space_group_name_H-M    'P1'
_symmetry_Int_Tables_number       1
_symmetry_cell_setting            triclinic
loop_
_symmetry_equiv_pos_as_xyz
  x,y,z
_cell_length_a                    14.1875
_cell_length_b                    14.7847
_cell_length_c                    12.3666
_cell_angle_alpha                 90.0000
_cell_angle_beta                  86.7965
_cell_angle_gamma                 90.0000
loop_
_atom_site_label
_atom_site_type_symbol
_atom_site_fract_x
_atom_site_fract_y
_atom_site_fract_z
_atom_site_U_iso_or_equiv
_atom_site_adp_type
_atom_site_occupancy
C1     C     0.22924   0.19662   0.67776   0.00000  Uiso   1.00
C2     C     0.14639   0.25940   0.65930   0.00000  Uiso   1.00
C3     C     0.05158   0.23655   0.67267   0.00000  Uiso   1.00
C4     C     0.98654   0.30358   0.65169   0.00000  Uiso   1.00
C5     C     0.85351   0.38786   0.62801   0.00000  Uiso   1.00
C6     C     0.28962   0.19592   0.57180   0.00000  Uiso   1.00
C7     C     0.31525   0.11968   0.51163   0.00000  Uiso   1.00
C8     C     0.37080   0.13327   0.41700   0.00000  Uiso   1.00
C9     C     0.46020   0.11899   0.25754   0.00000  Uiso   1.00
C10    C     0.28809   0.24396   0.76033   0.00000  Uiso   1.00
C11    C     0.31246   0.20812   0.85867   0.00000  Uiso   1.00
C12    C     0.36674   0.26216   0.92276   0.00000  Uiso   1.00
C13    C     0.45376   0.32247   0.05601   0.00000  Uiso   1.00
C14    C     0.28233   0.35631   0.61672   0.00000  Uiso   1.00
C15    C     0.17523   0.34614   0.62614   0.00000  Uiso   1.00
C16    C     0.11032   0.41322   0.60514   0.00000  Uiso   1.00
C17    C     0.01543   0.39047   0.61848   0.00000  Uiso   1.00
C18    C     0.31846   0.28265   0.53865   0.00000  Uiso   1.00
C19    C     0.37399   0.29636   0.44410   0.00000  Uiso   1.00
C20    C     0.39969   0.22017   0.38379   0.00000  Uiso   1.00
C21    C     0.31693   0.33070   0.72718   0.00000  Uiso   1.00
C22    C     0.37119   0.38480   0.79113   0.00000  Uiso   1.00
C23    C     0.39563   0.34905   0.88954   0.00000  Uiso   1.00
H24    H     0.20679   0.12909   0.70357   0.00000  Uiso   1.00
H25    H     0.02929   0.16941   0.69832   0.00000  Uiso   1.00
H26    H     0.29294   0.05257   0.53731   0.00000  Uiso   1.00
H27    H     0.29013   0.14100   0.88429   0.00000  Uiso   1.00
H28    H     0.84522   0.25236   0.67785   0.00000  Uiso   1.00
H29    H     0.40115   0.00598   0.33837   0.00000  Uiso   1.00
H30    H     0.39524   0.19245   0.07005   0.00000  Uiso   1.00
H31    H     0.30478   0.42384   0.59090   0.00000  Uiso   1.00
H32    H     0.13266   0.48034   0.57948   0.00000  Uiso   1.00
H33    H     0.39630   0.36349   0.41847   0.00000  Uiso   1.00
H34    H     0.39350   0.45192   0.76545   0.00000  Uiso   1.00
H35    H     0.92911   0.50472   0.58138   0.00000  Uiso   1.00
H36    H     0.48504   0.25834   0.24191   0.00000  Uiso   1.00
H37    H     0.47914   0.44481   0.97359   0.00000  Uiso   1.00
O38    O     0.77217   0.41038   0.62410   0.00000  Uiso   1.00
O39    O     0.50154   0.08714   0.17873   0.00000  Uiso   1.00
O40    O     0.49378   0.33178   0.13868   0.00000  Uiso   1.00
N41    N     0.88858   0.30400   0.65673   0.00000  Uiso   1.00
N42    N     0.40833   0.07366   0.33933   0.00000  Uiso   1.00
N43    N     0.40283   0.24798   0.02338   0.00000  Uiso   1.00
N44    N     0.93373   0.43979   0.60483   0.00000  Uiso   1.00
N45    N     0.45347   0.20945   0.28743   0.00000  Uiso   1.00
N46    N     0.44798   0.38377   0.97148   0.00000  Uiso   1.00
C47    C     0.83051   0.30780   0.20236   0.00000  Uiso   1.00
C48    C     0.91531   0.24572   0.18074   0.00000  Uiso   1.00
C49    C     0.00925   0.27010   0.18757   0.00000  Uiso   1.00
C50    C     0.07640   0.20349   0.16465   0.00000  Uiso   1.00
C51    C     0.21203   0.12047   0.13538   0.00000  Uiso   1.00
C52    C     0.77543   0.30540   0.09998   0.00000  Uiso   1.00
C53    C     0.75176   0.37995   0.03893   0.00000  Uiso   1.00
C54    C     0.70115   0.36358   0.94804   0.00000  Uiso   1.00
C55    C     0.61956   0.37322   0.79344   0.00000  Uiso   1.00
C56    C     0.76802   0.26151   0.29015   0.00000  Uiso   1.00
C57    C     0.73809   0.29916   0.38898   0.00000  Uiso   1.00
C58    C     0.68122   0.24584   0.45819   0.00000  Uiso   1.00
C59    C     0.58812   0.18732   0.59885   0.00000  Uiso   1.00
C60    C     0.78271   0.14616   0.14951   0.00000  Uiso   1.00
C61    C     0.88935   0.15793   0.15203   0.00000  Uiso   1.00
C62    C     0.95637   0.09126   0.12910   0.00000  Uiso   1.00
C63    C     0.05040   0.11553   0.13590   0.00000  Uiso   1.00
C64    C     0.74947   0.21761   0.07127   0.00000  Uiso   1.00
C65    C     0.69888   0.20112   0.98045   0.00000  Uiso   1.00
C66    C     0.67514   0.27563   0.91928   0.00000  Uiso   1.00
C67    C     0.74206   0.17371   0.26144   0.00000  Uiso   1.00
C68    C     0.68522   0.12032   0.33051   0.00000  Uiso   1.00
C69    C     0.65521   0.15788   0.42943   0.00000  Uiso   1.00
H70    H     0.85071   0.37615   0.22471   0.00000  Uiso   1.00
H71    H     0.02931   0.33805   0.20978   0.00000  Uiso   1.00
H72    H     0.77185   0.44789   0.06117   0.00000  Uiso   1.00
H73    H     0.75819   0.36710   0.41117   0.00000  Uiso   1.00
H74    H     0.21588   0.25710   0.18052   0.00000  Uiso   1.00
H75    H     0.67298   0.48870   0.86720   0.00000  Uiso   1.00
H76    H     0.64417   0.31835   0.60523   0.00000  Uiso   1.00
H77    H     0.76250   0.07780   0.12716   0.00000  Uiso   1.00
H78    H     0.93626   0.02332   0.10688   0.00000  Uiso   1.00
H79    H     0.67880   0.13317   0.95827   0.00000  Uiso   1.00
H80    H     0.66514   0.05238   0.30827   0.00000  Uiso   1.00
H81    H     0.14035   0.00166   0.09701   0.00000  Uiso   1.00
H82    H     0.59745   0.23326   0.78368   0.00000  Uiso   1.00
H83    H     0.56865   0.06291   0.52172   0.00000  Uiso   1.00
O84    O     0.29401   0.09893   0.12715   0.00000  Uiso   1.00
O85    O     0.58174   0.40279   0.71609   0.00000  Uiso   1.00
O86    O     0.54395   0.17929   0.68437   0.00000  Uiso   1.00
N87    N     0.17425   0.20445   0.16367   0.00000  Uiso   1.00
N88    N     0.66669   0.42099   0.87072   0.00000  Uiso   1.00
N89    N     0.63974   0.26173   0.56071   0.00000  Uiso   1.00
N90    N     0.13361   0.06700   0.11873   0.00000  Uiso   1.00
N91    N     0.62605   0.28353   0.82578   0.00000  Uiso   1.00
N92    N     0.59910   0.12428   0.51577   0.00000  Uiso   1.00
C93    C     0.77076   0.69662   0.32224   0.00000  Uiso   1.00
C94    C     0.85361   0.75940   0.34070   0.00000  Uiso   1.00
C95    C     0.94842   0.73655   0.32733   0.00000  Uiso   1.00
C96    C     0.01346   0.80358   0.34831   0.00000  Uiso   1.00
C97    C     0.14649   0.88786   0.37199   0.00000  Uiso   1.00
C98    C     0.71038   0.69592   0.42820   0.00000  Uiso   1.00
C99    C     0.68475   0.61968   0.48837   0.00000  Uiso   1.00
C100   C     0.62920   0.63327   0.58300   0.00000  Uiso   1.00
C101   C     0.53980   0.61899   0.74246   0.00000  Uiso   1.00
C102   C     0.71191   0.74396   0.23967   0.00000  Uiso   1.00
C103   C     0.68754   0.70812   0.14133   0.00000  Uiso   1.00
C104   C     0.63326   0.76216   0.07724   0.00000  Uiso   1.00
C105   C     0.54624   0.82247   0.94399   0.00000  Uiso   1.00
C106   C     0.71767   0.85631   0.38328   0.00000  Uiso   1.00
C107   C     0.82477   0.84614   0.37386   0.00000  Uiso   1.00
C108   C     0.88968   0.91322   0.39486   0.00000  Uiso   1.00
C109   C     0.98457   0.89047   0.38152   0.00000  Uiso   1.00
C110   C     0.68154   0.78265   0.46135   0.00000  Uiso   1.00
C111   C     0.62601   0.79636   0.55590   0.00000  Uiso   1.00
C112   C     0.60031   0.72017   0.61621   0.00000  Uiso   1.00
C113   C     0.68307   0.83070   0.27282   0.00000  Uiso   1.00
C114   C     0.62881   0.88480   0.20887   0.00000  Uiso   1.00
C115   C     0.60437   0.84905   0.11046   0.00000  Uiso   1.00
H116   H     0.79321   0.62909   0.29643   0.00000  Uiso   1.00
H117   H     0.97071   0.66941   0.30168   0.00000  Uiso   1.00
H118   H     0.70706   0.55257   0.46269   0.00000  Uiso   1.00
H119   H     0.70987   0.64100   0.11571   0.00000  Uiso   1.00
H120   H     0.15478   0.75236   0.32215   0.00000  Uiso   1.00
H121   H     0.59885   0.50598   0.66163   0.00000  Uiso   1.00
H122   H     0.60476   0.69245   0.92995   0.00000  Uiso   1.00
H123   H     0.69522   0.92384   0.40910   0.00000  Uiso   1.00
H124   H     0.86734   0.98034   0.42052   0.00000  Uiso   1.00
H125   H     0.60370   0.86349   0.58153   0.00000  Uiso   1.00
H126   H     0.60650   0.95192   0.23455   0.00000  Uiso   1.00
H127   H     0.07089   0.00472   0.41862   0.00000  Uiso   1.00
H128   H     0.51496   0.75834   0.75809   0.00000  Uiso   1.00
H129   H     0.52086   0.94481   0.02641   0.00000  Uiso   1.00
O130   O     0.22783   0.91038   0.37590   0.00000  Uiso   1.00
O131   O     0.49846   0.58714   0.82127   0.00000  Uiso   1.00
O132   O     0.50622   0.83178   0.86132   0.00000  Uiso   1.00
N133   N     0.11142   0.80400   0.34327   0.00000  Uiso   1.00
N134   N     0.59167   0.57366   0.66067   0.00000  Uiso   1.00
N135   N     0.59717   0.74798   0.97662   0.00000  Uiso   1.00
N136   N     0.06627   0.93979   0.39517   0.00000  Uiso   1.00
N137   N     0.54653   0.70945   0.71257   0.00000  Uiso   1.00
N138   N     0.55202   0.88377   0.02852   0.00000  Uiso   1.00
C139   C     0.16949   0.80780   0.79764   0.00000  Uiso   1.00
C140   C     0.08469   0.74572   0.81926   0.00000  Uiso   1.00
C141   C     0.99075   0.77010   0.81243   0.00000  Uiso   1.00
C142   C     0.92360   0.70349   0.83535   0.00000  Uiso   1.00
C143   C     0.78797   0.62047   0.86462   0.00000  Uiso   1.00
C144   C     0.22457   0.80540   0.90002   0.00000  Uiso   1.00
C145   C     0.24824   0.87995   0.96107   0.00000  Uiso   1.00
C146   C     0.29885   0.86358   0.05196   0.00000  Uiso   1.00
C147   C     0.38044   0.87322   0.20656   0.00000  Uiso   1.00
C148   C     0.23198   0.76151   0.70985   0.00000  Uiso   1.00
C149   C     0.26191   0.79916   0.61102   0.00000  Uiso   1.00
C150   C     0.31878   0.74584   0.54181   0.00000  Uiso   1.00
C151   C     0.41188   0.68732   0.40115   0.00000  Uiso   1.00
C152   C     0.21729   0.64616   0.85049   0.00000  Uiso   1.00
C153   C     0.11065   0.65793   0.84797   0.00000  Uiso   1.00
C154   C     0.04363   0.59126   0.87090   0.00000  Uiso   1.00
C155   C     0.94960   0.61553   0.86410   0.00000  Uiso   1.00
C156   C     0.25053   0.71761   0.92873   0.00000  Uiso   1.00
C157   C     0.30112   0.70112   0.01955   0.00000  Uiso   1.00
C158   C     0.32486   0.77563   0.08072   0.00000  Uiso   1.00
C159   C     0.25794   0.67371   0.73856   0.00000  Uiso   1.00
C160   C     0.31478   0.62032   0.66949   0.00000  Uiso   1.00
C161   C     0.34479   0.65788   0.57057   0.00000  Uiso   1.00
H162   H     0.14929   0.87615   0.77529   0.00000  Uiso   1.00
H163   H     0.97069   0.83805   0.79022   0.00000  Uiso   1.00
H164   H     0.22815   0.94789   0.93883   0.00000  Uiso   1.00
H165   H     0.24181   0.86710   0.58883   0.00000  Uiso   1.00
H166   H     0.78412   0.75710   0.81948   0.00000  Uiso   1.00
H167   H     0.32702   0.98870   0.13280   0.00000  Uiso   1.00
H168   H     0.35583   0.81835   0.39477   0.00000  Uiso   1.00
H169   H     0.23750   0.57780   0.87284   0.00000  Uiso   1.00
H170   H     0.06374   0.52332   0.89312   0.00000  Uiso   1.00
H171   H     0.32120   0.63317   0.04173   0.00000  Uiso   1.00
H172   H     0.33486   0.55238   0.69173   0.00000  Uiso   1.00
H173   H     0.85965   0.50166   0.90299   0.00000  Uiso   1.00
H174   H     0.40255   0.73326   0.21632   0.00000  Uiso   1.00
H175   H     0.43135   0.56291   0.47828   0.00000  Uiso   1.00
O176   O     0.70599   0.59893   0.87285   0.00000  Uiso   1.00
O177   O     0.41826   0.90279   0.28391   0.00000  Uiso   1.00
O178   O     0.45605   0.67929   0.31563   0.00000  Uiso   1.00
N179   N     0.82575   0.70445   0.83633   0.00000  Uiso   1.00
N180   N     0.33331   0.92099   0.12928   0.00000  Uiso   1.00
N181   N     0.36026   0.76173   0.43929   0.00000  Uiso   1.00
N182   N     0.86639   0.56700   0.88127   0.00000  Uiso   1.00
N183   N     0.37395   0.78353   0.17422   0.00000  Uiso   1.00
N184   N     0.40090   0.62428   0.48423   0.00000  Uiso   1.00
