data_job_04678
_audit_creation_date              2018-12-19
_audit_creation_method            'Materials Studio'
_symmetry_space_group_name_H-M    'P1'
_symmetry_Int_Tables_number       1
_symmetry_cell_setting            triclinic
loop_
_symmetry_equiv_pos_as_xyz
  x,y,z
_cell_length_a                    18.5438
_cell_length_b                    11.2893
_cell_length_c                    12.5936
_cell_angle_alpha                 90.0000
_cell_angle_beta                  90.8972
_cell_angle_gamma                 90.0000
loop_
_atom_site_label
_atom_site_type_symbol
_atom_site_fract_x
_atom_site_fract_y
_atom_site_fract_z
_atom_site_U_iso_or_equiv
_atom_site_adp_type
_atom_site_occupancy
C1     C     0.65651   0.81616   0.58484   0.00000  Uiso   1.00
C2     C     0.64154   0.88339   0.48181   0.00000  Uiso   1.00
C3     C     0.57902   0.87569   0.42019   0.00000  Uiso   1.00
C4     C     0.57578   0.94431   0.32875   0.00000  Uiso   1.00
C5     C     0.54383   0.03746   0.17311   0.00000  Uiso   1.00
C6     C     0.72642   0.74805   0.56796   0.00000  Uiso   1.00
C7     C     0.73526   0.62655   0.57878   0.00000  Uiso   1.00
C8     C     0.80348   0.58125   0.55988   0.00000  Uiso   1.00
C9     C     0.90332   0.46429   0.53805   0.00000  Uiso   1.00
C10    C     0.67383   0.90994   0.66856   0.00000  Uiso   1.00
C11    C     0.63848   0.92455   0.76400   0.00000  Uiso   1.00
C12    C     0.66243   0.01554   0.82981   0.00000  Uiso   1.00
C13    C     0.68063   0.14994   0.96419   0.00000  Uiso   1.00
C14    C     0.76194   0.95175   0.53205   0.00000  Uiso   1.00
C15    C     0.69880   0.95704   0.45314   0.00000  Uiso   1.00
C16    C     0.69566   0.02570   0.36177   0.00000  Uiso   1.00
C17    C     0.63314   0.01810   0.30002   0.00000  Uiso   1.00
C18    C     0.78368   0.82169   0.53928   0.00000  Uiso   1.00
C19    C     0.85190   0.77656   0.52037   0.00000  Uiso   1.00
C20    C     0.86084   0.65503   0.53115   0.00000  Uiso   1.00
C21    C     0.73110   0.98359   0.63989   0.00000  Uiso   1.00
C22    C     0.75511   0.07457   0.70558   0.00000  Uiso   1.00
C23    C     0.71980   0.08931   0.80108   0.00000  Uiso   1.00
H24    H     0.61194   0.75882   0.60717   0.00000  Uiso   1.00
H25    H     0.53472   0.81867   0.44240   0.00000  Uiso   1.00
H26    H     0.69094   0.56959   0.60098   0.00000  Uiso   1.00
H27    H     0.59417   0.86754   0.78616   0.00000  Uiso   1.00
H28    H     0.47437   0.91748   0.24706   0.00000  Uiso   1.00
H29    H     0.80378   0.39227   0.58147   0.00000  Uiso   1.00
H30    H     0.59972   0.02056   0.97196   0.00000  Uiso   1.00
H31    H     0.80652   0.00909   0.50972   0.00000  Uiso   1.00
H32    H     0.73998   0.08268   0.33960   0.00000  Uiso   1.00
H33    H     0.89620   0.83358   0.49818   0.00000  Uiso   1.00
H34    H     0.79943   0.13154   0.68336   0.00000  Uiso   1.00
H35    H     0.64097   0.13175   0.16362   0.00000  Uiso   1.00
H36    H     0.97038   0.60653   0.49804   0.00000  Uiso   1.00
H37    H     0.76631   0.23483   0.88852   0.00000  Uiso   1.00
O38    O     0.51039   0.06848   0.09517   0.00000  Uiso   1.00
O39    O     0.94256   0.37942   0.53393   0.00000  Uiso   1.00
O40    O     0.67484   0.20374   0.04623   0.00000  Uiso   1.00
N41    N     0.52270   0.95783   0.25078   0.00000  Uiso   1.00
N42    N     0.83068   0.46678   0.56342   0.00000  Uiso   1.00
N43    N     0.63991   0.05416   0.92851   0.00000  Uiso   1.00
N44    N     0.61235   0.07313   0.20588   0.00000  Uiso   1.00
N45    N     0.92032   0.58208   0.51852   0.00000  Uiso   1.00
N46    N     0.72956   0.16946   0.88361   0.00000  Uiso   1.00
C47    C     0.34349   0.31616   0.91516   0.00000  Uiso   1.00
C48    C     0.35846   0.38339   0.01819   0.00000  Uiso   1.00
C49    C     0.42098   0.37569   0.07981   0.00000  Uiso   1.00
C50    C     0.42422   0.44431   0.17125   0.00000  Uiso   1.00
C51    C     0.45617   0.53746   0.32689   0.00000  Uiso   1.00
C52    C     0.27358   0.24805   0.93204   0.00000  Uiso   1.00
C53    C     0.26474   0.12655   0.92122   0.00000  Uiso   1.00
C54    C     0.19652   0.08125   0.94012   0.00000  Uiso   1.00
C55    C     0.09668   0.96429   0.96195   0.00000  Uiso   1.00
C56    C     0.32617   0.40994   0.83144   0.00000  Uiso   1.00
C57    C     0.36152   0.42455   0.73600   0.00000  Uiso   1.00
C58    C     0.33757   0.51554   0.67019   0.00000  Uiso   1.00
C59    C     0.31937   0.64994   0.53581   0.00000  Uiso   1.00
C60    C     0.23806   0.45175   0.96795   0.00000  Uiso   1.00
C61    C     0.30120   0.45704   0.04686   0.00000  Uiso   1.00
C62    C     0.30434   0.52570   0.13823   0.00000  Uiso   1.00
C63    C     0.36686   0.51810   0.19998   0.00000  Uiso   1.00
C64    C     0.21632   0.32169   0.96072   0.00000  Uiso   1.00
C65    C     0.14810   0.27656   0.97963   0.00000  Uiso   1.00
C66    C     0.13916   0.15503   0.96885   0.00000  Uiso   1.00
C67    C     0.26890   0.48359   0.86011   0.00000  Uiso   1.00
C68    C     0.24489   0.57457   0.79442   0.00000  Uiso   1.00
C69    C     0.28020   0.58931   0.69892   0.00000  Uiso   1.00
H70    H     0.38806   0.25882   0.89283   0.00000  Uiso   1.00
H71    H     0.46528   0.31867   0.05760   0.00000  Uiso   1.00
H72    H     0.30906   0.06959   0.89902   0.00000  Uiso   1.00
H73    H     0.40583   0.36754   0.71384   0.00000  Uiso   1.00
H74    H     0.52563   0.41748   0.25294   0.00000  Uiso   1.00
H75    H     0.19622   0.89227   0.91853   0.00000  Uiso   1.00
H76    H     0.40028   0.52056   0.52804   0.00000  Uiso   1.00
H77    H     0.19348   0.50909   0.99028   0.00000  Uiso   1.00
H78    H     0.26002   0.58268   0.16040   0.00000  Uiso   1.00
H79    H     0.10380   0.33358   0.00182   0.00000  Uiso   1.00
H80    H     0.20057   0.63154   0.81664   0.00000  Uiso   1.00
H81    H     0.35903   0.63175   0.33638   0.00000  Uiso   1.00
H82    H     0.02962   0.10653   0.00196   0.00000  Uiso   1.00
H83    H     0.23369   0.73483   0.61148   0.00000  Uiso   1.00
O84    O     0.48961   0.56848   0.40483   0.00000  Uiso   1.00
O85    O     0.05744   0.87942   0.96607   0.00000  Uiso   1.00
O86    O     0.32516   0.70374   0.45377   0.00000  Uiso   1.00
N87    N     0.47730   0.45783   0.24922   0.00000  Uiso   1.00
N88    N     0.16932   0.96678   0.93658   0.00000  Uiso   1.00
N89    N     0.36009   0.55416   0.57149   0.00000  Uiso   1.00
N90    N     0.38765   0.57313   0.29412   0.00000  Uiso   1.00
N91    N     0.07968   0.08208   0.98148   0.00000  Uiso   1.00
N92    N     0.27044   0.66946   0.61639   0.00000  Uiso   1.00
C93    C     0.34349   0.18384   0.41516   0.00000  Uiso   1.00
C94    C     0.35846   0.11661   0.51819   0.00000  Uiso   1.00
C95    C     0.42098   0.12431   0.57981   0.00000  Uiso   1.00
C96    C     0.42422   0.05569   0.67125   0.00000  Uiso   1.00
C97    C     0.45617   0.96254   0.82689   0.00000  Uiso   1.00
C98    C     0.27358   0.25195   0.43204   0.00000  Uiso   1.00
C99    C     0.26474   0.37345   0.42122   0.00000  Uiso   1.00
C100   C     0.19652   0.41875   0.44012   0.00000  Uiso   1.00
C101   C     0.09668   0.53571   0.46195   0.00000  Uiso   1.00
C102   C     0.32617   0.09006   0.33144   0.00000  Uiso   1.00
C103   C     0.36152   0.07545   0.23600   0.00000  Uiso   1.00
C104   C     0.33757   0.98446   0.17019   0.00000  Uiso   1.00
C105   C     0.31937   0.85006   0.03581   0.00000  Uiso   1.00
C106   C     0.23806   0.04825   0.46795   0.00000  Uiso   1.00
C107   C     0.30120   0.04296   0.54686   0.00000  Uiso   1.00
C108   C     0.30434   0.97430   0.63823   0.00000  Uiso   1.00
C109   C     0.36686   0.98190   0.69998   0.00000  Uiso   1.00
C110   C     0.21632   0.17831   0.46072   0.00000  Uiso   1.00
C111   C     0.14810   0.22344   0.47963   0.00000  Uiso   1.00
C112   C     0.13916   0.34497   0.46885   0.00000  Uiso   1.00
C113   C     0.26890   0.01641   0.36011   0.00000  Uiso   1.00
C114   C     0.24489   0.92543   0.29442   0.00000  Uiso   1.00
C115   C     0.28020   0.91069   0.19892   0.00000  Uiso   1.00
H116   H     0.38806   0.24118   0.39283   0.00000  Uiso   1.00
H117   H     0.46528   0.18133   0.55760   0.00000  Uiso   1.00
H118   H     0.30906   0.43041   0.39902   0.00000  Uiso   1.00
H119   H     0.40583   0.13246   0.21384   0.00000  Uiso   1.00
H120   H     0.52563   0.08252   0.75294   0.00000  Uiso   1.00
H121   H     0.19622   0.60773   0.41853   0.00000  Uiso   1.00
H122   H     0.40028   0.97944   0.02804   0.00000  Uiso   1.00
H123   H     0.19348   0.99091   0.49028   0.00000  Uiso   1.00
H124   H     0.26002   0.91732   0.66040   0.00000  Uiso   1.00
H125   H     0.10380   0.16642   0.50182   0.00000  Uiso   1.00
H126   H     0.20057   0.86846   0.31664   0.00000  Uiso   1.00
H127   H     0.35903   0.86825   0.83638   0.00000  Uiso   1.00
H128   H     0.02962   0.39347   0.50196   0.00000  Uiso   1.00
H129   H     0.23369   0.76517   0.11148   0.00000  Uiso   1.00
O130   O     0.48961   0.93152   0.90483   0.00000  Uiso   1.00
O131   O     0.05744   0.62058   0.46607   0.00000  Uiso   1.00
O132   O     0.32516   0.79626   0.95377   0.00000  Uiso   1.00
N133   N     0.47730   0.04217   0.74922   0.00000  Uiso   1.00
N134   N     0.16932   0.53322   0.43658   0.00000  Uiso   1.00
N135   N     0.36009   0.94584   0.07149   0.00000  Uiso   1.00
N136   N     0.38765   0.92687   0.79412   0.00000  Uiso   1.00
N137   N     0.07968   0.41792   0.48148   0.00000  Uiso   1.00
N138   N     0.27044   0.83054   0.11639   0.00000  Uiso   1.00
C139   C     0.65651   0.68384   0.08484   0.00000  Uiso   1.00
C140   C     0.64154   0.61661   0.98181   0.00000  Uiso   1.00
C141   C     0.57902   0.62431   0.92019   0.00000  Uiso   1.00
C142   C     0.57578   0.55569   0.82875   0.00000  Uiso   1.00
C143   C     0.54383   0.46254   0.67311   0.00000  Uiso   1.00
C144   C     0.72642   0.75195   0.06796   0.00000  Uiso   1.00
C145   C     0.73526   0.87345   0.07878   0.00000  Uiso   1.00
C146   C     0.80348   0.91875   0.05988   0.00000  Uiso   1.00
C147   C     0.90332   0.03571   0.03805   0.00000  Uiso   1.00
C148   C     0.67383   0.59006   0.16856   0.00000  Uiso   1.00
C149   C     0.63848   0.57545   0.26400   0.00000  Uiso   1.00
C150   C     0.66243   0.48446   0.32981   0.00000  Uiso   1.00
C151   C     0.68063   0.35006   0.46419   0.00000  Uiso   1.00
C152   C     0.76194   0.54825   0.03205   0.00000  Uiso   1.00
C153   C     0.69880   0.54296   0.95314   0.00000  Uiso   1.00
C154   C     0.69566   0.47430   0.86177   0.00000  Uiso   1.00
C155   C     0.63314   0.48190   0.80002   0.00000  Uiso   1.00
C156   C     0.78368   0.67831   0.03928   0.00000  Uiso   1.00
C157   C     0.85190   0.72344   0.02037   0.00000  Uiso   1.00
C158   C     0.86084   0.84497   0.03115   0.00000  Uiso   1.00
C159   C     0.73110   0.51641   0.13989   0.00000  Uiso   1.00
C160   C     0.75511   0.42543   0.20558   0.00000  Uiso   1.00
C161   C     0.71980   0.41069   0.30108   0.00000  Uiso   1.00
H162   H     0.61194   0.74118   0.10717   0.00000  Uiso   1.00
H163   H     0.53472   0.68133   0.94240   0.00000  Uiso   1.00
H164   H     0.69094   0.93041   0.10098   0.00000  Uiso   1.00
H165   H     0.59417   0.63246   0.28616   0.00000  Uiso   1.00
H166   H     0.47437   0.58252   0.74706   0.00000  Uiso   1.00
H167   H     0.80378   0.10773   0.08147   0.00000  Uiso   1.00
H168   H     0.59972   0.47944   0.47196   0.00000  Uiso   1.00
H169   H     0.80652   0.49091   0.00972   0.00000  Uiso   1.00
H170   H     0.73998   0.41732   0.83960   0.00000  Uiso   1.00
H171   H     0.89620   0.66642   0.99818   0.00000  Uiso   1.00
H172   H     0.79943   0.36846   0.18336   0.00000  Uiso   1.00
H173   H     0.64097   0.36825   0.66362   0.00000  Uiso   1.00
H174   H     0.97038   0.89347   0.99804   0.00000  Uiso   1.00
H175   H     0.76631   0.26517   0.38852   0.00000  Uiso   1.00
O176   O     0.51039   0.43152   0.59517   0.00000  Uiso   1.00
O177   O     0.94256   0.12058   0.03393   0.00000  Uiso   1.00
O178   O     0.67484   0.29626   0.54623   0.00000  Uiso   1.00
N179   N     0.52270   0.54217   0.75078   0.00000  Uiso   1.00
N180   N     0.83068   0.03322   0.06342   0.00000  Uiso   1.00
N181   N     0.63991   0.44584   0.42851   0.00000  Uiso   1.00
N182   N     0.61235   0.42687   0.70588   0.00000  Uiso   1.00
N183   N     0.92032   0.91792   0.01852   0.00000  Uiso   1.00
N184   N     0.72956   0.33054   0.38361   0.00000  Uiso   1.00
