data_job_01239
_audit_creation_date              2018-12-19
_audit_creation_method            'Materials Studio'
_symmetry_space_group_name_H-M    'P1'
_symmetry_Int_Tables_number       1
_symmetry_cell_setting            triclinic
loop_
_symmetry_equiv_pos_as_xyz
  x,y,z
_cell_length_a                    15.8969
_cell_length_b                    19.1916
_cell_length_c                    8.7106
_cell_angle_alpha                 90.0000
_cell_angle_beta                  98.1723
_cell_angle_gamma                 90.0000
loop_
_atom_site_label
_atom_site_type_symbol
_atom_site_fract_x
_atom_site_fract_y
_atom_site_fract_z
_atom_site_U_iso_or_equiv
_atom_site_adp_type
_atom_site_occupancy
C1     C     0.04163   0.80057   0.93880   0.00000  Uiso   1.00
C2     C     0.06785   0.73520   0.85805   0.00000  Uiso   1.00
C3     C     0.04587   0.66737   0.89065   0.00000  Uiso   1.00
C4     C     0.07621   0.61475   0.80385   0.00000  Uiso   1.00
C5     C     0.10928   0.51101   0.69604   0.00000  Uiso   1.00
C6     C     0.12398   0.83789   0.00205   0.00000  Uiso   1.00
C7     C     0.14918   0.85641   0.15573   0.00000  Uiso   1.00
C8     C     0.22676   0.89025   0.19014   0.00000  Uiso   1.00
C9     C     0.34694   0.94598   0.30589   0.00000  Uiso   1.00
C10    C     0.99678   0.84723   0.81093   0.00000  Uiso   1.00
C11    C     0.91504   0.87362   0.80393   0.00000  Uiso   1.00
C12    C     0.88554   0.91534   0.67745   0.00000  Uiso   1.00
C13    C     0.80823   0.98557   0.49645   0.00000  Uiso   1.00
C14    C     0.13460   0.82776   0.72666   0.00000  Uiso   1.00
C15    C     0.11835   0.74997   0.74283   0.00000  Uiso   1.00
C16    C     0.14873   0.69745   0.65595   0.00000  Uiso   1.00
C17    C     0.12680   0.62955   0.68841   0.00000  Uiso   1.00
C18    C     0.17448   0.85266   0.88683   0.00000  Uiso   1.00
C19    C     0.25204   0.88649   0.92103   0.00000  Uiso   1.00
C20    C     0.27735   0.90504   0.07471   0.00000  Uiso   1.00
C21    C     0.04728   0.86200   0.69570   0.00000  Uiso   1.00
C22    C     0.01791   0.90370   0.56922   0.00000  Uiso   1.00
C23    C     0.93614   0.93014   0.56202   0.00000  Uiso   1.00
H24    H     0.00232   0.78907   0.02851   0.00000  Uiso   1.00
H25    H     0.00679   0.65596   0.97984   0.00000  Uiso   1.00
H26    H     0.11008   0.84498   0.24486   0.00000  Uiso   1.00
H27    H     0.87598   0.86218   0.89311   0.00000  Uiso   1.00
H28    H     0.03405   0.51489   0.87510   0.00000  Uiso   1.00
H29    H     0.25182   0.91346   0.43392   0.00000  Uiso   1.00
H30    H     0.75818   0.94974   0.69219   0.00000  Uiso   1.00
H31    H     0.17392   0.83926   0.63695   0.00000  Uiso   1.00
H32    H     0.18781   0.70889   0.56679   0.00000  Uiso   1.00
H33    H     0.29110   0.89791   0.83183   0.00000  Uiso   1.00
H34    H     0.05700   0.91512   0.48008   0.00000  Uiso   1.00
H35    H     0.18098   0.55785   0.53986   0.00000  Uiso   1.00
H36    H     0.39875   0.95643   0.09869   0.00000  Uiso   1.00
H37    H     0.90511   0.99271   0.35695   0.00000  Uiso   1.00
O38    O     0.11358   0.44971   0.66843   0.00000  Uiso   1.00
O39    O     0.39928   0.97263   0.40157   0.00000  Uiso   1.00
O40    O     0.75163   0.02023   0.42843   0.00000  Uiso   1.00
N41    N     0.06671   0.54289   0.80581   0.00000  Uiso   1.00
N42    N     0.27032   0.91553   0.32828   0.00000  Uiso   1.00
N43    N     0.80881   0.94946   0.63484   0.00000  Uiso   1.00
N44    N     0.14577   0.56601   0.62542   0.00000  Uiso   1.00
N45    N     0.34938   0.93865   0.14789   0.00000  Uiso   1.00
N46    N     0.88787   0.97258   0.45445   0.00000  Uiso   1.00
C47    C     0.54163   0.30057   0.93880   0.00000  Uiso   1.00
C48    C     0.56785   0.23520   0.85805   0.00000  Uiso   1.00
C49    C     0.54587   0.16737   0.89065   0.00000  Uiso   1.00
C50    C     0.57621   0.11475   0.80385   0.00000  Uiso   1.00
C51    C     0.60928   0.01101   0.69604   0.00000  Uiso   1.00
C52    C     0.62398   0.33789   0.00205   0.00000  Uiso   1.00
C53    C     0.64918   0.35641   0.15573   0.00000  Uiso   1.00
C54    C     0.72676   0.39025   0.19014   0.00000  Uiso   1.00
C55    C     0.84694   0.44598   0.30589   0.00000  Uiso   1.00
C56    C     0.49678   0.34723   0.81093   0.00000  Uiso   1.00
C57    C     0.41504   0.37362   0.80393   0.00000  Uiso   1.00
C58    C     0.38554   0.41534   0.67745   0.00000  Uiso   1.00
C59    C     0.30823   0.48557   0.49645   0.00000  Uiso   1.00
C60    C     0.63460   0.32776   0.72666   0.00000  Uiso   1.00
C61    C     0.61835   0.24997   0.74283   0.00000  Uiso   1.00
C62    C     0.64873   0.19745   0.65595   0.00000  Uiso   1.00
C63    C     0.62680   0.12955   0.68841   0.00000  Uiso   1.00
C64    C     0.67448   0.35266   0.88683   0.00000  Uiso   1.00
C65    C     0.75204   0.38649   0.92103   0.00000  Uiso   1.00
C66    C     0.77735   0.40504   0.07471   0.00000  Uiso   1.00
C67    C     0.54728   0.36200   0.69570   0.00000  Uiso   1.00
C68    C     0.51791   0.40370   0.56922   0.00000  Uiso   1.00
C69    C     0.43614   0.43014   0.56202   0.00000  Uiso   1.00
H70    H     0.50232   0.28907   0.02851   0.00000  Uiso   1.00
H71    H     0.50679   0.15596   0.97984   0.00000  Uiso   1.00
H72    H     0.61008   0.34498   0.24486   0.00000  Uiso   1.00
H73    H     0.37598   0.36218   0.89311   0.00000  Uiso   1.00
H74    H     0.53405   0.01489   0.87510   0.00000  Uiso   1.00
H75    H     0.75182   0.41346   0.43392   0.00000  Uiso   1.00
H76    H     0.25818   0.44974   0.69219   0.00000  Uiso   1.00
H77    H     0.67392   0.33926   0.63695   0.00000  Uiso   1.00
H78    H     0.68781   0.20889   0.56679   0.00000  Uiso   1.00
H79    H     0.79110   0.39791   0.83183   0.00000  Uiso   1.00
H80    H     0.55700   0.41512   0.48008   0.00000  Uiso   1.00
H81    H     0.68098   0.05785   0.53986   0.00000  Uiso   1.00
H82    H     0.89875   0.45643   0.09869   0.00000  Uiso   1.00
H83    H     0.40511   0.49271   0.35695   0.00000  Uiso   1.00
O84    O     0.61358   0.94971   0.66843   0.00000  Uiso   1.00
O85    O     0.89928   0.47263   0.40157   0.00000  Uiso   1.00
O86    O     0.25163   0.52023   0.42843   0.00000  Uiso   1.00
N87    N     0.56671   0.04289   0.80581   0.00000  Uiso   1.00
N88    N     0.77032   0.41553   0.32828   0.00000  Uiso   1.00
N89    N     0.30881   0.44946   0.63484   0.00000  Uiso   1.00
N90    N     0.64577   0.06601   0.62542   0.00000  Uiso   1.00
N91    N     0.84938   0.43865   0.14789   0.00000  Uiso   1.00
N92    N     0.38787   0.47258   0.45445   0.00000  Uiso   1.00
C93    C     0.04163   0.19943   0.43880   0.00000  Uiso   1.00
C94    C     0.06785   0.26480   0.35805   0.00000  Uiso   1.00
C95    C     0.04587   0.33263   0.39065   0.00000  Uiso   1.00
C96    C     0.07621   0.38525   0.30385   0.00000  Uiso   1.00
C97    C     0.10928   0.48899   0.19604   0.00000  Uiso   1.00
C98    C     0.12398   0.16211   0.50205   0.00000  Uiso   1.00
C99    C     0.14918   0.14359   0.65573   0.00000  Uiso   1.00
C100   C     0.22676   0.10975   0.69014   0.00000  Uiso   1.00
C101   C     0.34694   0.05402   0.80589   0.00000  Uiso   1.00
C102   C     0.99678   0.15277   0.31093   0.00000  Uiso   1.00
C103   C     0.91504   0.12638   0.30393   0.00000  Uiso   1.00
C104   C     0.88554   0.08466   0.17745   0.00000  Uiso   1.00
C105   C     0.80823   0.01443   0.99645   0.00000  Uiso   1.00
C106   C     0.13460   0.17224   0.22666   0.00000  Uiso   1.00
C107   C     0.11835   0.25003   0.24283   0.00000  Uiso   1.00
C108   C     0.14873   0.30255   0.15595   0.00000  Uiso   1.00
C109   C     0.12680   0.37045   0.18841   0.00000  Uiso   1.00
C110   C     0.17448   0.14734   0.38683   0.00000  Uiso   1.00
C111   C     0.25204   0.11351   0.42103   0.00000  Uiso   1.00
C112   C     0.27735   0.09496   0.57471   0.00000  Uiso   1.00
C113   C     0.04728   0.13800   0.19570   0.00000  Uiso   1.00
C114   C     0.01791   0.09630   0.06922   0.00000  Uiso   1.00
C115   C     0.93614   0.06986   0.06202   0.00000  Uiso   1.00
H116   H     0.00232   0.21093   0.52851   0.00000  Uiso   1.00
H117   H     0.00679   0.34404   0.47984   0.00000  Uiso   1.00
H118   H     0.11008   0.15502   0.74486   0.00000  Uiso   1.00
H119   H     0.87598   0.13782   0.39311   0.00000  Uiso   1.00
H120   H     0.03405   0.48511   0.37510   0.00000  Uiso   1.00
H121   H     0.25182   0.08654   0.93392   0.00000  Uiso   1.00
H122   H     0.75818   0.05026   0.19219   0.00000  Uiso   1.00
H123   H     0.17392   0.16074   0.13695   0.00000  Uiso   1.00
H124   H     0.18781   0.29111   0.06679   0.00000  Uiso   1.00
H125   H     0.29110   0.10209   0.33183   0.00000  Uiso   1.00
H126   H     0.05700   0.08488   0.98008   0.00000  Uiso   1.00
H127   H     0.18098   0.44215   0.03986   0.00000  Uiso   1.00
H128   H     0.39875   0.04357   0.59869   0.00000  Uiso   1.00
H129   H     0.90511   0.00729   0.85695   0.00000  Uiso   1.00
O130   O     0.11358   0.55029   0.16843   0.00000  Uiso   1.00
O131   O     0.39928   0.02737   0.90157   0.00000  Uiso   1.00
O132   O     0.75163   0.97977   0.92844   0.00000  Uiso   1.00
N133   N     0.06671   0.45711   0.30581   0.00000  Uiso   1.00
N134   N     0.27032   0.08447   0.82828   0.00000  Uiso   1.00
N135   N     0.80881   0.05054   0.13484   0.00000  Uiso   1.00
N136   N     0.14577   0.43399   0.12542   0.00000  Uiso   1.00
N137   N     0.34938   0.06135   0.64789   0.00000  Uiso   1.00
N138   N     0.88787   0.02742   0.95445   0.00000  Uiso   1.00
C139   C     0.54163   0.69943   0.43880   0.00000  Uiso   1.00
C140   C     0.56785   0.76480   0.35805   0.00000  Uiso   1.00
C141   C     0.54587   0.83263   0.39065   0.00000  Uiso   1.00
C142   C     0.57621   0.88525   0.30385   0.00000  Uiso   1.00
C143   C     0.60928   0.98899   0.19604   0.00000  Uiso   1.00
C144   C     0.62398   0.66211   0.50205   0.00000  Uiso   1.00
C145   C     0.64918   0.64359   0.65573   0.00000  Uiso   1.00
C146   C     0.72676   0.60975   0.69014   0.00000  Uiso   1.00
C147   C     0.84694   0.55402   0.80589   0.00000  Uiso   1.00
C148   C     0.49678   0.65277   0.31093   0.00000  Uiso   1.00
C149   C     0.41504   0.62638   0.30393   0.00000  Uiso   1.00
C150   C     0.38554   0.58466   0.17745   0.00000  Uiso   1.00
C151   C     0.30823   0.51443   0.99645   0.00000  Uiso   1.00
C152   C     0.63460   0.67224   0.22666   0.00000  Uiso   1.00
C153   C     0.61835   0.75003   0.24283   0.00000  Uiso   1.00
C154   C     0.64873   0.80255   0.15595   0.00000  Uiso   1.00
C155   C     0.62680   0.87045   0.18841   0.00000  Uiso   1.00
C156   C     0.67448   0.64734   0.38683   0.00000  Uiso   1.00
C157   C     0.75204   0.61351   0.42103   0.00000  Uiso   1.00
C158   C     0.77735   0.59496   0.57471   0.00000  Uiso   1.00
C159   C     0.54728   0.63800   0.19570   0.00000  Uiso   1.00
C160   C     0.51791   0.59630   0.06922   0.00000  Uiso   1.00
C161   C     0.43614   0.56986   0.06202   0.00000  Uiso   1.00
H162   H     0.50232   0.71093   0.52851   0.00000  Uiso   1.00
H163   H     0.50679   0.84404   0.47984   0.00000  Uiso   1.00
H164   H     0.61008   0.65502   0.74486   0.00000  Uiso   1.00
H165   H     0.37598   0.63782   0.39311   0.00000  Uiso   1.00
H166   H     0.53405   0.98511   0.37510   0.00000  Uiso   1.00
H167   H     0.75182   0.58654   0.93392   0.00000  Uiso   1.00
H168   H     0.25818   0.55026   0.19219   0.00000  Uiso   1.00
H169   H     0.67392   0.66074   0.13695   0.00000  Uiso   1.00
H170   H     0.68781   0.79111   0.06679   0.00000  Uiso   1.00
H171   H     0.79110   0.60209   0.33183   0.00000  Uiso   1.00
H172   H     0.55700   0.58488   0.98008   0.00000  Uiso   1.00
H173   H     0.68098   0.94215   0.03986   0.00000  Uiso   1.00
H174   H     0.89875   0.54357   0.59869   0.00000  Uiso   1.00
H175   H     0.40511   0.50729   0.85695   0.00000  Uiso   1.00
O176   O     0.61358   0.05029   0.16843   0.00000  Uiso   1.00
O177   O     0.89928   0.52737   0.90157   0.00000  Uiso   1.00
O178   O     0.25163   0.47977   0.92843   0.00000  Uiso   1.00
N179   N     0.56671   0.95711   0.30581   0.00000  Uiso   1.00
N180   N     0.77032   0.58447   0.82828   0.00000  Uiso   1.00
N181   N     0.30881   0.55054   0.13484   0.00000  Uiso   1.00
N182   N     0.64577   0.93399   0.12542   0.00000  Uiso   1.00
N183   N     0.84938   0.56135   0.64789   0.00000  Uiso   1.00
N184   N     0.38787   0.52742   0.95445   0.00000  Uiso   1.00
