data_job_01594
_audit_creation_date              2018-12-19
_audit_creation_method            'Materials Studio'
_symmetry_space_group_name_H-M    'P1'
_symmetry_Int_Tables_number       1
_symmetry_cell_setting            triclinic
loop_
_symmetry_equiv_pos_as_xyz
  x,y,z
_cell_length_a                    22.4968
_cell_length_b                    16.0086
_cell_length_c                    17.1487
_cell_angle_alpha                 90.0000
_cell_angle_beta                  90.0000
_cell_angle_gamma                 90.0000
loop_
_atom_site_label
_atom_site_type_symbol
_atom_site_fract_x
_atom_site_fract_y
_atom_site_fract_z
_atom_site_U_iso_or_equiv
_atom_site_adp_type
_atom_site_occupancy
C1     C     0.38422   0.26216   0.26193   0.00000  Uiso   1.00
C2     C     0.31759   0.25473   0.27678   0.00000  Uiso   1.00
C3     C     0.27377   0.30366   0.24277   0.00000  Uiso   1.00
C4     C     0.21540   0.28708   0.26399   0.00000  Uiso   1.00
C5     C     0.11408   0.28519   0.27896   0.00000  Uiso   1.00
C6     C     0.41280   0.27581   0.34155   0.00000  Uiso   1.00
C7     C     0.44904   0.34247   0.36199   0.00000  Uiso   1.00
C8     C     0.47082   0.34361   0.43774   0.00000  Uiso   1.00
C9     C     0.51735   0.37442   0.55325   0.00000  Uiso   1.00
C10    C     0.40461   0.17611   0.23476   0.00000  Uiso   1.00
C11    C     0.43398   0.15894   0.16541   0.00000  Uiso   1.00
C12    C     0.44888   0.07615   0.15126   0.00000  Uiso   1.00
C13    C     0.48269   0.95217   0.10095   0.00000  Uiso   1.00
C14    C     0.35847   0.14566   0.36011   0.00000  Uiso   1.00
C15    C     0.30361   0.19145   0.33010   0.00000  Uiso   1.00
C16    C     0.24529   0.17478   0.35138   0.00000  Uiso   1.00
C17    C     0.20139   0.22368   0.31741   0.00000  Uiso   1.00
C18    C     0.39882   0.21254   0.39487   0.00000  Uiso   1.00
C19    C     0.42055   0.21358   0.47061   0.00000  Uiso   1.00
C20    C     0.45681   0.28022   0.49116   0.00000  Uiso   1.00
C21    C     0.39063   0.11283   0.28808   0.00000  Uiso   1.00
C22    C     0.40549   0.03006   0.27403   0.00000  Uiso   1.00
C23    C     0.43487   0.01276   0.20468   0.00000  Uiso   1.00
H24    H     0.39510   0.31142   0.22042   0.00000  Uiso   1.00
H25    H     0.28461   0.35263   0.20151   0.00000  Uiso   1.00
H26    H     0.45985   0.39142   0.32071   0.00000  Uiso   1.00
H27    H     0.44479   0.20792   0.12416   0.00000  Uiso   1.00
H28    H     0.15594   0.37044   0.20408   0.00000  Uiso   1.00
H29    H     0.52547   0.45221   0.45541   0.00000  Uiso   1.00
H30    H     0.49371   0.06528   0.04095   0.00000  Uiso   1.00
H31    H     0.34759   0.09640   0.40162   0.00000  Uiso   1.00
H32    H     0.23448   0.12581   0.39265   0.00000  Uiso   1.00
H33    H     0.40973   0.16460   0.51185   0.00000  Uiso   1.00
H34    H     0.39467   0.98111   0.31531   0.00000  Uiso   1.00
H35    H     0.11525   0.18635   0.35922   0.00000  Uiso   1.00
H36    H     0.48479   0.26812   0.61055   0.00000  Uiso   1.00
H37    H     0.45303   0.88118   0.19610   0.00000  Uiso   1.00
O38    O     0.06205   0.30164   0.27249   0.00000  Uiso   1.00
O39    O     0.54687   0.40891   0.60223   0.00000  Uiso   1.00
O40    O     0.50520   0.90126   0.05847   0.00000  Uiso   1.00
N41    N     0.16189   0.32306   0.24181   0.00000  Uiso   1.00
N42    N     0.50737   0.39952   0.47680   0.00000  Uiso   1.00
N43    N     0.47769   0.03778   0.08932   0.00000  Uiso   1.00
N44    N     0.13999   0.22400   0.32529   0.00000  Uiso   1.00
N45    N     0.48547   0.30046   0.56028   0.00000  Uiso   1.00
N46    N     0.45580   0.93872   0.17280   0.00000  Uiso   1.00
C47    C     0.11578   0.23784   0.76193   0.00000  Uiso   1.00
C48    C     0.18241   0.24527   0.77678   0.00000  Uiso   1.00
C49    C     0.22623   0.19634   0.74277   0.00000  Uiso   1.00
C50    C     0.28460   0.21292   0.76399   0.00000  Uiso   1.00
C51    C     0.38592   0.21481   0.77896   0.00000  Uiso   1.00
C52    C     0.08720   0.22419   0.84155   0.00000  Uiso   1.00
C53    C     0.05096   0.15753   0.86199   0.00000  Uiso   1.00
C54    C     0.02918   0.15639   0.93774   0.00000  Uiso   1.00
C55    C     0.98265   0.12558   0.05325   0.00000  Uiso   1.00
C56    C     0.09539   0.32389   0.73476   0.00000  Uiso   1.00
C57    C     0.06602   0.34106   0.66541   0.00000  Uiso   1.00
C58    C     0.05112   0.42385   0.65126   0.00000  Uiso   1.00
C59    C     0.01731   0.54783   0.60095   0.00000  Uiso   1.00
C60    C     0.14153   0.35434   0.86011   0.00000  Uiso   1.00
C61    C     0.19639   0.30855   0.83010   0.00000  Uiso   1.00
C62    C     0.25471   0.32522   0.85138   0.00000  Uiso   1.00
C63    C     0.29861   0.27632   0.81741   0.00000  Uiso   1.00
C64    C     0.10118   0.28746   0.89487   0.00000  Uiso   1.00
C65    C     0.07945   0.28642   0.97061   0.00000  Uiso   1.00
C66    C     0.04319   0.21978   0.99116   0.00000  Uiso   1.00
C67    C     0.10937   0.38717   0.78808   0.00000  Uiso   1.00
C68    C     0.09451   0.46994   0.77403   0.00000  Uiso   1.00
C69    C     0.06513   0.48724   0.70468   0.00000  Uiso   1.00
H70    H     0.10490   0.18858   0.72042   0.00000  Uiso   1.00
H71    H     0.21539   0.14737   0.70151   0.00000  Uiso   1.00
H72    H     0.04015   0.10858   0.82071   0.00000  Uiso   1.00
H73    H     0.05521   0.29208   0.62416   0.00000  Uiso   1.00
H74    H     0.34406   0.12956   0.70408   0.00000  Uiso   1.00
H75    H     0.97453   0.04779   0.95541   0.00000  Uiso   1.00
H76    H     0.00629   0.43472   0.54095   0.00000  Uiso   1.00
H77    H     0.15241   0.40360   0.90162   0.00000  Uiso   1.00
H78    H     0.26552   0.37419   0.89265   0.00000  Uiso   1.00
H79    H     0.09027   0.33540   0.01185   0.00000  Uiso   1.00
H80    H     0.10533   0.51889   0.81531   0.00000  Uiso   1.00
H81    H     0.38475   0.31365   0.85922   0.00000  Uiso   1.00
H82    H     0.01521   0.23188   0.11055   0.00000  Uiso   1.00
H83    H     0.04697   0.61882   0.69610   0.00000  Uiso   1.00
O84    O     0.43795   0.19836   0.77249   0.00000  Uiso   1.00
O85    O     0.95313   0.09109   0.10223   0.00000  Uiso   1.00
O86    O     0.99480   0.59874   0.55847   0.00000  Uiso   1.00
N87    N     0.33811   0.17694   0.74181   0.00000  Uiso   1.00
N88    N     0.99263   0.10048   0.97680   0.00000  Uiso   1.00
N89    N     0.02231   0.46222   0.58932   0.00000  Uiso   1.00
N90    N     0.36001   0.27600   0.82529   0.00000  Uiso   1.00
N91    N     0.01453   0.19954   0.06028   0.00000  Uiso   1.00
N92    N     0.04420   0.56128   0.67280   0.00000  Uiso   1.00
C93    C     0.61578   0.26216   0.23807   0.00000  Uiso   1.00
C94    C     0.68241   0.25473   0.22322   0.00000  Uiso   1.00
C95    C     0.72623   0.30366   0.25723   0.00000  Uiso   1.00
C96    C     0.78460   0.28708   0.23601   0.00000  Uiso   1.00
C97    C     0.88592   0.28519   0.22104   0.00000  Uiso   1.00
C98    C     0.58720   0.27581   0.15845   0.00000  Uiso   1.00
C99    C     0.55096   0.34247   0.13801   0.00000  Uiso   1.00
C100   C     0.52918   0.34361   0.06226   0.00000  Uiso   1.00
C101   C     0.48265   0.37442   0.94675   0.00000  Uiso   1.00
C102   C     0.59539   0.17611   0.26524   0.00000  Uiso   1.00
C103   C     0.56602   0.15894   0.33459   0.00000  Uiso   1.00
C104   C     0.55112   0.07615   0.34874   0.00000  Uiso   1.00
C105   C     0.51731   0.95217   0.39905   0.00000  Uiso   1.00
C106   C     0.64153   0.14566   0.13989   0.00000  Uiso   1.00
C107   C     0.69639   0.19145   0.16990   0.00000  Uiso   1.00
C108   C     0.75471   0.17478   0.14862   0.00000  Uiso   1.00
C109   C     0.79861   0.22368   0.18259   0.00000  Uiso   1.00
C110   C     0.60118   0.21254   0.10513   0.00000  Uiso   1.00
C111   C     0.57945   0.21358   0.02939   0.00000  Uiso   1.00
C112   C     0.54319   0.28022   0.00884   0.00000  Uiso   1.00
C113   C     0.60937   0.11283   0.21192   0.00000  Uiso   1.00
C114   C     0.59451   0.03006   0.22597   0.00000  Uiso   1.00
C115   C     0.56513   0.01276   0.29532   0.00000  Uiso   1.00
H116   H     0.60490   0.31142   0.27958   0.00000  Uiso   1.00
H117   H     0.71539   0.35263   0.29849   0.00000  Uiso   1.00
H118   H     0.54015   0.39142   0.17929   0.00000  Uiso   1.00
H119   H     0.55521   0.20792   0.37584   0.00000  Uiso   1.00
H120   H     0.84406   0.37044   0.29592   0.00000  Uiso   1.00
H121   H     0.47453   0.45221   0.04459   0.00000  Uiso   1.00
H122   H     0.50629   0.06528   0.45905   0.00000  Uiso   1.00
H123   H     0.65241   0.09640   0.09838   0.00000  Uiso   1.00
H124   H     0.76552   0.12581   0.10735   0.00000  Uiso   1.00
H125   H     0.59027   0.16460   0.98815   0.00000  Uiso   1.00
H126   H     0.60533   0.98111   0.18469   0.00000  Uiso   1.00
H127   H     0.88475   0.18635   0.14078   0.00000  Uiso   1.00
H128   H     0.51521   0.26812   0.88945   0.00000  Uiso   1.00
H129   H     0.54697   0.88118   0.30390   0.00000  Uiso   1.00
O130   O     0.93795   0.30164   0.22751   0.00000  Uiso   1.00
O131   O     0.45313   0.40891   0.89777   0.00000  Uiso   1.00
O132   O     0.49480   0.90126   0.44153   0.00000  Uiso   1.00
N133   N     0.83811   0.32306   0.25819   0.00000  Uiso   1.00
N134   N     0.49263   0.39952   0.02320   0.00000  Uiso   1.00
N135   N     0.52231   0.03778   0.41068   0.00000  Uiso   1.00
N136   N     0.86001   0.22400   0.17471   0.00000  Uiso   1.00
N137   N     0.51453   0.30046   0.93972   0.00000  Uiso   1.00
N138   N     0.54420   0.93872   0.32720   0.00000  Uiso   1.00
C139   C     0.88422   0.23784   0.73807   0.00000  Uiso   1.00
C140   C     0.81759   0.24527   0.72322   0.00000  Uiso   1.00
C141   C     0.77377   0.19634   0.75723   0.00000  Uiso   1.00
C142   C     0.71540   0.21292   0.73601   0.00000  Uiso   1.00
C143   C     0.61408   0.21481   0.72104   0.00000  Uiso   1.00
C144   C     0.91280   0.22419   0.65845   0.00000  Uiso   1.00
C145   C     0.94904   0.15753   0.63801   0.00000  Uiso   1.00
C146   C     0.97082   0.15639   0.56226   0.00000  Uiso   1.00
C147   C     0.01735   0.12558   0.44675   0.00000  Uiso   1.00
C148   C     0.90461   0.32389   0.76524   0.00000  Uiso   1.00
C149   C     0.93398   0.34106   0.83459   0.00000  Uiso   1.00
C150   C     0.94888   0.42385   0.84874   0.00000  Uiso   1.00
C151   C     0.98269   0.54783   0.89905   0.00000  Uiso   1.00
C152   C     0.85847   0.35434   0.63989   0.00000  Uiso   1.00
C153   C     0.80361   0.30855   0.66990   0.00000  Uiso   1.00
C154   C     0.74529   0.32522   0.64862   0.00000  Uiso   1.00
C155   C     0.70139   0.27632   0.68259   0.00000  Uiso   1.00
C156   C     0.89882   0.28746   0.60513   0.00000  Uiso   1.00
C157   C     0.92055   0.28642   0.52939   0.00000  Uiso   1.00
C158   C     0.95681   0.21978   0.50884   0.00000  Uiso   1.00
C159   C     0.89063   0.38717   0.71192   0.00000  Uiso   1.00
C160   C     0.90549   0.46994   0.72597   0.00000  Uiso   1.00
C161   C     0.93487   0.48724   0.79532   0.00000  Uiso   1.00
H162   H     0.89510   0.18858   0.77958   0.00000  Uiso   1.00
H163   H     0.78461   0.14737   0.79849   0.00000  Uiso   1.00
H164   H     0.95985   0.10858   0.67929   0.00000  Uiso   1.00
H165   H     0.94479   0.29208   0.87584   0.00000  Uiso   1.00
H166   H     0.65594   0.12956   0.79592   0.00000  Uiso   1.00
H167   H     0.02547   0.04779   0.54459   0.00000  Uiso   1.00
H168   H     0.99371   0.43472   0.95905   0.00000  Uiso   1.00
H169   H     0.84759   0.40360   0.59838   0.00000  Uiso   1.00
H170   H     0.73448   0.37419   0.60735   0.00000  Uiso   1.00
H171   H     0.90973   0.33540   0.48815   0.00000  Uiso   1.00
H172   H     0.89467   0.51889   0.68469   0.00000  Uiso   1.00
H173   H     0.61525   0.31365   0.64078   0.00000  Uiso   1.00
H174   H     0.98479   0.23188   0.38945   0.00000  Uiso   1.00
H175   H     0.95303   0.61882   0.80390   0.00000  Uiso   1.00
O176   O     0.56205   0.19836   0.72751   0.00000  Uiso   1.00
O177   O     0.04687   0.09109   0.39777   0.00000  Uiso   1.00
O178   O     0.00520   0.59874   0.94153   0.00000  Uiso   1.00
N179   N     0.66189   0.17694   0.75819   0.00000  Uiso   1.00
N180   N     0.00737   0.10048   0.52320   0.00000  Uiso   1.00
N181   N     0.97769   0.46222   0.91068   0.00000  Uiso   1.00
N182   N     0.63999   0.27600   0.67471   0.00000  Uiso   1.00
N183   N     0.98547   0.19954   0.43972   0.00000  Uiso   1.00
N184   N     0.95580   0.56128   0.82720   0.00000  Uiso   1.00
C185   C     0.61578   0.73784   0.73807   0.00000  Uiso   1.00
C186   C     0.68241   0.74527   0.72322   0.00000  Uiso   1.00
C187   C     0.72623   0.69634   0.75723   0.00000  Uiso   1.00
C188   C     0.78460   0.71292   0.73601   0.00000  Uiso   1.00
C189   C     0.88592   0.71481   0.72104   0.00000  Uiso   1.00
C190   C     0.58720   0.72419   0.65845   0.00000  Uiso   1.00
C191   C     0.55096   0.65753   0.63801   0.00000  Uiso   1.00
C192   C     0.52918   0.65639   0.56226   0.00000  Uiso   1.00
C193   C     0.48265   0.62558   0.44675   0.00000  Uiso   1.00
C194   C     0.59539   0.82389   0.76524   0.00000  Uiso   1.00
C195   C     0.56602   0.84106   0.83459   0.00000  Uiso   1.00
C196   C     0.55112   0.92385   0.84874   0.00000  Uiso   1.00
C197   C     0.51731   0.04783   0.89905   0.00000  Uiso   1.00
C198   C     0.64153   0.85434   0.63989   0.00000  Uiso   1.00
C199   C     0.69639   0.80855   0.66990   0.00000  Uiso   1.00
C200   C     0.75471   0.82522   0.64862   0.00000  Uiso   1.00
C201   C     0.79861   0.77632   0.68259   0.00000  Uiso   1.00
C202   C     0.60118   0.78746   0.60513   0.00000  Uiso   1.00
C203   C     0.57945   0.78642   0.52939   0.00000  Uiso   1.00
C204   C     0.54319   0.71978   0.50884   0.00000  Uiso   1.00
C205   C     0.60937   0.88717   0.71192   0.00000  Uiso   1.00
C206   C     0.59451   0.96994   0.72597   0.00000  Uiso   1.00
C207   C     0.56513   0.98724   0.79532   0.00000  Uiso   1.00
H208   H     0.60490   0.68858   0.77958   0.00000  Uiso   1.00
H209   H     0.71539   0.64737   0.79849   0.00000  Uiso   1.00
H210   H     0.54015   0.60858   0.67929   0.00000  Uiso   1.00
H211   H     0.55521   0.79208   0.87584   0.00000  Uiso   1.00
H212   H     0.84406   0.62956   0.79592   0.00000  Uiso   1.00
H213   H     0.47453   0.54779   0.54459   0.00000  Uiso   1.00
H214   H     0.50629   0.93472   0.95905   0.00000  Uiso   1.00
H215   H     0.65241   0.90360   0.59838   0.00000  Uiso   1.00
H216   H     0.76552   0.87419   0.60735   0.00000  Uiso   1.00
H217   H     0.59027   0.83540   0.48815   0.00000  Uiso   1.00
H218   H     0.60533   0.01889   0.68469   0.00000  Uiso   1.00
H219   H     0.88475   0.81365   0.64078   0.00000  Uiso   1.00
H220   H     0.51521   0.73188   0.38945   0.00000  Uiso   1.00
H221   H     0.54697   0.11882   0.80390   0.00000  Uiso   1.00
O222   O     0.93795   0.69836   0.72751   0.00000  Uiso   1.00
O223   O     0.45313   0.59109   0.39777   0.00000  Uiso   1.00
O224   O     0.49480   0.09874   0.94153   0.00000  Uiso   1.00
N225   N     0.83811   0.67694   0.75819   0.00000  Uiso   1.00
N226   N     0.49263   0.60048   0.52320   0.00000  Uiso   1.00
N227   N     0.52231   0.96222   0.91068   0.00000  Uiso   1.00
N228   N     0.86001   0.77600   0.67471   0.00000  Uiso   1.00
N229   N     0.51453   0.69954   0.43972   0.00000  Uiso   1.00
N230   N     0.54420   0.06128   0.82720   0.00000  Uiso   1.00
C231   C     0.88422   0.76216   0.23807   0.00000  Uiso   1.00
C232   C     0.81759   0.75473   0.22322   0.00000  Uiso   1.00
C233   C     0.77377   0.80366   0.25723   0.00000  Uiso   1.00
C234   C     0.71540   0.78708   0.23601   0.00000  Uiso   1.00
C235   C     0.61408   0.78519   0.22104   0.00000  Uiso   1.00
C236   C     0.91280   0.77581   0.15845   0.00000  Uiso   1.00
C237   C     0.94904   0.84247   0.13801   0.00000  Uiso   1.00
C238   C     0.97082   0.84361   0.06226   0.00000  Uiso   1.00
C239   C     0.01735   0.87442   0.94675   0.00000  Uiso   1.00
C240   C     0.90461   0.67611   0.26524   0.00000  Uiso   1.00
C241   C     0.93398   0.65894   0.33459   0.00000  Uiso   1.00
C242   C     0.94888   0.57615   0.34874   0.00000  Uiso   1.00
C243   C     0.98269   0.45217   0.39905   0.00000  Uiso   1.00
C244   C     0.85847   0.64566   0.13989   0.00000  Uiso   1.00
C245   C     0.80361   0.69145   0.16990   0.00000  Uiso   1.00
C246   C     0.74529   0.67478   0.14862   0.00000  Uiso   1.00
C247   C     0.70139   0.72368   0.18259   0.00000  Uiso   1.00
C248   C     0.89882   0.71254   0.10513   0.00000  Uiso   1.00
C249   C     0.92055   0.71358   0.02939   0.00000  Uiso   1.00
C250   C     0.95681   0.78022   0.00884   0.00000  Uiso   1.00
C251   C     0.89063   0.61283   0.21192   0.00000  Uiso   1.00
C252   C     0.90549   0.53006   0.22597   0.00000  Uiso   1.00
C253   C     0.93487   0.51276   0.29532   0.00000  Uiso   1.00
H254   H     0.89510   0.81142   0.27958   0.00000  Uiso   1.00
H255   H     0.78461   0.85263   0.29849   0.00000  Uiso   1.00
H256   H     0.95985   0.89142   0.17929   0.00000  Uiso   1.00
H257   H     0.94479   0.70792   0.37584   0.00000  Uiso   1.00
H258   H     0.65594   0.87044   0.29592   0.00000  Uiso   1.00
H259   H     0.02547   0.95221   0.04459   0.00000  Uiso   1.00
H260   H     0.99371   0.56528   0.45905   0.00000  Uiso   1.00
H261   H     0.84759   0.59640   0.09838   0.00000  Uiso   1.00
H262   H     0.73448   0.62581   0.10735   0.00000  Uiso   1.00
H263   H     0.90973   0.66460   0.98815   0.00000  Uiso   1.00
H264   H     0.89467   0.48111   0.18469   0.00000  Uiso   1.00
H265   H     0.61525   0.68635   0.14078   0.00000  Uiso   1.00
H266   H     0.98479   0.76812   0.88945   0.00000  Uiso   1.00
H267   H     0.95303   0.38118   0.30390   0.00000  Uiso   1.00
O268   O     0.56205   0.80164   0.22751   0.00000  Uiso   1.00
O269   O     0.04687   0.90891   0.89777   0.00000  Uiso   1.00
O270   O     0.00520   0.40126   0.44153   0.00000  Uiso   1.00
N271   N     0.66189   0.82306   0.25819   0.00000  Uiso   1.00
N272   N     0.00737   0.89952   0.02320   0.00000  Uiso   1.00
N273   N     0.97769   0.53778   0.41068   0.00000  Uiso   1.00
N274   N     0.63999   0.72400   0.17471   0.00000  Uiso   1.00
N275   N     0.98547   0.80046   0.93972   0.00000  Uiso   1.00
N276   N     0.95580   0.43872   0.32720   0.00000  Uiso   1.00
C277   C     0.38422   0.73784   0.76193   0.00000  Uiso   1.00
C278   C     0.31759   0.74527   0.77678   0.00000  Uiso   1.00
C279   C     0.27377   0.69634   0.74277   0.00000  Uiso   1.00
C280   C     0.21540   0.71292   0.76399   0.00000  Uiso   1.00
C281   C     0.11408   0.71481   0.77896   0.00000  Uiso   1.00
C282   C     0.41280   0.72419   0.84155   0.00000  Uiso   1.00
C283   C     0.44904   0.65753   0.86199   0.00000  Uiso   1.00
C284   C     0.47082   0.65639   0.93774   0.00000  Uiso   1.00
C285   C     0.51735   0.62558   0.05325   0.00000  Uiso   1.00
C286   C     0.40461   0.82389   0.73476   0.00000  Uiso   1.00
C287   C     0.43398   0.84106   0.66541   0.00000  Uiso   1.00
C288   C     0.44888   0.92385   0.65126   0.00000  Uiso   1.00
C289   C     0.48269   0.04783   0.60095   0.00000  Uiso   1.00
C290   C     0.35847   0.85434   0.86011   0.00000  Uiso   1.00
C291   C     0.30361   0.80855   0.83010   0.00000  Uiso   1.00
C292   C     0.24529   0.82522   0.85138   0.00000  Uiso   1.00
C293   C     0.20139   0.77632   0.81741   0.00000  Uiso   1.00
C294   C     0.39882   0.78746   0.89487   0.00000  Uiso   1.00
C295   C     0.42055   0.78642   0.97061   0.00000  Uiso   1.00
C296   C     0.45681   0.71978   0.99116   0.00000  Uiso   1.00
C297   C     0.39063   0.88717   0.78808   0.00000  Uiso   1.00
C298   C     0.40549   0.96994   0.77403   0.00000  Uiso   1.00
C299   C     0.43487   0.98724   0.70468   0.00000  Uiso   1.00
H300   H     0.39510   0.68858   0.72042   0.00000  Uiso   1.00
H301   H     0.28461   0.64737   0.70151   0.00000  Uiso   1.00
H302   H     0.45985   0.60858   0.82071   0.00000  Uiso   1.00
H303   H     0.44479   0.79208   0.62416   0.00000  Uiso   1.00
H304   H     0.15594   0.62956   0.70408   0.00000  Uiso   1.00
H305   H     0.52547   0.54779   0.95541   0.00000  Uiso   1.00
H306   H     0.49371   0.93472   0.54095   0.00000  Uiso   1.00
H307   H     0.34759   0.90360   0.90162   0.00000  Uiso   1.00
H308   H     0.23448   0.87419   0.89265   0.00000  Uiso   1.00
H309   H     0.40973   0.83540   0.01185   0.00000  Uiso   1.00
H310   H     0.39467   0.01889   0.81531   0.00000  Uiso   1.00
H311   H     0.11525   0.81365   0.85922   0.00000  Uiso   1.00
H312   H     0.48479   0.73188   0.11055   0.00000  Uiso   1.00
H313   H     0.45303   0.11882   0.69610   0.00000  Uiso   1.00
O314   O     0.06205   0.69836   0.77249   0.00000  Uiso   1.00
O315   O     0.54687   0.59109   0.10223   0.00000  Uiso   1.00
O316   O     0.50520   0.09874   0.55847   0.00000  Uiso   1.00
N317   N     0.16189   0.67694   0.74181   0.00000  Uiso   1.00
N318   N     0.50737   0.60048   0.97680   0.00000  Uiso   1.00
N319   N     0.47769   0.96222   0.58932   0.00000  Uiso   1.00
N320   N     0.13999   0.77600   0.82529   0.00000  Uiso   1.00
N321   N     0.48547   0.69954   0.06028   0.00000  Uiso   1.00
N322   N     0.45580   0.06128   0.67280   0.00000  Uiso   1.00
C323   C     0.11578   0.76216   0.26193   0.00000  Uiso   1.00
C324   C     0.18241   0.75473   0.27678   0.00000  Uiso   1.00
C325   C     0.22623   0.80366   0.24277   0.00000  Uiso   1.00
C326   C     0.28460   0.78708   0.26399   0.00000  Uiso   1.00
C327   C     0.38592   0.78519   0.27896   0.00000  Uiso   1.00
C328   C     0.08720   0.77581   0.34155   0.00000  Uiso   1.00
C329   C     0.05096   0.84247   0.36199   0.00000  Uiso   1.00
C330   C     0.02918   0.84361   0.43774   0.00000  Uiso   1.00
C331   C     0.98265   0.87442   0.55325   0.00000  Uiso   1.00
C332   C     0.09539   0.67611   0.23476   0.00000  Uiso   1.00
C333   C     0.06602   0.65894   0.16541   0.00000  Uiso   1.00
C334   C     0.05112   0.57615   0.15126   0.00000  Uiso   1.00
C335   C     0.01731   0.45217   0.10095   0.00000  Uiso   1.00
C336   C     0.14153   0.64566   0.36011   0.00000  Uiso   1.00
C337   C     0.19639   0.69145   0.33010   0.00000  Uiso   1.00
C338   C     0.25471   0.67478   0.35138   0.00000  Uiso   1.00
C339   C     0.29861   0.72368   0.31741   0.00000  Uiso   1.00
C340   C     0.10118   0.71254   0.39487   0.00000  Uiso   1.00
C341   C     0.07945   0.71358   0.47061   0.00000  Uiso   1.00
C342   C     0.04319   0.78022   0.49116   0.00000  Uiso   1.00
C343   C     0.10937   0.61283   0.28808   0.00000  Uiso   1.00
C344   C     0.09451   0.53006   0.27403   0.00000  Uiso   1.00
C345   C     0.06513   0.51276   0.20468   0.00000  Uiso   1.00
H346   H     0.10490   0.81142   0.22042   0.00000  Uiso   1.00
H347   H     0.21539   0.85263   0.20151   0.00000  Uiso   1.00
H348   H     0.04015   0.89142   0.32071   0.00000  Uiso   1.00
H349   H     0.05521   0.70792   0.12416   0.00000  Uiso   1.00
H350   H     0.34406   0.87044   0.20408   0.00000  Uiso   1.00
H351   H     0.97453   0.95221   0.45541   0.00000  Uiso   1.00
H352   H     0.00629   0.56528   0.04095   0.00000  Uiso   1.00
H353   H     0.15241   0.59640   0.40162   0.00000  Uiso   1.00
H354   H     0.26552   0.62581   0.39265   0.00000  Uiso   1.00
H355   H     0.09027   0.66460   0.51185   0.00000  Uiso   1.00
H356   H     0.10533   0.48111   0.31531   0.00000  Uiso   1.00
H357   H     0.38475   0.68635   0.35922   0.00000  Uiso   1.00
H358   H     0.01521   0.76812   0.61055   0.00000  Uiso   1.00
H359   H     0.04697   0.38118   0.19610   0.00000  Uiso   1.00
O360   O     0.43795   0.80164   0.27249   0.00000  Uiso   1.00
O361   O     0.95313   0.90891   0.60223   0.00000  Uiso   1.00
O362   O     0.99480   0.40126   0.05847   0.00000  Uiso   1.00
N363   N     0.33811   0.82306   0.24181   0.00000  Uiso   1.00
N364   N     0.99263   0.89952   0.47680   0.00000  Uiso   1.00
N365   N     0.02231   0.53778   0.08932   0.00000  Uiso   1.00
N366   N     0.36001   0.72400   0.32529   0.00000  Uiso   1.00
N367   N     0.01453   0.80046   0.56028   0.00000  Uiso   1.00
N368   N     0.04420   0.43872   0.17280   0.00000  Uiso   1.00
