data_job_02140
_audit_creation_date              2018-12-19
_audit_creation_method            'Materials Studio'
_symmetry_space_group_name_H-M    'P1'
_symmetry_Int_Tables_number       1
_symmetry_cell_setting            triclinic
loop_
_symmetry_equiv_pos_as_xyz
  x,y,z
_cell_length_a                    16.3330
_cell_length_b                    16.3330
_cell_length_c                    20.6989
_cell_angle_alpha                 90.0000
_cell_angle_beta                  90.0000
_cell_angle_gamma                 90.0000
loop_
_atom_site_label
_atom_site_type_symbol
_atom_site_fract_x
_atom_site_fract_y
_atom_site_fract_z
_atom_site_U_iso_or_equiv
_atom_site_adp_type
_atom_site_occupancy
C1     C     0.40080   0.86285   0.56254   0.00000  Uiso   1.00
C2     C     0.33811   0.91806   0.59544   0.00000  Uiso   1.00
C3     C     0.35591   0.98410   0.63523   0.00000  Uiso   1.00
C4     C     0.28992   0.02690   0.66066   0.00000  Uiso   1.00
C5     C     0.20488   0.11603   0.71389   0.00000  Uiso   1.00
C6     C     0.38080   0.77586   0.58414   0.00000  Uiso   1.00
C7     C     0.43449   0.72232   0.61442   0.00000  Uiso   1.00
C8     C     0.40442   0.64541   0.63033   0.00000  Uiso   1.00
C9     C     0.38567   0.51374   0.66598   0.00000  Uiso   1.00
C10    C     0.38149   0.86623   0.49051   0.00000  Uiso   1.00
C11    C     0.43577   0.88867   0.44206   0.00000  Uiso   1.00
C12    C     0.40630   0.88783   0.37914   0.00000  Uiso   1.00
C13    C     0.38862   0.89649   0.26941   0.00000  Uiso   1.00
C14    C     0.25196   0.82143   0.53696   0.00000  Uiso   1.00
C15    C     0.25727   0.89556   0.58155   0.00000  Uiso   1.00
C16    C     0.19123   0.93828   0.60693   0.00000  Uiso   1.00
C17    C     0.20893   0.00436   0.64675   0.00000  Uiso   1.00
C18    C     0.29996   0.75336   0.57025   0.00000  Uiso   1.00
C19    C     0.26981   0.67650   0.58612   0.00000  Uiso   1.00
C20    C     0.32344   0.62287   0.61642   0.00000  Uiso   1.00
C21    C     0.30065   0.84374   0.47662   0.00000  Uiso   1.00
C22    C     0.27109   0.84286   0.41376   0.00000  Uiso   1.00
C23    C     0.32531   0.86529   0.36523   0.00000  Uiso   1.00
H24    H     0.46374   0.88035   0.57335   0.00000  Uiso   1.00
H25    H     0.41848   0.00148   0.64597   0.00000  Uiso   1.00
H26    H     0.49705   0.73975   0.62516   0.00000  Uiso   1.00
H27    H     0.49833   0.90608   0.45283   0.00000  Uiso   1.00
H28    H     0.33265   0.12583   0.72037   0.00000  Uiso   1.00
H29    H     0.49832   0.57394   0.67647   0.00000  Uiso   1.00
H30    H     0.50102   0.92467   0.31307   0.00000  Uiso   1.00
H31    H     0.18902   0.80392   0.52615   0.00000  Uiso   1.00
H32    H     0.12868   0.92085   0.59617   0.00000  Uiso   1.00
H33    H     0.20725   0.65912   0.57536   0.00000  Uiso   1.00
H34    H     0.20853   0.82544   0.40303   0.00000  Uiso   1.00
H35    H     0.09743   0.06039   0.67996   0.00000  Uiso   1.00
H36    H     0.26310   0.50850   0.63605   0.00000  Uiso   1.00
H37    H     0.26580   0.85923   0.27266   0.00000  Uiso   1.00
O38    O     0.18031   0.17140   0.74710   0.00000  Uiso   1.00
O39    O     0.39766   0.44734   0.68948   0.00000  Uiso   1.00
O40    O     0.40120   0.90749   0.21272   0.00000  Uiso   1.00
N41    N     0.28557   0.09439   0.70124   0.00000  Uiso   1.00
N42    N     0.44046   0.57841   0.66020   0.00000  Uiso   1.00
N43    N     0.44299   0.90630   0.32046   0.00000  Uiso   1.00
N44    N     0.15901   0.05918   0.67949   0.00000  Uiso   1.00
N45    N     0.31389   0.54320   0.63845   0.00000  Uiso   1.00
N46    N     0.31642   0.87108   0.29871   0.00000  Uiso   1.00
C47    C     0.59920   0.13715   0.56254   0.00000  Uiso   1.00
C48    C     0.66189   0.08194   0.59544   0.00000  Uiso   1.00
C49    C     0.64409   0.01590   0.63523   0.00000  Uiso   1.00
C50    C     0.71008   0.97310   0.66066   0.00000  Uiso   1.00
C51    C     0.79512   0.88397   0.71389   0.00000  Uiso   1.00
C52    C     0.61920   0.22414   0.58414   0.00000  Uiso   1.00
C53    C     0.56551   0.27768   0.61442   0.00000  Uiso   1.00
C54    C     0.59558   0.35459   0.63033   0.00000  Uiso   1.00
C55    C     0.61433   0.48626   0.66598   0.00000  Uiso   1.00
C56    C     0.61851   0.13377   0.49051   0.00000  Uiso   1.00
C57    C     0.56423   0.11133   0.44206   0.00000  Uiso   1.00
C58    C     0.59370   0.11217   0.37914   0.00000  Uiso   1.00
C59    C     0.61138   0.10351   0.26941   0.00000  Uiso   1.00
C60    C     0.74804   0.17857   0.53696   0.00000  Uiso   1.00
C61    C     0.74273   0.10444   0.58155   0.00000  Uiso   1.00
C62    C     0.80877   0.06172   0.60693   0.00000  Uiso   1.00
C63    C     0.79107   0.99564   0.64675   0.00000  Uiso   1.00
C64    C     0.70004   0.24664   0.57025   0.00000  Uiso   1.00
C65    C     0.73019   0.32350   0.58612   0.00000  Uiso   1.00
C66    C     0.67656   0.37713   0.61642   0.00000  Uiso   1.00
C67    C     0.69935   0.15626   0.47662   0.00000  Uiso   1.00
C68    C     0.72891   0.15714   0.41376   0.00000  Uiso   1.00
C69    C     0.67469   0.13471   0.36523   0.00000  Uiso   1.00
H70    H     0.53626   0.11965   0.57335   0.00000  Uiso   1.00
H71    H     0.58152   0.99852   0.64597   0.00000  Uiso   1.00
H72    H     0.50295   0.26025   0.62516   0.00000  Uiso   1.00
H73    H     0.50167   0.09392   0.45283   0.00000  Uiso   1.00
H74    H     0.66735   0.87417   0.72037   0.00000  Uiso   1.00
H75    H     0.50168   0.42606   0.67647   0.00000  Uiso   1.00
H76    H     0.49898   0.07533   0.31307   0.00000  Uiso   1.00
H77    H     0.81098   0.19608   0.52615   0.00000  Uiso   1.00
H78    H     0.87132   0.07915   0.59617   0.00000  Uiso   1.00
H79    H     0.79275   0.34088   0.57536   0.00000  Uiso   1.00
H80    H     0.79147   0.17456   0.40303   0.00000  Uiso   1.00
H81    H     0.90257   0.93961   0.67996   0.00000  Uiso   1.00
H82    H     0.73690   0.49150   0.63605   0.00000  Uiso   1.00
H83    H     0.73420   0.14077   0.27266   0.00000  Uiso   1.00
O84    O     0.81969   0.82860   0.74710   0.00000  Uiso   1.00
O85    O     0.60234   0.55266   0.68948   0.00000  Uiso   1.00
O86    O     0.59880   0.09251   0.21272   0.00000  Uiso   1.00
N87    N     0.71443   0.90561   0.70124   0.00000  Uiso   1.00
N88    N     0.55954   0.42159   0.66020   0.00000  Uiso   1.00
N89    N     0.55701   0.09370   0.32046   0.00000  Uiso   1.00
N90    N     0.84099   0.94082   0.67949   0.00000  Uiso   1.00
N91    N     0.68611   0.45680   0.63845   0.00000  Uiso   1.00
N92    N     0.68358   0.12892   0.29871   0.00000  Uiso   1.00
C93    C     0.86285   0.59920   0.43746   0.00000  Uiso   1.00
C94    C     0.91806   0.66189   0.40456   0.00000  Uiso   1.00
C95    C     0.98410   0.64409   0.36477   0.00000  Uiso   1.00
C96    C     0.02690   0.71008   0.33934   0.00000  Uiso   1.00
C97    C     0.11603   0.79512   0.28611   0.00000  Uiso   1.00
C98    C     0.77586   0.61920   0.41586   0.00000  Uiso   1.00
C99    C     0.72232   0.56551   0.38558   0.00000  Uiso   1.00
C100   C     0.64541   0.59558   0.36967   0.00000  Uiso   1.00
C101   C     0.51374   0.61433   0.33402   0.00000  Uiso   1.00
C102   C     0.86623   0.61851   0.50949   0.00000  Uiso   1.00
C103   C     0.88867   0.56423   0.55794   0.00000  Uiso   1.00
C104   C     0.88783   0.59370   0.62086   0.00000  Uiso   1.00
C105   C     0.89649   0.61138   0.73059   0.00000  Uiso   1.00
C106   C     0.82143   0.74804   0.46304   0.00000  Uiso   1.00
C107   C     0.89556   0.74273   0.41845   0.00000  Uiso   1.00
C108   C     0.93828   0.80877   0.39307   0.00000  Uiso   1.00
C109   C     0.00436   0.79107   0.35325   0.00000  Uiso   1.00
C110   C     0.75336   0.70004   0.42975   0.00000  Uiso   1.00
C111   C     0.67650   0.73019   0.41388   0.00000  Uiso   1.00
C112   C     0.62287   0.67656   0.38358   0.00000  Uiso   1.00
C113   C     0.84374   0.69935   0.52338   0.00000  Uiso   1.00
C114   C     0.84286   0.72891   0.58624   0.00000  Uiso   1.00
C115   C     0.86529   0.67469   0.63477   0.00000  Uiso   1.00
H116   H     0.88035   0.53626   0.42665   0.00000  Uiso   1.00
H117   H     0.00148   0.58152   0.35403   0.00000  Uiso   1.00
H118   H     0.73975   0.50295   0.37484   0.00000  Uiso   1.00
H119   H     0.90608   0.50167   0.54717   0.00000  Uiso   1.00
H120   H     0.12583   0.66735   0.27963   0.00000  Uiso   1.00
H121   H     0.57394   0.50168   0.32353   0.00000  Uiso   1.00
H122   H     0.92467   0.49898   0.68693   0.00000  Uiso   1.00
H123   H     0.80392   0.81098   0.47385   0.00000  Uiso   1.00
H124   H     0.92085   0.87132   0.40383   0.00000  Uiso   1.00
H125   H     0.65912   0.79275   0.42464   0.00000  Uiso   1.00
H126   H     0.82544   0.79147   0.59697   0.00000  Uiso   1.00
H127   H     0.06039   0.90257   0.32004   0.00000  Uiso   1.00
H128   H     0.50850   0.73690   0.36395   0.00000  Uiso   1.00
H129   H     0.85923   0.73420   0.72734   0.00000  Uiso   1.00
O130   O     0.17140   0.81969   0.25290   0.00000  Uiso   1.00
O131   O     0.44734   0.60234   0.31052   0.00000  Uiso   1.00
O132   O     0.90749   0.59880   0.78728   0.00000  Uiso   1.00
N133   N     0.09439   0.71443   0.29876   0.00000  Uiso   1.00
N134   N     0.57841   0.55954   0.33980   0.00000  Uiso   1.00
N135   N     0.90630   0.55701   0.67954   0.00000  Uiso   1.00
N136   N     0.05918   0.84099   0.32051   0.00000  Uiso   1.00
N137   N     0.54320   0.68611   0.36155   0.00000  Uiso   1.00
N138   N     0.87108   0.68358   0.70129   0.00000  Uiso   1.00
C139   C     0.13715   0.40080   0.43746   0.00000  Uiso   1.00
C140   C     0.08194   0.33811   0.40456   0.00000  Uiso   1.00
C141   C     0.01590   0.35591   0.36477   0.00000  Uiso   1.00
C142   C     0.97310   0.28992   0.33934   0.00000  Uiso   1.00
C143   C     0.88397   0.20488   0.28611   0.00000  Uiso   1.00
C144   C     0.22414   0.38080   0.41586   0.00000  Uiso   1.00
C145   C     0.27768   0.43449   0.38558   0.00000  Uiso   1.00
C146   C     0.35459   0.40442   0.36967   0.00000  Uiso   1.00
C147   C     0.48626   0.38567   0.33402   0.00000  Uiso   1.00
C148   C     0.13377   0.38149   0.50949   0.00000  Uiso   1.00
C149   C     0.11133   0.43577   0.55794   0.00000  Uiso   1.00
C150   C     0.11217   0.40630   0.62086   0.00000  Uiso   1.00
C151   C     0.10351   0.38862   0.73059   0.00000  Uiso   1.00
C152   C     0.17857   0.25196   0.46304   0.00000  Uiso   1.00
C153   C     0.10444   0.25727   0.41845   0.00000  Uiso   1.00
C154   C     0.06172   0.19123   0.39307   0.00000  Uiso   1.00
C155   C     0.99564   0.20893   0.35325   0.00000  Uiso   1.00
C156   C     0.24664   0.29996   0.42975   0.00000  Uiso   1.00
C157   C     0.32350   0.26981   0.41388   0.00000  Uiso   1.00
C158   C     0.37713   0.32344   0.38358   0.00000  Uiso   1.00
C159   C     0.15626   0.30065   0.52338   0.00000  Uiso   1.00
C160   C     0.15714   0.27109   0.58624   0.00000  Uiso   1.00
C161   C     0.13471   0.32531   0.63477   0.00000  Uiso   1.00
H162   H     0.11965   0.46374   0.42665   0.00000  Uiso   1.00
H163   H     0.99852   0.41848   0.35403   0.00000  Uiso   1.00
H164   H     0.26025   0.49705   0.37484   0.00000  Uiso   1.00
H165   H     0.09392   0.49833   0.54717   0.00000  Uiso   1.00
H166   H     0.87417   0.33265   0.27963   0.00000  Uiso   1.00
H167   H     0.42606   0.49832   0.32353   0.00000  Uiso   1.00
H168   H     0.07533   0.50102   0.68693   0.00000  Uiso   1.00
H169   H     0.19608   0.18902   0.47385   0.00000  Uiso   1.00
H170   H     0.07915   0.12868   0.40383   0.00000  Uiso   1.00
H171   H     0.34088   0.20725   0.42464   0.00000  Uiso   1.00
H172   H     0.17456   0.20853   0.59697   0.00000  Uiso   1.00
H173   H     0.93961   0.09743   0.32004   0.00000  Uiso   1.00
H174   H     0.49150   0.26310   0.36395   0.00000  Uiso   1.00
H175   H     0.14077   0.26580   0.72734   0.00000  Uiso   1.00
O176   O     0.82860   0.18031   0.25290   0.00000  Uiso   1.00
O177   O     0.55266   0.39766   0.31052   0.00000  Uiso   1.00
O178   O     0.09251   0.40120   0.78728   0.00000  Uiso   1.00
N179   N     0.90561   0.28557   0.29876   0.00000  Uiso   1.00
N180   N     0.42159   0.44046   0.33980   0.00000  Uiso   1.00
N181   N     0.09370   0.44299   0.67954   0.00000  Uiso   1.00
N182   N     0.94082   0.15901   0.32051   0.00000  Uiso   1.00
N183   N     0.45680   0.31389   0.36155   0.00000  Uiso   1.00
N184   N     0.12892   0.31642   0.70129   0.00000  Uiso   1.00
C185   C     0.59920   0.86285   0.93746   0.00000  Uiso   1.00
C186   C     0.66189   0.91806   0.90456   0.00000  Uiso   1.00
C187   C     0.64409   0.98410   0.86477   0.00000  Uiso   1.00
C188   C     0.71008   0.02690   0.83934   0.00000  Uiso   1.00
C189   C     0.79512   0.11603   0.78611   0.00000  Uiso   1.00
C190   C     0.61920   0.77586   0.91586   0.00000  Uiso   1.00
C191   C     0.56551   0.72232   0.88558   0.00000  Uiso   1.00
C192   C     0.59558   0.64541   0.86967   0.00000  Uiso   1.00
C193   C     0.61433   0.51374   0.83402   0.00000  Uiso   1.00
C194   C     0.61851   0.86623   0.00949   0.00000  Uiso   1.00
C195   C     0.56423   0.88867   0.05794   0.00000  Uiso   1.00
C196   C     0.59370   0.88783   0.12086   0.00000  Uiso   1.00
C197   C     0.61138   0.89649   0.23059   0.00000  Uiso   1.00
C198   C     0.74804   0.82143   0.96304   0.00000  Uiso   1.00
C199   C     0.74273   0.89556   0.91845   0.00000  Uiso   1.00
C200   C     0.80877   0.93828   0.89307   0.00000  Uiso   1.00
C201   C     0.79107   0.00436   0.85325   0.00000  Uiso   1.00
C202   C     0.70004   0.75336   0.92975   0.00000  Uiso   1.00
C203   C     0.73019   0.67650   0.91388   0.00000  Uiso   1.00
C204   C     0.67656   0.62287   0.88358   0.00000  Uiso   1.00
C205   C     0.69935   0.84374   0.02338   0.00000  Uiso   1.00
C206   C     0.72891   0.84286   0.08624   0.00000  Uiso   1.00
C207   C     0.67469   0.86529   0.13477   0.00000  Uiso   1.00
H208   H     0.53626   0.88035   0.92665   0.00000  Uiso   1.00
H209   H     0.58152   0.00148   0.85403   0.00000  Uiso   1.00
H210   H     0.50295   0.73975   0.87484   0.00000  Uiso   1.00
H211   H     0.50167   0.90608   0.04717   0.00000  Uiso   1.00
H212   H     0.66735   0.12583   0.77963   0.00000  Uiso   1.00
H213   H     0.50168   0.57394   0.82353   0.00000  Uiso   1.00
H214   H     0.49898   0.92467   0.18693   0.00000  Uiso   1.00
H215   H     0.81098   0.80392   0.97385   0.00000  Uiso   1.00
H216   H     0.87132   0.92085   0.90383   0.00000  Uiso   1.00
H217   H     0.79275   0.65912   0.92464   0.00000  Uiso   1.00
H218   H     0.79147   0.82544   0.09697   0.00000  Uiso   1.00
H219   H     0.90257   0.06039   0.82004   0.00000  Uiso   1.00
H220   H     0.73690   0.50850   0.86395   0.00000  Uiso   1.00
H221   H     0.73420   0.85923   0.22734   0.00000  Uiso   1.00
O222   O     0.81969   0.17140   0.75290   0.00000  Uiso   1.00
O223   O     0.60234   0.44734   0.81052   0.00000  Uiso   1.00
O224   O     0.59880   0.90749   0.28728   0.00000  Uiso   1.00
N225   N     0.71443   0.09439   0.79876   0.00000  Uiso   1.00
N226   N     0.55954   0.57841   0.83980   0.00000  Uiso   1.00
N227   N     0.55701   0.90630   0.17954   0.00000  Uiso   1.00
N228   N     0.84099   0.05918   0.82051   0.00000  Uiso   1.00
N229   N     0.68611   0.54320   0.86155   0.00000  Uiso   1.00
N230   N     0.68358   0.87108   0.20129   0.00000  Uiso   1.00
C231   C     0.40080   0.13715   0.93746   0.00000  Uiso   1.00
C232   C     0.33811   0.08194   0.90456   0.00000  Uiso   1.00
C233   C     0.35591   0.01590   0.86477   0.00000  Uiso   1.00
C234   C     0.28992   0.97310   0.83934   0.00000  Uiso   1.00
C235   C     0.20488   0.88397   0.78611   0.00000  Uiso   1.00
C236   C     0.38080   0.22414   0.91586   0.00000  Uiso   1.00
C237   C     0.43449   0.27768   0.88558   0.00000  Uiso   1.00
C238   C     0.40442   0.35459   0.86967   0.00000  Uiso   1.00
C239   C     0.38567   0.48626   0.83402   0.00000  Uiso   1.00
C240   C     0.38149   0.13377   0.00949   0.00000  Uiso   1.00
C241   C     0.43577   0.11133   0.05794   0.00000  Uiso   1.00
C242   C     0.40630   0.11217   0.12086   0.00000  Uiso   1.00
C243   C     0.38862   0.10351   0.23059   0.00000  Uiso   1.00
C244   C     0.25196   0.17857   0.96304   0.00000  Uiso   1.00
C245   C     0.25727   0.10444   0.91845   0.00000  Uiso   1.00
C246   C     0.19123   0.06172   0.89307   0.00000  Uiso   1.00
C247   C     0.20893   0.99564   0.85325   0.00000  Uiso   1.00
C248   C     0.29996   0.24664   0.92975   0.00000  Uiso   1.00
C249   C     0.26981   0.32350   0.91388   0.00000  Uiso   1.00
C250   C     0.32344   0.37713   0.88358   0.00000  Uiso   1.00
C251   C     0.30065   0.15626   0.02338   0.00000  Uiso   1.00
C252   C     0.27109   0.15714   0.08624   0.00000  Uiso   1.00
C253   C     0.32531   0.13471   0.13477   0.00000  Uiso   1.00
H254   H     0.46374   0.11965   0.92665   0.00000  Uiso   1.00
H255   H     0.41848   0.99852   0.85403   0.00000  Uiso   1.00
H256   H     0.49705   0.26025   0.87484   0.00000  Uiso   1.00
H257   H     0.49833   0.09392   0.04717   0.00000  Uiso   1.00
H258   H     0.33265   0.87417   0.77963   0.00000  Uiso   1.00
H259   H     0.49832   0.42606   0.82353   0.00000  Uiso   1.00
H260   H     0.50102   0.07533   0.18693   0.00000  Uiso   1.00
H261   H     0.18902   0.19608   0.97385   0.00000  Uiso   1.00
H262   H     0.12868   0.07915   0.90383   0.00000  Uiso   1.00
H263   H     0.20725   0.34088   0.92464   0.00000  Uiso   1.00
H264   H     0.20853   0.17456   0.09697   0.00000  Uiso   1.00
H265   H     0.09743   0.93961   0.82004   0.00000  Uiso   1.00
H266   H     0.26310   0.49150   0.86395   0.00000  Uiso   1.00
H267   H     0.26580   0.14077   0.22734   0.00000  Uiso   1.00
O268   O     0.18031   0.82860   0.75290   0.00000  Uiso   1.00
O269   O     0.39766   0.55266   0.81052   0.00000  Uiso   1.00
O270   O     0.40120   0.09251   0.28728   0.00000  Uiso   1.00
N271   N     0.28557   0.90561   0.79876   0.00000  Uiso   1.00
N272   N     0.44046   0.42159   0.83980   0.00000  Uiso   1.00
N273   N     0.44299   0.09370   0.17954   0.00000  Uiso   1.00
N274   N     0.15901   0.94082   0.82051   0.00000  Uiso   1.00
N275   N     0.31389   0.45680   0.86155   0.00000  Uiso   1.00
N276   N     0.31642   0.12892   0.20129   0.00000  Uiso   1.00
C277   C     0.13715   0.59920   0.06254   0.00000  Uiso   1.00
C278   C     0.08194   0.66189   0.09544   0.00000  Uiso   1.00
C279   C     0.01590   0.64409   0.13523   0.00000  Uiso   1.00
C280   C     0.97310   0.71008   0.16066   0.00000  Uiso   1.00
C281   C     0.88397   0.79512   0.21389   0.00000  Uiso   1.00
C282   C     0.22414   0.61920   0.08414   0.00000  Uiso   1.00
C283   C     0.27768   0.56551   0.11442   0.00000  Uiso   1.00
C284   C     0.35459   0.59558   0.13033   0.00000  Uiso   1.00
C285   C     0.48626   0.61433   0.16598   0.00000  Uiso   1.00
C286   C     0.13377   0.61851   0.99051   0.00000  Uiso   1.00
C287   C     0.11133   0.56423   0.94206   0.00000  Uiso   1.00
C288   C     0.11217   0.59370   0.87914   0.00000  Uiso   1.00
C289   C     0.10351   0.61138   0.76941   0.00000  Uiso   1.00
C290   C     0.17857   0.74804   0.03696   0.00000  Uiso   1.00
C291   C     0.10444   0.74273   0.08155   0.00000  Uiso   1.00
C292   C     0.06172   0.80877   0.10693   0.00000  Uiso   1.00
C293   C     0.99564   0.79107   0.14675   0.00000  Uiso   1.00
C294   C     0.24664   0.70004   0.07025   0.00000  Uiso   1.00
C295   C     0.32350   0.73019   0.08612   0.00000  Uiso   1.00
C296   C     0.37713   0.67656   0.11642   0.00000  Uiso   1.00
C297   C     0.15626   0.69935   0.97662   0.00000  Uiso   1.00
C298   C     0.15714   0.72891   0.91376   0.00000  Uiso   1.00
C299   C     0.13471   0.67469   0.86523   0.00000  Uiso   1.00
H300   H     0.11965   0.53626   0.07335   0.00000  Uiso   1.00
H301   H     0.99852   0.58152   0.14597   0.00000  Uiso   1.00
H302   H     0.26025   0.50295   0.12516   0.00000  Uiso   1.00
H303   H     0.09392   0.50167   0.95283   0.00000  Uiso   1.00
H304   H     0.87417   0.66735   0.22037   0.00000  Uiso   1.00
H305   H     0.42606   0.50168   0.17647   0.00000  Uiso   1.00
H306   H     0.07533   0.49898   0.81307   0.00000  Uiso   1.00
H307   H     0.19608   0.81098   0.02615   0.00000  Uiso   1.00
H308   H     0.07915   0.87132   0.09617   0.00000  Uiso   1.00
H309   H     0.34088   0.79275   0.07536   0.00000  Uiso   1.00
H310   H     0.17456   0.79147   0.90303   0.00000  Uiso   1.00
H311   H     0.93961   0.90257   0.17996   0.00000  Uiso   1.00
H312   H     0.49150   0.73690   0.13605   0.00000  Uiso   1.00
H313   H     0.14077   0.73420   0.77266   0.00000  Uiso   1.00
O314   O     0.82860   0.81969   0.24710   0.00000  Uiso   1.00
O315   O     0.55266   0.60234   0.18948   0.00000  Uiso   1.00
O316   O     0.09251   0.59880   0.71272   0.00000  Uiso   1.00
N317   N     0.90561   0.71443   0.20124   0.00000  Uiso   1.00
N318   N     0.42159   0.55954   0.16020   0.00000  Uiso   1.00
N319   N     0.09370   0.55701   0.82046   0.00000  Uiso   1.00
N320   N     0.94082   0.84099   0.17949   0.00000  Uiso   1.00
N321   N     0.45680   0.68611   0.13845   0.00000  Uiso   1.00
N322   N     0.12892   0.68358   0.79871   0.00000  Uiso   1.00
C323   C     0.86285   0.40080   0.06254   0.00000  Uiso   1.00
C324   C     0.91806   0.33811   0.09544   0.00000  Uiso   1.00
C325   C     0.98410   0.35591   0.13523   0.00000  Uiso   1.00
C326   C     0.02690   0.28992   0.16066   0.00000  Uiso   1.00
C327   C     0.11603   0.20488   0.21389   0.00000  Uiso   1.00
C328   C     0.77586   0.38080   0.08414   0.00000  Uiso   1.00
C329   C     0.72232   0.43449   0.11442   0.00000  Uiso   1.00
C330   C     0.64541   0.40442   0.13033   0.00000  Uiso   1.00
C331   C     0.51374   0.38567   0.16598   0.00000  Uiso   1.00
C332   C     0.86623   0.38149   0.99051   0.00000  Uiso   1.00
C333   C     0.88867   0.43577   0.94206   0.00000  Uiso   1.00
C334   C     0.88783   0.40630   0.87914   0.00000  Uiso   1.00
C335   C     0.89649   0.38862   0.76941   0.00000  Uiso   1.00
C336   C     0.82143   0.25196   0.03696   0.00000  Uiso   1.00
C337   C     0.89556   0.25727   0.08155   0.00000  Uiso   1.00
C338   C     0.93828   0.19123   0.10693   0.00000  Uiso   1.00
C339   C     0.00436   0.20893   0.14675   0.00000  Uiso   1.00
C340   C     0.75336   0.29996   0.07025   0.00000  Uiso   1.00
C341   C     0.67650   0.26981   0.08612   0.00000  Uiso   1.00
C342   C     0.62287   0.32344   0.11642   0.00000  Uiso   1.00
C343   C     0.84374   0.30065   0.97662   0.00000  Uiso   1.00
C344   C     0.84286   0.27109   0.91376   0.00000  Uiso   1.00
C345   C     0.86529   0.32531   0.86523   0.00000  Uiso   1.00
H346   H     0.88035   0.46374   0.07335   0.00000  Uiso   1.00
H347   H     0.00148   0.41848   0.14597   0.00000  Uiso   1.00
H348   H     0.73975   0.49705   0.12516   0.00000  Uiso   1.00
H349   H     0.90608   0.49833   0.95283   0.00000  Uiso   1.00
H350   H     0.12583   0.33265   0.22037   0.00000  Uiso   1.00
H351   H     0.57394   0.49832   0.17647   0.00000  Uiso   1.00
H352   H     0.92467   0.50102   0.81307   0.00000  Uiso   1.00
H353   H     0.80392   0.18902   0.02615   0.00000  Uiso   1.00
H354   H     0.92085   0.12868   0.09617   0.00000  Uiso   1.00
H355   H     0.65912   0.20725   0.07536   0.00000  Uiso   1.00
H356   H     0.82544   0.20853   0.90303   0.00000  Uiso   1.00
H357   H     0.06039   0.09743   0.17996   0.00000  Uiso   1.00
H358   H     0.50850   0.26310   0.13605   0.00000  Uiso   1.00
H359   H     0.85923   0.26580   0.77266   0.00000  Uiso   1.00
O360   O     0.17140   0.18031   0.24710   0.00000  Uiso   1.00
O361   O     0.44734   0.39766   0.18948   0.00000  Uiso   1.00
O362   O     0.90749   0.40120   0.71272   0.00000  Uiso   1.00
N363   N     0.09439   0.28557   0.20124   0.00000  Uiso   1.00
N364   N     0.57841   0.44046   0.16020   0.00000  Uiso   1.00
N365   N     0.90630   0.44299   0.82046   0.00000  Uiso   1.00
N366   N     0.05918   0.15901   0.17949   0.00000  Uiso   1.00
N367   N     0.54320   0.31389   0.13845   0.00000  Uiso   1.00
N368   N     0.87108   0.31642   0.79871   0.00000  Uiso   1.00
