data_job_02198
_audit_creation_date              2018-12-19
_audit_creation_method            'Materials Studio'
_symmetry_space_group_name_H-M    'P1'
_symmetry_Int_Tables_number       1
_symmetry_cell_setting            triclinic
loop_
_symmetry_equiv_pos_as_xyz
  x,y,z
_cell_length_a                    24.7061
_cell_length_b                    27.6094
_cell_length_c                    10.1656
_cell_angle_alpha                 90.0000
_cell_angle_beta                  95.4766
_cell_angle_gamma                 90.0000
loop_
_atom_site_label
_atom_site_type_symbol
_atom_site_fract_x
_atom_site_fract_y
_atom_site_fract_z
_atom_site_U_iso_or_equiv
_atom_site_adp_type
_atom_site_occupancy
C1     C     0.68442   0.13908   0.86517   0.00000  Uiso   1.00
C2     C     0.71888   0.17477   0.79470   0.00000  Uiso   1.00
C3     C     0.70893   0.22403   0.77965   0.00000  Uiso   1.00
C4     C     0.74523   0.25047   0.71201   0.00000  Uiso   1.00
C5     C     0.79193   0.30924   0.61025   0.00000  Uiso   1.00
C6     C     0.66775   0.09949   0.76480   0.00000  Uiso   1.00
C7     C     0.61480   0.08544   0.72464   0.00000  Uiso   1.00
C8     C     0.60806   0.04850   0.63185   0.00000  Uiso   1.00
C9     C     0.57538   0.99037   0.48374   0.00000  Uiso   1.00
C10    C     0.72294   0.11514   0.97202   0.00000  Uiso   1.00
C11    C     0.71640   0.11423   0.10608   0.00000  Uiso   1.00
C12    C     0.75612   0.09046   0.18775   0.00000  Uiso   1.00
C13    C     0.80914   0.05662   0.36138   0.00000  Uiso   1.00
C14    C     0.76659   0.09845   0.77182   0.00000  Uiso   1.00
C15    C     0.76351   0.15270   0.74399   0.00000  Uiso   1.00
C16    C     0.79983   0.17907   0.67637   0.00000  Uiso   1.00
C17    C     0.78994   0.22836   0.66122   0.00000  Uiso   1.00
C18    C     0.71237   0.07742   0.71410   0.00000  Uiso   1.00
C19    C     0.70571   0.04049   0.62135   0.00000  Uiso   1.00
C20    C     0.65277   0.02639   0.58105   0.00000  Uiso   1.00
C21    C     0.76757   0.09307   0.92132   0.00000  Uiso   1.00
C22    C     0.80731   0.06928   0.00279   0.00000  Uiso   1.00
C23    C     0.80083   0.06835   0.13695   0.00000  Uiso   1.00
H24    H     0.64967   0.15626   0.90464   0.00000  Uiso   1.00
H25    H     0.67438   0.24109   0.81889   0.00000  Uiso   1.00
H26    H     0.58027   0.10252   0.76390   0.00000  Uiso   1.00
H27    H     0.68186   0.13132   0.14528   0.00000  Uiso   1.00
H28    H     0.72145   0.32541   0.70142   0.00000  Uiso   1.00
H29    H     0.52302   0.03322   0.58551   0.00000  Uiso   1.00
H30    H     0.73722   0.09393   0.38972   0.00000  Uiso   1.00
H31    H     0.80133   0.08127   0.73234   0.00000  Uiso   1.00
H32    H     0.83437   0.16198   0.63714   0.00000  Uiso   1.00
H33    H     0.74026   0.02342   0.58214   0.00000  Uiso   1.00
H34    H     0.84184   0.05221   0.96352   0.00000  Uiso   1.00
H35    H     0.85129   0.26120   0.55390   0.00000  Uiso   1.00
H36    H     0.65286   0.96901   0.43798   0.00000  Uiso   1.00
H37    H     0.86707   0.02972   0.24219   0.00000  Uiso   1.00
O38    O     0.80535   0.34775   0.56810   0.00000  Uiso   1.00
O39    O     0.54502   0.96440   0.41605   0.00000  Uiso   1.00
O40    O     0.82605   0.04406   0.47115   0.00000  Uiso   1.00
N41    N     0.74748   0.29922   0.67979   0.00000  Uiso   1.00
N42    N     0.56196   0.02604   0.57140   0.00000  Uiso   1.00
N43    N     0.76221   0.08280   0.32327   0.00000  Uiso   1.00
N44    N     0.81735   0.26467   0.60041   0.00000  Uiso   1.00
N45    N     0.63183   0.99150   0.49202   0.00000  Uiso   1.00
N46    N     0.83208   0.04825   0.24389   0.00000  Uiso   1.00
C47    C     0.18442   0.63908   0.86517   0.00000  Uiso   1.00
C48    C     0.21888   0.67477   0.79470   0.00000  Uiso   1.00
C49    C     0.20893   0.72403   0.77965   0.00000  Uiso   1.00
C50    C     0.24523   0.75047   0.71201   0.00000  Uiso   1.00
C51    C     0.29193   0.80924   0.61025   0.00000  Uiso   1.00
C52    C     0.16775   0.59949   0.76480   0.00000  Uiso   1.00
C53    C     0.11480   0.58544   0.72464   0.00000  Uiso   1.00
C54    C     0.10806   0.54850   0.63185   0.00000  Uiso   1.00
C55    C     0.07538   0.49037   0.48374   0.00000  Uiso   1.00
C56    C     0.22294   0.61514   0.97202   0.00000  Uiso   1.00
C57    C     0.21640   0.61423   0.10608   0.00000  Uiso   1.00
C58    C     0.25612   0.59046   0.18775   0.00000  Uiso   1.00
C59    C     0.30914   0.55662   0.36138   0.00000  Uiso   1.00
C60    C     0.26659   0.59845   0.77182   0.00000  Uiso   1.00
C61    C     0.26351   0.65270   0.74399   0.00000  Uiso   1.00
C62    C     0.29983   0.67907   0.67637   0.00000  Uiso   1.00
C63    C     0.28994   0.72836   0.66122   0.00000  Uiso   1.00
C64    C     0.21237   0.57742   0.71410   0.00000  Uiso   1.00
C65    C     0.20571   0.54049   0.62135   0.00000  Uiso   1.00
C66    C     0.15277   0.52639   0.58105   0.00000  Uiso   1.00
C67    C     0.26757   0.59307   0.92132   0.00000  Uiso   1.00
C68    C     0.30731   0.56928   0.00279   0.00000  Uiso   1.00
C69    C     0.30083   0.56835   0.13695   0.00000  Uiso   1.00
H70    H     0.14967   0.65626   0.90464   0.00000  Uiso   1.00
H71    H     0.17438   0.74109   0.81889   0.00000  Uiso   1.00
H72    H     0.08027   0.60252   0.76390   0.00000  Uiso   1.00
H73    H     0.18186   0.63132   0.14528   0.00000  Uiso   1.00
H74    H     0.22145   0.82541   0.70142   0.00000  Uiso   1.00
H75    H     0.02302   0.53322   0.58551   0.00000  Uiso   1.00
H76    H     0.23722   0.59393   0.38972   0.00000  Uiso   1.00
H77    H     0.30133   0.58127   0.73234   0.00000  Uiso   1.00
H78    H     0.33437   0.66198   0.63714   0.00000  Uiso   1.00
H79    H     0.24026   0.52342   0.58214   0.00000  Uiso   1.00
H80    H     0.34184   0.55221   0.96352   0.00000  Uiso   1.00
H81    H     0.35129   0.76120   0.55390   0.00000  Uiso   1.00
H82    H     0.15286   0.46901   0.43798   0.00000  Uiso   1.00
H83    H     0.36707   0.52972   0.24219   0.00000  Uiso   1.00
O84    O     0.30535   0.84775   0.56810   0.00000  Uiso   1.00
O85    O     0.04502   0.46440   0.41605   0.00000  Uiso   1.00
O86    O     0.32605   0.54406   0.47115   0.00000  Uiso   1.00
N87    N     0.24748   0.79922   0.67979   0.00000  Uiso   1.00
N88    N     0.06196   0.52604   0.57140   0.00000  Uiso   1.00
N89    N     0.26221   0.58280   0.32327   0.00000  Uiso   1.00
N90    N     0.31735   0.76467   0.60041   0.00000  Uiso   1.00
N91    N     0.13183   0.49150   0.49202   0.00000  Uiso   1.00
N92    N     0.33208   0.54825   0.24389   0.00000  Uiso   1.00
C93    C     0.31558   0.13908   0.63483   0.00000  Uiso   1.00
C94    C     0.28112   0.17477   0.70530   0.00000  Uiso   1.00
C95    C     0.29107   0.22403   0.72035   0.00000  Uiso   1.00
C96    C     0.25477   0.25047   0.78799   0.00000  Uiso   1.00
C97    C     0.20807   0.30924   0.88975   0.00000  Uiso   1.00
C98    C     0.33225   0.09949   0.73520   0.00000  Uiso   1.00
C99    C     0.38520   0.08544   0.77536   0.00000  Uiso   1.00
C100   C     0.39194   0.04850   0.86815   0.00000  Uiso   1.00
C101   C     0.42462   0.99037   0.01626   0.00000  Uiso   1.00
C102   C     0.27706   0.11514   0.52798   0.00000  Uiso   1.00
C103   C     0.28360   0.11423   0.39392   0.00000  Uiso   1.00
C104   C     0.24388   0.09046   0.31225   0.00000  Uiso   1.00
C105   C     0.19086   0.05662   0.13862   0.00000  Uiso   1.00
C106   C     0.23341   0.09845   0.72818   0.00000  Uiso   1.00
C107   C     0.23649   0.15270   0.75601   0.00000  Uiso   1.00
C108   C     0.20017   0.17907   0.82363   0.00000  Uiso   1.00
C109   C     0.21006   0.22836   0.83878   0.00000  Uiso   1.00
C110   C     0.28763   0.07742   0.78590   0.00000  Uiso   1.00
C111   C     0.29429   0.04049   0.87865   0.00000  Uiso   1.00
C112   C     0.34723   0.02639   0.91895   0.00000  Uiso   1.00
C113   C     0.23243   0.09307   0.57868   0.00000  Uiso   1.00
C114   C     0.19269   0.06928   0.49721   0.00000  Uiso   1.00
C115   C     0.19917   0.06835   0.36305   0.00000  Uiso   1.00
H116   H     0.35033   0.15626   0.59536   0.00000  Uiso   1.00
H117   H     0.32562   0.24109   0.68111   0.00000  Uiso   1.00
H118   H     0.41973   0.10252   0.73610   0.00000  Uiso   1.00
H119   H     0.31814   0.13132   0.35472   0.00000  Uiso   1.00
H120   H     0.27855   0.32541   0.79858   0.00000  Uiso   1.00
H121   H     0.47698   0.03322   0.91449   0.00000  Uiso   1.00
H122   H     0.26278   0.09393   0.11028   0.00000  Uiso   1.00
H123   H     0.19867   0.08127   0.76766   0.00000  Uiso   1.00
H124   H     0.16563   0.16198   0.86286   0.00000  Uiso   1.00
H125   H     0.25974   0.02342   0.91786   0.00000  Uiso   1.00
H126   H     0.15816   0.05221   0.53648   0.00000  Uiso   1.00
H127   H     0.14871   0.26120   0.94610   0.00000  Uiso   1.00
H128   H     0.34714   0.96901   0.06202   0.00000  Uiso   1.00
H129   H     0.13293   0.02972   0.25781   0.00000  Uiso   1.00
O130   O     0.19465   0.34775   0.93190   0.00000  Uiso   1.00
O131   O     0.45498   0.96440   0.08395   0.00000  Uiso   1.00
O132   O     0.17395   0.04406   0.02885   0.00000  Uiso   1.00
N133   N     0.25252   0.29922   0.82021   0.00000  Uiso   1.00
N134   N     0.43804   0.02604   0.92860   0.00000  Uiso   1.00
N135   N     0.23779   0.08280   0.17673   0.00000  Uiso   1.00
N136   N     0.18265   0.26467   0.89959   0.00000  Uiso   1.00
N137   N     0.36817   0.99150   0.00798   0.00000  Uiso   1.00
N138   N     0.16792   0.04825   0.25611   0.00000  Uiso   1.00
C139   C     0.81558   0.63908   0.63483   0.00000  Uiso   1.00
C140   C     0.78112   0.67477   0.70530   0.00000  Uiso   1.00
C141   C     0.79107   0.72403   0.72035   0.00000  Uiso   1.00
C142   C     0.75477   0.75047   0.78799   0.00000  Uiso   1.00
C143   C     0.70807   0.80924   0.88975   0.00000  Uiso   1.00
C144   C     0.83225   0.59949   0.73520   0.00000  Uiso   1.00
C145   C     0.88520   0.58544   0.77536   0.00000  Uiso   1.00
C146   C     0.89194   0.54850   0.86815   0.00000  Uiso   1.00
C147   C     0.92462   0.49037   0.01626   0.00000  Uiso   1.00
C148   C     0.77706   0.61514   0.52798   0.00000  Uiso   1.00
C149   C     0.78360   0.61423   0.39392   0.00000  Uiso   1.00
C150   C     0.74388   0.59046   0.31225   0.00000  Uiso   1.00
C151   C     0.69086   0.55662   0.13862   0.00000  Uiso   1.00
C152   C     0.73341   0.59845   0.72818   0.00000  Uiso   1.00
C153   C     0.73649   0.65270   0.75601   0.00000  Uiso   1.00
C154   C     0.70017   0.67907   0.82363   0.00000  Uiso   1.00
C155   C     0.71006   0.72836   0.83878   0.00000  Uiso   1.00
C156   C     0.78763   0.57742   0.78590   0.00000  Uiso   1.00
C157   C     0.79429   0.54049   0.87865   0.00000  Uiso   1.00
C158   C     0.84723   0.52639   0.91895   0.00000  Uiso   1.00
C159   C     0.73243   0.59307   0.57868   0.00000  Uiso   1.00
C160   C     0.69269   0.56928   0.49721   0.00000  Uiso   1.00
C161   C     0.69917   0.56835   0.36305   0.00000  Uiso   1.00
H162   H     0.85033   0.65626   0.59536   0.00000  Uiso   1.00
H163   H     0.82562   0.74109   0.68111   0.00000  Uiso   1.00
H164   H     0.91973   0.60252   0.73610   0.00000  Uiso   1.00
H165   H     0.81814   0.63132   0.35472   0.00000  Uiso   1.00
H166   H     0.77855   0.82541   0.79858   0.00000  Uiso   1.00
H167   H     0.97698   0.53322   0.91449   0.00000  Uiso   1.00
H168   H     0.76278   0.59393   0.11028   0.00000  Uiso   1.00
H169   H     0.69867   0.58127   0.76766   0.00000  Uiso   1.00
H170   H     0.66563   0.66198   0.86286   0.00000  Uiso   1.00
H171   H     0.75974   0.52342   0.91786   0.00000  Uiso   1.00
H172   H     0.65816   0.55221   0.53648   0.00000  Uiso   1.00
H173   H     0.64871   0.76120   0.94610   0.00000  Uiso   1.00
H174   H     0.84714   0.46901   0.06202   0.00000  Uiso   1.00
H175   H     0.63293   0.52972   0.25781   0.00000  Uiso   1.00
O176   O     0.69465   0.84775   0.93190   0.00000  Uiso   1.00
O177   O     0.95498   0.46440   0.08395   0.00000  Uiso   1.00
O178   O     0.67395   0.54406   0.02885   0.00000  Uiso   1.00
N179   N     0.75252   0.79922   0.82021   0.00000  Uiso   1.00
N180   N     0.93804   0.52604   0.92860   0.00000  Uiso   1.00
N181   N     0.73779   0.58280   0.17673   0.00000  Uiso   1.00
N182   N     0.68265   0.76467   0.89959   0.00000  Uiso   1.00
N183   N     0.86817   0.49150   0.00798   0.00000  Uiso   1.00
N184   N     0.66792   0.54825   0.25611   0.00000  Uiso   1.00
C185   C     0.31558   0.86092   0.13483   0.00000  Uiso   1.00
C186   C     0.28112   0.82523   0.20530   0.00000  Uiso   1.00
C187   C     0.29107   0.77597   0.22035   0.00000  Uiso   1.00
C188   C     0.25477   0.74953   0.28799   0.00000  Uiso   1.00
C189   C     0.20807   0.69076   0.38975   0.00000  Uiso   1.00
C190   C     0.33225   0.90051   0.23520   0.00000  Uiso   1.00
C191   C     0.38520   0.91456   0.27536   0.00000  Uiso   1.00
C192   C     0.39194   0.95150   0.36815   0.00000  Uiso   1.00
C193   C     0.42462   0.00963   0.51626   0.00000  Uiso   1.00
C194   C     0.27706   0.88486   0.02798   0.00000  Uiso   1.00
C195   C     0.28360   0.88577   0.89392   0.00000  Uiso   1.00
C196   C     0.24388   0.90954   0.81225   0.00000  Uiso   1.00
C197   C     0.19086   0.94338   0.63862   0.00000  Uiso   1.00
C198   C     0.23341   0.90155   0.22818   0.00000  Uiso   1.00
C199   C     0.23649   0.84730   0.25601   0.00000  Uiso   1.00
C200   C     0.20017   0.82093   0.32363   0.00000  Uiso   1.00
C201   C     0.21006   0.77164   0.33878   0.00000  Uiso   1.00
C202   C     0.28763   0.92258   0.28590   0.00000  Uiso   1.00
C203   C     0.29429   0.95951   0.37865   0.00000  Uiso   1.00
C204   C     0.34723   0.97361   0.41895   0.00000  Uiso   1.00
C205   C     0.23243   0.90693   0.07868   0.00000  Uiso   1.00
C206   C     0.19269   0.93072   0.99721   0.00000  Uiso   1.00
C207   C     0.19917   0.93165   0.86305   0.00000  Uiso   1.00
H208   H     0.35033   0.84374   0.09536   0.00000  Uiso   1.00
H209   H     0.32562   0.75891   0.18111   0.00000  Uiso   1.00
H210   H     0.41973   0.89748   0.23610   0.00000  Uiso   1.00
H211   H     0.31814   0.86868   0.85472   0.00000  Uiso   1.00
H212   H     0.27855   0.67459   0.29858   0.00000  Uiso   1.00
H213   H     0.47698   0.96678   0.41449   0.00000  Uiso   1.00
H214   H     0.26278   0.90607   0.61028   0.00000  Uiso   1.00
H215   H     0.19867   0.91873   0.26766   0.00000  Uiso   1.00
H216   H     0.16563   0.83802   0.36286   0.00000  Uiso   1.00
H217   H     0.25974   0.97658   0.41786   0.00000  Uiso   1.00
H218   H     0.15816   0.94779   0.03648   0.00000  Uiso   1.00
H219   H     0.14871   0.73880   0.44610   0.00000  Uiso   1.00
H220   H     0.34714   0.03099   0.56202   0.00000  Uiso   1.00
H221   H     0.13293   0.97028   0.75781   0.00000  Uiso   1.00
O222   O     0.19465   0.65225   0.43190   0.00000  Uiso   1.00
O223   O     0.45498   0.03560   0.58395   0.00000  Uiso   1.00
O224   O     0.17395   0.95594   0.52885   0.00000  Uiso   1.00
N225   N     0.25252   0.70078   0.32021   0.00000  Uiso   1.00
N226   N     0.43804   0.97396   0.42860   0.00000  Uiso   1.00
N227   N     0.23779   0.91720   0.67673   0.00000  Uiso   1.00
N228   N     0.18265   0.73533   0.39959   0.00000  Uiso   1.00
N229   N     0.36817   0.00850   0.50798   0.00000  Uiso   1.00
N230   N     0.16792   0.95175   0.75611   0.00000  Uiso   1.00
C231   C     0.81558   0.36092   0.13483   0.00000  Uiso   1.00
C232   C     0.78112   0.32523   0.20530   0.00000  Uiso   1.00
C233   C     0.79107   0.27597   0.22035   0.00000  Uiso   1.00
C234   C     0.75477   0.24953   0.28799   0.00000  Uiso   1.00
C235   C     0.70807   0.19076   0.38975   0.00000  Uiso   1.00
C236   C     0.83225   0.40051   0.23520   0.00000  Uiso   1.00
C237   C     0.88520   0.41456   0.27536   0.00000  Uiso   1.00
C238   C     0.89194   0.45150   0.36815   0.00000  Uiso   1.00
C239   C     0.92462   0.50963   0.51626   0.00000  Uiso   1.00
C240   C     0.77706   0.38486   0.02798   0.00000  Uiso   1.00
C241   C     0.78360   0.38577   0.89392   0.00000  Uiso   1.00
C242   C     0.74388   0.40954   0.81225   0.00000  Uiso   1.00
C243   C     0.69086   0.44338   0.63862   0.00000  Uiso   1.00
C244   C     0.73341   0.40155   0.22818   0.00000  Uiso   1.00
C245   C     0.73649   0.34730   0.25601   0.00000  Uiso   1.00
C246   C     0.70017   0.32093   0.32363   0.00000  Uiso   1.00
C247   C     0.71006   0.27164   0.33878   0.00000  Uiso   1.00
C248   C     0.78763   0.42258   0.28590   0.00000  Uiso   1.00
C249   C     0.79429   0.45951   0.37865   0.00000  Uiso   1.00
C250   C     0.84723   0.47361   0.41895   0.00000  Uiso   1.00
C251   C     0.73243   0.40693   0.07868   0.00000  Uiso   1.00
C252   C     0.69269   0.43072   0.99721   0.00000  Uiso   1.00
C253   C     0.69917   0.43165   0.86305   0.00000  Uiso   1.00
H254   H     0.85033   0.34374   0.09536   0.00000  Uiso   1.00
H255   H     0.82562   0.25891   0.18111   0.00000  Uiso   1.00
H256   H     0.91973   0.39748   0.23610   0.00000  Uiso   1.00
H257   H     0.81814   0.36868   0.85472   0.00000  Uiso   1.00
H258   H     0.77855   0.17459   0.29858   0.00000  Uiso   1.00
H259   H     0.97698   0.46678   0.41449   0.00000  Uiso   1.00
H260   H     0.76278   0.40607   0.61028   0.00000  Uiso   1.00
H261   H     0.69867   0.41873   0.26766   0.00000  Uiso   1.00
H262   H     0.66563   0.33802   0.36286   0.00000  Uiso   1.00
H263   H     0.75974   0.47658   0.41786   0.00000  Uiso   1.00
H264   H     0.65816   0.44779   0.03648   0.00000  Uiso   1.00
H265   H     0.64871   0.23880   0.44610   0.00000  Uiso   1.00
H266   H     0.84714   0.53099   0.56202   0.00000  Uiso   1.00
H267   H     0.63293   0.47028   0.75781   0.00000  Uiso   1.00
O268   O     0.69465   0.15225   0.43190   0.00000  Uiso   1.00
O269   O     0.95498   0.53560   0.58395   0.00000  Uiso   1.00
O270   O     0.67395   0.45594   0.52885   0.00000  Uiso   1.00
N271   N     0.75252   0.20078   0.32021   0.00000  Uiso   1.00
N272   N     0.93804   0.47396   0.42860   0.00000  Uiso   1.00
N273   N     0.73779   0.41720   0.67673   0.00000  Uiso   1.00
N274   N     0.68265   0.23533   0.39959   0.00000  Uiso   1.00
N275   N     0.86817   0.50850   0.50798   0.00000  Uiso   1.00
N276   N     0.66792   0.45175   0.75611   0.00000  Uiso   1.00
C277   C     0.68442   0.86092   0.36517   0.00000  Uiso   1.00
C278   C     0.71888   0.82523   0.29470   0.00000  Uiso   1.00
C279   C     0.70893   0.77597   0.27965   0.00000  Uiso   1.00
C280   C     0.74523   0.74953   0.21201   0.00000  Uiso   1.00
C281   C     0.79193   0.69076   0.11025   0.00000  Uiso   1.00
C282   C     0.66775   0.90051   0.26480   0.00000  Uiso   1.00
C283   C     0.61480   0.91456   0.22464   0.00000  Uiso   1.00
C284   C     0.60806   0.95150   0.13185   0.00000  Uiso   1.00
C285   C     0.57538   0.00963   0.98374   0.00000  Uiso   1.00
C286   C     0.72294   0.88486   0.47202   0.00000  Uiso   1.00
C287   C     0.71640   0.88577   0.60608   0.00000  Uiso   1.00
C288   C     0.75612   0.90954   0.68775   0.00000  Uiso   1.00
C289   C     0.80914   0.94338   0.86138   0.00000  Uiso   1.00
C290   C     0.76659   0.90155   0.27182   0.00000  Uiso   1.00
C291   C     0.76351   0.84730   0.24399   0.00000  Uiso   1.00
C292   C     0.79983   0.82093   0.17637   0.00000  Uiso   1.00
C293   C     0.78994   0.77164   0.16122   0.00000  Uiso   1.00
C294   C     0.71237   0.92258   0.21410   0.00000  Uiso   1.00
C295   C     0.70571   0.95951   0.12135   0.00000  Uiso   1.00
C296   C     0.65277   0.97361   0.08105   0.00000  Uiso   1.00
C297   C     0.76757   0.90693   0.42132   0.00000  Uiso   1.00
C298   C     0.80731   0.93072   0.50279   0.00000  Uiso   1.00
C299   C     0.80083   0.93165   0.63695   0.00000  Uiso   1.00
H300   H     0.64967   0.84374   0.40464   0.00000  Uiso   1.00
H301   H     0.67438   0.75891   0.31889   0.00000  Uiso   1.00
H302   H     0.58027   0.89748   0.26390   0.00000  Uiso   1.00
H303   H     0.68186   0.86868   0.64528   0.00000  Uiso   1.00
H304   H     0.72145   0.67459   0.20142   0.00000  Uiso   1.00
H305   H     0.52302   0.96678   0.08551   0.00000  Uiso   1.00
H306   H     0.73722   0.90607   0.88972   0.00000  Uiso   1.00
H307   H     0.80133   0.91873   0.23234   0.00000  Uiso   1.00
H308   H     0.83437   0.83802   0.13714   0.00000  Uiso   1.00
H309   H     0.74026   0.97658   0.08214   0.00000  Uiso   1.00
H310   H     0.84184   0.94779   0.46352   0.00000  Uiso   1.00
H311   H     0.85129   0.73880   0.05390   0.00000  Uiso   1.00
H312   H     0.65286   0.03099   0.93798   0.00000  Uiso   1.00
H313   H     0.86707   0.97028   0.74219   0.00000  Uiso   1.00
O314   O     0.80535   0.65225   0.06810   0.00000  Uiso   1.00
O315   O     0.54502   0.03560   0.91605   0.00000  Uiso   1.00
O316   O     0.82605   0.95594   0.97115   0.00000  Uiso   1.00
N317   N     0.74748   0.70078   0.17979   0.00000  Uiso   1.00
N318   N     0.56196   0.97396   0.07140   0.00000  Uiso   1.00
N319   N     0.76221   0.91720   0.82327   0.00000  Uiso   1.00
N320   N     0.81735   0.73533   0.10041   0.00000  Uiso   1.00
N321   N     0.63183   0.00850   0.99202   0.00000  Uiso   1.00
N322   N     0.83208   0.95175   0.74389   0.00000  Uiso   1.00
C323   C     0.18442   0.36092   0.36517   0.00000  Uiso   1.00
C324   C     0.21888   0.32523   0.29470   0.00000  Uiso   1.00
C325   C     0.20893   0.27597   0.27965   0.00000  Uiso   1.00
C326   C     0.24523   0.24953   0.21201   0.00000  Uiso   1.00
C327   C     0.29193   0.19076   0.11025   0.00000  Uiso   1.00
C328   C     0.16775   0.40051   0.26480   0.00000  Uiso   1.00
C329   C     0.11480   0.41456   0.22464   0.00000  Uiso   1.00
C330   C     0.10806   0.45150   0.13185   0.00000  Uiso   1.00
C331   C     0.07538   0.50963   0.98374   0.00000  Uiso   1.00
C332   C     0.22294   0.38486   0.47202   0.00000  Uiso   1.00
C333   C     0.21640   0.38577   0.60608   0.00000  Uiso   1.00
C334   C     0.25612   0.40954   0.68775   0.00000  Uiso   1.00
C335   C     0.30914   0.44338   0.86138   0.00000  Uiso   1.00
C336   C     0.26659   0.40155   0.27182   0.00000  Uiso   1.00
C337   C     0.26351   0.34730   0.24399   0.00000  Uiso   1.00
C338   C     0.29983   0.32093   0.17637   0.00000  Uiso   1.00
C339   C     0.28994   0.27164   0.16122   0.00000  Uiso   1.00
C340   C     0.21237   0.42258   0.21410   0.00000  Uiso   1.00
C341   C     0.20571   0.45951   0.12135   0.00000  Uiso   1.00
C342   C     0.15277   0.47361   0.08105   0.00000  Uiso   1.00
C343   C     0.26757   0.40693   0.42132   0.00000  Uiso   1.00
C344   C     0.30731   0.43072   0.50279   0.00000  Uiso   1.00
C345   C     0.30083   0.43165   0.63695   0.00000  Uiso   1.00
H346   H     0.14967   0.34374   0.40464   0.00000  Uiso   1.00
H347   H     0.17438   0.25891   0.31889   0.00000  Uiso   1.00
H348   H     0.08027   0.39748   0.26390   0.00000  Uiso   1.00
H349   H     0.18186   0.36868   0.64528   0.00000  Uiso   1.00
H350   H     0.22145   0.17459   0.20142   0.00000  Uiso   1.00
H351   H     0.02302   0.46678   0.08551   0.00000  Uiso   1.00
H352   H     0.23722   0.40607   0.88972   0.00000  Uiso   1.00
H353   H     0.30133   0.41873   0.23234   0.00000  Uiso   1.00
H354   H     0.33437   0.33802   0.13714   0.00000  Uiso   1.00
H355   H     0.24026   0.47658   0.08214   0.00000  Uiso   1.00
H356   H     0.34184   0.44779   0.46352   0.00000  Uiso   1.00
H357   H     0.35129   0.23880   0.05390   0.00000  Uiso   1.00
H358   H     0.15286   0.53099   0.93798   0.00000  Uiso   1.00
H359   H     0.36707   0.47028   0.74219   0.00000  Uiso   1.00
O360   O     0.30535   0.15225   0.06810   0.00000  Uiso   1.00
O361   O     0.04502   0.53560   0.91605   0.00000  Uiso   1.00
O362   O     0.32605   0.45594   0.97115   0.00000  Uiso   1.00
N363   N     0.24748   0.20078   0.17979   0.00000  Uiso   1.00
N364   N     0.06196   0.47396   0.07140   0.00000  Uiso   1.00
N365   N     0.26221   0.41720   0.82327   0.00000  Uiso   1.00
N366   N     0.31735   0.23533   0.10041   0.00000  Uiso   1.00
N367   N     0.13183   0.50850   0.99202   0.00000  Uiso   1.00
N368   N     0.33208   0.45175   0.74389   0.00000  Uiso   1.00
