data_job_02384
_audit_creation_date              2018-12-19
_audit_creation_method            'Materials Studio'
_symmetry_space_group_name_H-M    'P1'
_symmetry_Int_Tables_number       1
_symmetry_cell_setting            triclinic
loop_
_symmetry_equiv_pos_as_xyz
  x,y,z
_cell_length_a                    42.1975
_cell_length_b                    30.1152
_cell_length_c                    7.2454
_cell_angle_alpha                 90.0000
_cell_angle_beta                  80.3463
_cell_angle_gamma                 90.0000
loop_
_atom_site_label
_atom_site_type_symbol
_atom_site_fract_x
_atom_site_fract_y
_atom_site_fract_z
_atom_site_U_iso_or_equiv
_atom_site_adp_type
_atom_site_occupancy
C1     C     0.34085   0.28707   0.49680   0.00000  Uiso   1.00
C2     C     0.32975   0.32953   0.60303   0.00000  Uiso   1.00
C3     C     0.32021   0.36829   0.52447   0.00000  Uiso   1.00
C4     C     0.31091   0.40346   0.64537   0.00000  Uiso   1.00
C5     C     0.29365   0.46992   0.78101   0.00000  Uiso   1.00
C6     C     0.37418   0.27701   0.54123   0.00000  Uiso   1.00
C7     C     0.40199   0.27162   0.41072   0.00000  Uiso   1.00
C8     C     0.43009   0.26257   0.47960   0.00000  Uiso   1.00
C9     C     0.48181   0.24746   0.51930   0.00000  Uiso   1.00
C10    C     0.31893   0.25024   0.58900   0.00000  Uiso   1.00
C11    C     0.30029   0.22233   0.49864   0.00000  Uiso   1.00
C12    C     0.28188   0.19073   0.60773   0.00000  Uiso   1.00
C13    C     0.24781   0.13406   0.72160   0.00000  Uiso   1.00
C14    C     0.34129   0.28058   0.85119   0.00000  Uiso   1.00
C15    C     0.32999   0.32600   0.79552   0.00000  Uiso   1.00
C16    C     0.32070   0.36112   0.91656   0.00000  Uiso   1.00
C17    C     0.31115   0.39993   0.83820   0.00000  Uiso   1.00
C18    C     0.37442   0.27349   0.73371   0.00000  Uiso   1.00
C19    C     0.40248   0.26444   0.80281   0.00000  Uiso   1.00
C20    C     0.43034   0.25904   0.67244   0.00000  Uiso   1.00
C21    C     0.31916   0.24671   0.78149   0.00000  Uiso   1.00
C22    C     0.30078   0.21515   0.89074   0.00000  Uiso   1.00
C23    C     0.28212   0.18720   0.80057   0.00000  Uiso   1.00
H24    H     0.34066   0.28981   0.34694   0.00000  Uiso   1.00
H25    H     0.32003   0.37101   0.37550   0.00000  Uiso   1.00
H26    H     0.40180   0.27434   0.26176   0.00000  Uiso   1.00
H27    H     0.30011   0.22506   0.34968   0.00000  Uiso   1.00
H28    H     0.29727   0.45948   0.49204   0.00000  Uiso   1.00
H29    H     0.46969   0.25564   0.25222   0.00000  Uiso   1.00
H30    H     0.25526   0.15172   0.43761   0.00000  Uiso   1.00
H31    H     0.34148   0.27784   0.00106   0.00000  Uiso   1.00
H32    H     0.32089   0.35838   0.06552   0.00000  Uiso   1.00
H33    H     0.40266   0.26171   0.95178   0.00000  Uiso   1.00
H34    H     0.30097   0.21244   0.03969   0.00000  Uiso   1.00
H35    H     0.29797   0.44923   0.05209   0.00000  Uiso   1.00
H36    H     0.47039   0.24538   0.81226   0.00000  Uiso   1.00
H37    H     0.25595   0.14147   0.99765   0.00000  Uiso   1.00
O38    O     0.28407   0.50756   0.80266   0.00000  Uiso   1.00
O39    O     0.51027   0.24011   0.48802   0.00000  Uiso   1.00
O40    O     0.22894   0.10379   0.73124   0.00000  Uiso   1.00
N41    N     0.30025   0.44601   0.61501   0.00000  Uiso   1.00
N42    N     0.46146   0.25544   0.39079   0.00000  Uiso   1.00
N43    N     0.26099   0.15828   0.56410   0.00000  Uiso   1.00
N44    N     0.30063   0.44050   0.91636   0.00000  Uiso   1.00
N45    N     0.46183   0.24992   0.69215   0.00000  Uiso   1.00
N46    N     0.26136   0.15276   0.86546   0.00000  Uiso   1.00
C47    C     0.84085   0.78707   0.49680   0.00000  Uiso   1.00
C48    C     0.82975   0.82953   0.60303   0.00000  Uiso   1.00
C49    C     0.82021   0.86829   0.52447   0.00000  Uiso   1.00
C50    C     0.81091   0.90346   0.64537   0.00000  Uiso   1.00
C51    C     0.79365   0.96992   0.78101   0.00000  Uiso   1.00
C52    C     0.87418   0.77701   0.54123   0.00000  Uiso   1.00
C53    C     0.90199   0.77162   0.41072   0.00000  Uiso   1.00
C54    C     0.93009   0.76257   0.47960   0.00000  Uiso   1.00
C55    C     0.98181   0.74746   0.51930   0.00000  Uiso   1.00
C56    C     0.81893   0.75024   0.58900   0.00000  Uiso   1.00
C57    C     0.80029   0.72233   0.49864   0.00000  Uiso   1.00
C58    C     0.78188   0.69073   0.60773   0.00000  Uiso   1.00
C59    C     0.74781   0.63406   0.72160   0.00000  Uiso   1.00
C60    C     0.84129   0.78058   0.85119   0.00000  Uiso   1.00
C61    C     0.82999   0.82600   0.79552   0.00000  Uiso   1.00
C62    C     0.82070   0.86112   0.91656   0.00000  Uiso   1.00
C63    C     0.81115   0.89993   0.83820   0.00000  Uiso   1.00
C64    C     0.87442   0.77349   0.73371   0.00000  Uiso   1.00
C65    C     0.90248   0.76444   0.80281   0.00000  Uiso   1.00
C66    C     0.93034   0.75904   0.67244   0.00000  Uiso   1.00
C67    C     0.81916   0.74671   0.78149   0.00000  Uiso   1.00
C68    C     0.80078   0.71515   0.89074   0.00000  Uiso   1.00
C69    C     0.78212   0.68720   0.80057   0.00000  Uiso   1.00
H70    H     0.84066   0.78981   0.34694   0.00000  Uiso   1.00
H71    H     0.82003   0.87101   0.37550   0.00000  Uiso   1.00
H72    H     0.90180   0.77434   0.26176   0.00000  Uiso   1.00
H73    H     0.80011   0.72506   0.34968   0.00000  Uiso   1.00
H74    H     0.79727   0.95948   0.49204   0.00000  Uiso   1.00
H75    H     0.96969   0.75564   0.25222   0.00000  Uiso   1.00
H76    H     0.75526   0.65172   0.43761   0.00000  Uiso   1.00
H77    H     0.84148   0.77784   0.00106   0.00000  Uiso   1.00
H78    H     0.82089   0.85838   0.06552   0.00000  Uiso   1.00
H79    H     0.90266   0.76171   0.95178   0.00000  Uiso   1.00
H80    H     0.80097   0.71244   0.03969   0.00000  Uiso   1.00
H81    H     0.79797   0.94923   0.05209   0.00000  Uiso   1.00
H82    H     0.97039   0.74538   0.81226   0.00000  Uiso   1.00
H83    H     0.75595   0.64147   0.99765   0.00000  Uiso   1.00
O84    O     0.78407   0.00756   0.80266   0.00000  Uiso   1.00
O85    O     0.01027   0.74011   0.48802   0.00000  Uiso   1.00
O86    O     0.72894   0.60379   0.73124   0.00000  Uiso   1.00
N87    N     0.80025   0.94601   0.61501   0.00000  Uiso   1.00
N88    N     0.96146   0.75544   0.39079   0.00000  Uiso   1.00
N89    N     0.76099   0.65828   0.56410   0.00000  Uiso   1.00
N90    N     0.80063   0.94050   0.91636   0.00000  Uiso   1.00
N91    N     0.96183   0.74992   0.69215   0.00000  Uiso   1.00
N92    N     0.76136   0.65276   0.86546   0.00000  Uiso   1.00
C93    C     0.65915   0.28707   0.00320   0.00000  Uiso   1.00
C94    C     0.67025   0.32953   0.89697   0.00000  Uiso   1.00
C95    C     0.67979   0.36829   0.97553   0.00000  Uiso   1.00
C96    C     0.68909   0.40346   0.85463   0.00000  Uiso   1.00
C97    C     0.70635   0.46992   0.71899   0.00000  Uiso   1.00
C98    C     0.62582   0.27701   0.95877   0.00000  Uiso   1.00
C99    C     0.59801   0.27162   0.08928   0.00000  Uiso   1.00
C100   C     0.56991   0.26257   0.02040   0.00000  Uiso   1.00
C101   C     0.51819   0.24746   0.98070   0.00000  Uiso   1.00
C102   C     0.68107   0.25024   0.91100   0.00000  Uiso   1.00
C103   C     0.69971   0.22233   0.00136   0.00000  Uiso   1.00
C104   C     0.71812   0.19073   0.89227   0.00000  Uiso   1.00
C105   C     0.75219   0.13406   0.77840   0.00000  Uiso   1.00
C106   C     0.65871   0.28058   0.64881   0.00000  Uiso   1.00
C107   C     0.67001   0.32600   0.70448   0.00000  Uiso   1.00
C108   C     0.67930   0.36112   0.58344   0.00000  Uiso   1.00
C109   C     0.68885   0.39993   0.66180   0.00000  Uiso   1.00
C110   C     0.62558   0.27349   0.76629   0.00000  Uiso   1.00
C111   C     0.59752   0.26444   0.69719   0.00000  Uiso   1.00
C112   C     0.56966   0.25904   0.82756   0.00000  Uiso   1.00
C113   C     0.68084   0.24671   0.71851   0.00000  Uiso   1.00
C114   C     0.69922   0.21515   0.60926   0.00000  Uiso   1.00
C115   C     0.71788   0.18720   0.69943   0.00000  Uiso   1.00
H116   H     0.65934   0.28981   0.15306   0.00000  Uiso   1.00
H117   H     0.67997   0.37101   0.12450   0.00000  Uiso   1.00
H118   H     0.59820   0.27434   0.23824   0.00000  Uiso   1.00
H119   H     0.69989   0.22506   0.15032   0.00000  Uiso   1.00
H120   H     0.70273   0.45948   0.00796   0.00000  Uiso   1.00
H121   H     0.53031   0.25564   0.24778   0.00000  Uiso   1.00
H122   H     0.74474   0.15172   0.06239   0.00000  Uiso   1.00
H123   H     0.65852   0.27784   0.49894   0.00000  Uiso   1.00
H124   H     0.67911   0.35838   0.43448   0.00000  Uiso   1.00
H125   H     0.59734   0.26171   0.54822   0.00000  Uiso   1.00
H126   H     0.69903   0.21244   0.46031   0.00000  Uiso   1.00
H127   H     0.70203   0.44923   0.44791   0.00000  Uiso   1.00
H128   H     0.52961   0.24538   0.68774   0.00000  Uiso   1.00
H129   H     0.74405   0.14147   0.50235   0.00000  Uiso   1.00
O130   O     0.71593   0.50756   0.69734   0.00000  Uiso   1.00
O131   O     0.48973   0.24011   0.01198   0.00000  Uiso   1.00
O132   O     0.77106   0.10379   0.76876   0.00000  Uiso   1.00
N133   N     0.69975   0.44601   0.88499   0.00000  Uiso   1.00
N134   N     0.53854   0.25544   0.10921   0.00000  Uiso   1.00
N135   N     0.73901   0.15828   0.93590   0.00000  Uiso   1.00
N136   N     0.69937   0.44050   0.58364   0.00000  Uiso   1.00
N137   N     0.53817   0.24992   0.80785   0.00000  Uiso   1.00
N138   N     0.73864   0.15276   0.63454   0.00000  Uiso   1.00
C139   C     0.15915   0.78707   0.00320   0.00000  Uiso   1.00
C140   C     0.17025   0.82953   0.89697   0.00000  Uiso   1.00
C141   C     0.17979   0.86829   0.97553   0.00000  Uiso   1.00
C142   C     0.18909   0.90346   0.85463   0.00000  Uiso   1.00
C143   C     0.20635   0.96992   0.71899   0.00000  Uiso   1.00
C144   C     0.12582   0.77701   0.95877   0.00000  Uiso   1.00
C145   C     0.09801   0.77162   0.08928   0.00000  Uiso   1.00
C146   C     0.06991   0.76257   0.02040   0.00000  Uiso   1.00
C147   C     0.01819   0.74746   0.98070   0.00000  Uiso   1.00
C148   C     0.18107   0.75024   0.91100   0.00000  Uiso   1.00
C149   C     0.19971   0.72233   0.00136   0.00000  Uiso   1.00
C150   C     0.21812   0.69073   0.89227   0.00000  Uiso   1.00
C151   C     0.25219   0.63406   0.77840   0.00000  Uiso   1.00
C152   C     0.15871   0.78058   0.64881   0.00000  Uiso   1.00
C153   C     0.17001   0.82600   0.70448   0.00000  Uiso   1.00
C154   C     0.17930   0.86112   0.58344   0.00000  Uiso   1.00
C155   C     0.18885   0.89993   0.66180   0.00000  Uiso   1.00
C156   C     0.12558   0.77349   0.76629   0.00000  Uiso   1.00
C157   C     0.09752   0.76444   0.69719   0.00000  Uiso   1.00
C158   C     0.06966   0.75904   0.82756   0.00000  Uiso   1.00
C159   C     0.18084   0.74671   0.71851   0.00000  Uiso   1.00
C160   C     0.19922   0.71515   0.60926   0.00000  Uiso   1.00
C161   C     0.21788   0.68720   0.69943   0.00000  Uiso   1.00
H162   H     0.15934   0.78981   0.15306   0.00000  Uiso   1.00
H163   H     0.17997   0.87101   0.12450   0.00000  Uiso   1.00
H164   H     0.09820   0.77434   0.23824   0.00000  Uiso   1.00
H165   H     0.19989   0.72506   0.15032   0.00000  Uiso   1.00
H166   H     0.20273   0.95948   0.00796   0.00000  Uiso   1.00
H167   H     0.03031   0.75564   0.24778   0.00000  Uiso   1.00
H168   H     0.24474   0.65172   0.06239   0.00000  Uiso   1.00
H169   H     0.15852   0.77784   0.49894   0.00000  Uiso   1.00
H170   H     0.17911   0.85838   0.43448   0.00000  Uiso   1.00
H171   H     0.09734   0.76171   0.54822   0.00000  Uiso   1.00
H172   H     0.19903   0.71244   0.46031   0.00000  Uiso   1.00
H173   H     0.20203   0.94923   0.44791   0.00000  Uiso   1.00
H174   H     0.02961   0.74538   0.68774   0.00000  Uiso   1.00
H175   H     0.24405   0.64147   0.50235   0.00000  Uiso   1.00
O176   O     0.21593   0.00756   0.69734   0.00000  Uiso   1.00
O177   O     0.98973   0.74011   0.01198   0.00000  Uiso   1.00
O178   O     0.27106   0.60379   0.76876   0.00000  Uiso   1.00
N179   N     0.19975   0.94601   0.88499   0.00000  Uiso   1.00
N180   N     0.03854   0.75544   0.10921   0.00000  Uiso   1.00
N181   N     0.23901   0.65828   0.93590   0.00000  Uiso   1.00
N182   N     0.19937   0.94050   0.58364   0.00000  Uiso   1.00
N183   N     0.03817   0.74992   0.80785   0.00000  Uiso   1.00
N184   N     0.23864   0.65276   0.63454   0.00000  Uiso   1.00
C185   C     0.65915   0.71293   0.50320   0.00000  Uiso   1.00
C186   C     0.67025   0.67047   0.39697   0.00000  Uiso   1.00
C187   C     0.67979   0.63171   0.47553   0.00000  Uiso   1.00
C188   C     0.68909   0.59654   0.35463   0.00000  Uiso   1.00
C189   C     0.70635   0.53008   0.21899   0.00000  Uiso   1.00
C190   C     0.62582   0.72299   0.45877   0.00000  Uiso   1.00
C191   C     0.59801   0.72838   0.58928   0.00000  Uiso   1.00
C192   C     0.56991   0.73743   0.52040   0.00000  Uiso   1.00
C193   C     0.51819   0.75254   0.48070   0.00000  Uiso   1.00
C194   C     0.68107   0.74976   0.41100   0.00000  Uiso   1.00
C195   C     0.69971   0.77767   0.50136   0.00000  Uiso   1.00
C196   C     0.71812   0.80927   0.39227   0.00000  Uiso   1.00
C197   C     0.75219   0.86594   0.27840   0.00000  Uiso   1.00
C198   C     0.65871   0.71942   0.14881   0.00000  Uiso   1.00
C199   C     0.67001   0.67400   0.20448   0.00000  Uiso   1.00
C200   C     0.67930   0.63888   0.08344   0.00000  Uiso   1.00
C201   C     0.68885   0.60007   0.16180   0.00000  Uiso   1.00
C202   C     0.62558   0.72651   0.26629   0.00000  Uiso   1.00
C203   C     0.59752   0.73556   0.19719   0.00000  Uiso   1.00
C204   C     0.56966   0.74096   0.32756   0.00000  Uiso   1.00
C205   C     0.68084   0.75329   0.21851   0.00000  Uiso   1.00
C206   C     0.69922   0.78485   0.10926   0.00000  Uiso   1.00
C207   C     0.71788   0.81280   0.19943   0.00000  Uiso   1.00
H208   H     0.65934   0.71019   0.65306   0.00000  Uiso   1.00
H209   H     0.67997   0.62899   0.62450   0.00000  Uiso   1.00
H210   H     0.59820   0.72566   0.73824   0.00000  Uiso   1.00
H211   H     0.69989   0.77494   0.65032   0.00000  Uiso   1.00
H212   H     0.70273   0.54052   0.50796   0.00000  Uiso   1.00
H213   H     0.53031   0.74436   0.74778   0.00000  Uiso   1.00
H214   H     0.74474   0.84828   0.56239   0.00000  Uiso   1.00
H215   H     0.65852   0.72216   0.99894   0.00000  Uiso   1.00
H216   H     0.67911   0.64162   0.93448   0.00000  Uiso   1.00
H217   H     0.59734   0.73829   0.04822   0.00000  Uiso   1.00
H218   H     0.69903   0.78756   0.96031   0.00000  Uiso   1.00
H219   H     0.70203   0.55077   0.94791   0.00000  Uiso   1.00
H220   H     0.52961   0.75462   0.18774   0.00000  Uiso   1.00
H221   H     0.74405   0.85853   0.00235   0.00000  Uiso   1.00
O222   O     0.71593   0.49244   0.19734   0.00000  Uiso   1.00
O223   O     0.48973   0.75989   0.51198   0.00000  Uiso   1.00
O224   O     0.77106   0.89621   0.26876   0.00000  Uiso   1.00
N225   N     0.69975   0.55399   0.38499   0.00000  Uiso   1.00
N226   N     0.53854   0.74456   0.60921   0.00000  Uiso   1.00
N227   N     0.73901   0.84172   0.43590   0.00000  Uiso   1.00
N228   N     0.69937   0.55950   0.08364   0.00000  Uiso   1.00
N229   N     0.53817   0.75008   0.30785   0.00000  Uiso   1.00
N230   N     0.73864   0.84724   0.13454   0.00000  Uiso   1.00
C231   C     0.15915   0.21293   0.50320   0.00000  Uiso   1.00
C232   C     0.17025   0.17047   0.39697   0.00000  Uiso   1.00
C233   C     0.17979   0.13171   0.47553   0.00000  Uiso   1.00
C234   C     0.18909   0.09654   0.35463   0.00000  Uiso   1.00
C235   C     0.20635   0.03008   0.21899   0.00000  Uiso   1.00
C236   C     0.12582   0.22299   0.45877   0.00000  Uiso   1.00
C237   C     0.09801   0.22838   0.58928   0.00000  Uiso   1.00
C238   C     0.06991   0.23743   0.52040   0.00000  Uiso   1.00
C239   C     0.01819   0.25254   0.48070   0.00000  Uiso   1.00
C240   C     0.18107   0.24976   0.41100   0.00000  Uiso   1.00
C241   C     0.19971   0.27767   0.50136   0.00000  Uiso   1.00
C242   C     0.21812   0.30927   0.39227   0.00000  Uiso   1.00
C243   C     0.25219   0.36594   0.27840   0.00000  Uiso   1.00
C244   C     0.15871   0.21942   0.14881   0.00000  Uiso   1.00
C245   C     0.17001   0.17400   0.20448   0.00000  Uiso   1.00
C246   C     0.17930   0.13888   0.08344   0.00000  Uiso   1.00
C247   C     0.18885   0.10007   0.16180   0.00000  Uiso   1.00
C248   C     0.12558   0.22651   0.26629   0.00000  Uiso   1.00
C249   C     0.09752   0.23556   0.19719   0.00000  Uiso   1.00
C250   C     0.06966   0.24096   0.32756   0.00000  Uiso   1.00
C251   C     0.18084   0.25329   0.21851   0.00000  Uiso   1.00
C252   C     0.19922   0.28485   0.10926   0.00000  Uiso   1.00
C253   C     0.21788   0.31280   0.19943   0.00000  Uiso   1.00
H254   H     0.15934   0.21019   0.65306   0.00000  Uiso   1.00
H255   H     0.17997   0.12899   0.62450   0.00000  Uiso   1.00
H256   H     0.09820   0.22566   0.73824   0.00000  Uiso   1.00
H257   H     0.19989   0.27494   0.65032   0.00000  Uiso   1.00
H258   H     0.20273   0.04052   0.50796   0.00000  Uiso   1.00
H259   H     0.03031   0.24436   0.74778   0.00000  Uiso   1.00
H260   H     0.24474   0.34828   0.56239   0.00000  Uiso   1.00
H261   H     0.15852   0.22216   0.99894   0.00000  Uiso   1.00
H262   H     0.17911   0.14162   0.93448   0.00000  Uiso   1.00
H263   H     0.09734   0.23829   0.04822   0.00000  Uiso   1.00
H264   H     0.19903   0.28756   0.96031   0.00000  Uiso   1.00
H265   H     0.20203   0.05077   0.94791   0.00000  Uiso   1.00
H266   H     0.02961   0.25462   0.18774   0.00000  Uiso   1.00
H267   H     0.24405   0.35853   0.00235   0.00000  Uiso   1.00
O268   O     0.21593   0.99244   0.19734   0.00000  Uiso   1.00
O269   O     0.98973   0.25989   0.51198   0.00000  Uiso   1.00
O270   O     0.27106   0.39621   0.26876   0.00000  Uiso   1.00
N271   N     0.19975   0.05399   0.38499   0.00000  Uiso   1.00
N272   N     0.03854   0.24456   0.60921   0.00000  Uiso   1.00
N273   N     0.23901   0.34172   0.43590   0.00000  Uiso   1.00
N274   N     0.19937   0.05950   0.08364   0.00000  Uiso   1.00
N275   N     0.03817   0.25008   0.30785   0.00000  Uiso   1.00
N276   N     0.23864   0.34724   0.13454   0.00000  Uiso   1.00
C277   C     0.34085   0.71293   0.99680   0.00000  Uiso   1.00
C278   C     0.32975   0.67047   0.10303   0.00000  Uiso   1.00
C279   C     0.32021   0.63171   0.02447   0.00000  Uiso   1.00
C280   C     0.31091   0.59654   0.14537   0.00000  Uiso   1.00
C281   C     0.29365   0.53008   0.28101   0.00000  Uiso   1.00
C282   C     0.37418   0.72299   0.04123   0.00000  Uiso   1.00
C283   C     0.40199   0.72838   0.91072   0.00000  Uiso   1.00
C284   C     0.43009   0.73743   0.97960   0.00000  Uiso   1.00
C285   C     0.48181   0.75254   0.01930   0.00000  Uiso   1.00
C286   C     0.31893   0.74976   0.08900   0.00000  Uiso   1.00
C287   C     0.30029   0.77767   0.99864   0.00000  Uiso   1.00
C288   C     0.28188   0.80927   0.10773   0.00000  Uiso   1.00
C289   C     0.24781   0.86594   0.22160   0.00000  Uiso   1.00
C290   C     0.34129   0.71942   0.35119   0.00000  Uiso   1.00
C291   C     0.32999   0.67400   0.29552   0.00000  Uiso   1.00
C292   C     0.32070   0.63888   0.41656   0.00000  Uiso   1.00
C293   C     0.31115   0.60007   0.33820   0.00000  Uiso   1.00
C294   C     0.37442   0.72651   0.23371   0.00000  Uiso   1.00
C295   C     0.40248   0.73556   0.30281   0.00000  Uiso   1.00
C296   C     0.43034   0.74096   0.17244   0.00000  Uiso   1.00
C297   C     0.31916   0.75329   0.28149   0.00000  Uiso   1.00
C298   C     0.30078   0.78485   0.39074   0.00000  Uiso   1.00
C299   C     0.28212   0.81280   0.30057   0.00000  Uiso   1.00
H300   H     0.34066   0.71019   0.84694   0.00000  Uiso   1.00
H301   H     0.32003   0.62899   0.87550   0.00000  Uiso   1.00
H302   H     0.40180   0.72566   0.76176   0.00000  Uiso   1.00
H303   H     0.30011   0.77494   0.84968   0.00000  Uiso   1.00
H304   H     0.29727   0.54052   0.99204   0.00000  Uiso   1.00
H305   H     0.46969   0.74436   0.75222   0.00000  Uiso   1.00
H306   H     0.25526   0.84828   0.93761   0.00000  Uiso   1.00
H307   H     0.34148   0.72216   0.50106   0.00000  Uiso   1.00
H308   H     0.32089   0.64162   0.56552   0.00000  Uiso   1.00
H309   H     0.40266   0.73829   0.45178   0.00000  Uiso   1.00
H310   H     0.30097   0.78756   0.53969   0.00000  Uiso   1.00
H311   H     0.29797   0.55077   0.55209   0.00000  Uiso   1.00
H312   H     0.47039   0.75462   0.31226   0.00000  Uiso   1.00
H313   H     0.25595   0.85853   0.49765   0.00000  Uiso   1.00
O314   O     0.28407   0.49244   0.30266   0.00000  Uiso   1.00
O315   O     0.51027   0.75989   0.98802   0.00000  Uiso   1.00
O316   O     0.22894   0.89621   0.23124   0.00000  Uiso   1.00
N317   N     0.30025   0.55399   0.11501   0.00000  Uiso   1.00
N318   N     0.46146   0.74456   0.89079   0.00000  Uiso   1.00
N319   N     0.26099   0.84172   0.06410   0.00000  Uiso   1.00
N320   N     0.30063   0.55950   0.41636   0.00000  Uiso   1.00
N321   N     0.46183   0.75008   0.19215   0.00000  Uiso   1.00
N322   N     0.26136   0.84724   0.36546   0.00000  Uiso   1.00
C323   C     0.84085   0.21293   0.99680   0.00000  Uiso   1.00
C324   C     0.82975   0.17047   0.10303   0.00000  Uiso   1.00
C325   C     0.82021   0.13171   0.02447   0.00000  Uiso   1.00
C326   C     0.81091   0.09654   0.14537   0.00000  Uiso   1.00
C327   C     0.79365   0.03008   0.28101   0.00000  Uiso   1.00
C328   C     0.87418   0.22299   0.04123   0.00000  Uiso   1.00
C329   C     0.90199   0.22838   0.91072   0.00000  Uiso   1.00
C330   C     0.93009   0.23743   0.97960   0.00000  Uiso   1.00
C331   C     0.98181   0.25254   0.01930   0.00000  Uiso   1.00
C332   C     0.81893   0.24976   0.08900   0.00000  Uiso   1.00
C333   C     0.80029   0.27767   0.99864   0.00000  Uiso   1.00
C334   C     0.78188   0.30927   0.10773   0.00000  Uiso   1.00
C335   C     0.74781   0.36594   0.22160   0.00000  Uiso   1.00
C336   C     0.84129   0.21942   0.35119   0.00000  Uiso   1.00
C337   C     0.82999   0.17400   0.29552   0.00000  Uiso   1.00
C338   C     0.82070   0.13888   0.41656   0.00000  Uiso   1.00
C339   C     0.81115   0.10007   0.33820   0.00000  Uiso   1.00
C340   C     0.87442   0.22651   0.23371   0.00000  Uiso   1.00
C341   C     0.90248   0.23556   0.30281   0.00000  Uiso   1.00
C342   C     0.93034   0.24096   0.17244   0.00000  Uiso   1.00
C343   C     0.81916   0.25329   0.28149   0.00000  Uiso   1.00
C344   C     0.80078   0.28485   0.39074   0.00000  Uiso   1.00
C345   C     0.78212   0.31280   0.30057   0.00000  Uiso   1.00
H346   H     0.84066   0.21019   0.84694   0.00000  Uiso   1.00
H347   H     0.82003   0.12899   0.87550   0.00000  Uiso   1.00
H348   H     0.90180   0.22566   0.76176   0.00000  Uiso   1.00
H349   H     0.80011   0.27494   0.84968   0.00000  Uiso   1.00
H350   H     0.79727   0.04052   0.99204   0.00000  Uiso   1.00
H351   H     0.96969   0.24436   0.75222   0.00000  Uiso   1.00
H352   H     0.75526   0.34828   0.93761   0.00000  Uiso   1.00
H353   H     0.84148   0.22216   0.50106   0.00000  Uiso   1.00
H354   H     0.82089   0.14162   0.56552   0.00000  Uiso   1.00
H355   H     0.90266   0.23829   0.45178   0.00000  Uiso   1.00
H356   H     0.80097   0.28756   0.53969   0.00000  Uiso   1.00
H357   H     0.79797   0.05077   0.55209   0.00000  Uiso   1.00
H358   H     0.97039   0.25462   0.31226   0.00000  Uiso   1.00
H359   H     0.75595   0.35853   0.49765   0.00000  Uiso   1.00
O360   O     0.78407   0.99244   0.30266   0.00000  Uiso   1.00
O361   O     0.01027   0.25989   0.98802   0.00000  Uiso   1.00
O362   O     0.72894   0.39621   0.23124   0.00000  Uiso   1.00
N363   N     0.80025   0.05399   0.11501   0.00000  Uiso   1.00
N364   N     0.96146   0.24456   0.89079   0.00000  Uiso   1.00
N365   N     0.76099   0.34172   0.06410   0.00000  Uiso   1.00
N366   N     0.80063   0.05950   0.41636   0.00000  Uiso   1.00
N367   N     0.96183   0.25008   0.19215   0.00000  Uiso   1.00
N368   N     0.76136   0.34724   0.36546   0.00000  Uiso   1.00
