data_job_04835
_audit_creation_date              2018-12-19
_audit_creation_method            'Materials Studio'
_symmetry_space_group_name_H-M    'P1'
_symmetry_Int_Tables_number       1
_symmetry_cell_setting            triclinic
loop_
_symmetry_equiv_pos_as_xyz
  x,y,z
_cell_length_a                    22.2324
_cell_length_b                    12.0579
_cell_length_c                    35.8468
_cell_angle_alpha                 90.0000
_cell_angle_beta                  138.2074
_cell_angle_gamma                 90.0000
loop_
_atom_site_label
_atom_site_type_symbol
_atom_site_fract_x
_atom_site_fract_y
_atom_site_fract_z
_atom_site_U_iso_or_equiv
_atom_site_adp_type
_atom_site_occupancy
C1     C     0.91459   0.38582   0.60873   0.00000  Uiso   1.00
C2     C     0.93497   0.26998   0.60331   0.00000  Uiso   1.00
C3     C     0.90497   0.17111   0.60490   0.00000  Uiso   1.00
C4     C     0.93098   0.07386   0.59919   0.00000  Uiso   1.00
C5     C     0.95444   0.89374   0.59187   0.00000  Uiso   1.00
C6     C     0.00591   0.44072   0.65758   0.00000  Uiso   1.00
C7     C     0.03556   0.48542   0.70479   0.00000  Uiso   1.00
C8     C     0.12128   0.53191   0.74477   0.00000  Uiso   1.00
C9     C     0.25486   0.61694   0.82168   0.00000  Uiso   1.00
C10    C     0.87110   0.44888   0.55643   0.00000  Uiso   1.00
C11    C     0.78739   0.50048   0.51860   0.00000  Uiso   1.00
C12    C     0.75962   0.55387   0.47342   0.00000  Uiso   1.00
C13    C     0.68387   0.65157   0.39329   0.00000  Uiso   1.00
C14    C     0.01412   0.38892   0.59577   0.00000  Uiso   1.00
C15    C     0.98903   0.27167   0.59627   0.00000  Uiso   1.00
C16    C     0.01509   0.17455   0.59055   0.00000  Uiso   1.00
C17    C     0.98514   0.07555   0.59214   0.00000  Uiso   1.00
C18    C     0.05997   0.44241   0.65054   0.00000  Uiso   1.00
C19    C     0.14567   0.48886   0.69045   0.00000  Uiso   1.00
C20    C     0.17544   0.53361   0.73771   0.00000  Uiso   1.00
C21    C     0.92515   0.45057   0.54939   0.00000  Uiso   1.00
C22    C     0.89751   0.50390   0.50426   0.00000  Uiso   1.00
C23    C     0.81378   0.55556   0.46637   0.00000  Uiso   1.00
H24    H     0.87250   0.38451   0.61422   0.00000  Uiso   1.00
H25    H     0.86314   0.16984   0.61036   0.00000  Uiso   1.00
H26    H     0.99370   0.48411   0.71023   0.00000  Uiso   1.00
H27    H     0.74558   0.49915   0.52407   0.00000  Uiso   1.00
H28    H     0.87663   0.93258   0.60299   0.00000  Uiso   1.00
H29    H     0.15191   0.59527   0.81357   0.00000  Uiso   1.00
H30    H     0.62869   0.62700   0.42101   0.00000  Uiso   1.00
H31    H     0.05621   0.39024   0.59028   0.00000  Uiso   1.00
H32    H     0.05693   0.17588   0.58511   0.00000  Uiso   1.00
H33    H     0.18749   0.49015   0.68498   0.00000  Uiso   1.00
H34    H     0.93936   0.50519   0.49882   0.00000  Uiso   1.00
H35    H     0.03392   0.93748   0.58250   0.00000  Uiso   1.00
H36    H     0.30920   0.60018   0.79308   0.00000  Uiso   1.00
H37    H     0.78598   0.63190   0.40052   0.00000  Uiso   1.00
O38    O     0.95246   0.79392   0.58979   0.00000  Uiso   1.00
O39    O     0.31360   0.66336   0.86605   0.00000  Uiso   1.00
O40    O     0.62715   0.70498   0.35103   0.00000  Uiso   1.00
N41    N     0.91354   0.96316   0.59887   0.00000  Uiso   1.00
N42    N     0.17091   0.58271   0.79575   0.00000  Uiso   1.00
N43    N     0.68176   0.61240   0.42875   0.00000  Uiso   1.00
N44    N     0.99817   0.96579   0.58784   0.00000  Uiso   1.00
N45    N     0.25554   0.58535   0.78472   0.00000  Uiso   1.00
N46    N     0.76639   0.61504   0.41772   0.00000  Uiso   1.00
C47    C     0.41545   0.04058   0.60658   0.00000  Uiso   1.00
C48    C     0.43874   0.92590   0.60222   0.00000  Uiso   1.00
C49    C     0.40856   0.82572   0.60268   0.00000  Uiso   1.00
C50    C     0.43752   0.72988   0.59825   0.00000  Uiso   1.00
C51    C     0.46504   0.55115   0.59223   0.00000  Uiso   1.00
C52    C     0.50534   0.09685   0.65657   0.00000  Uiso   1.00
C53    C     0.53114   0.14042   0.70272   0.00000  Uiso   1.00
C54    C     0.61616   0.18849   0.74403   0.00000  Uiso   1.00
C55    C     0.74704   0.27523   0.82237   0.00000  Uiso   1.00
C56    C     0.37429   0.10443   0.55501   0.00000  Uiso   1.00
C57    C     0.28991   0.15440   0.51576   0.00000  Uiso   1.00
C58    C     0.26459   0.20889   0.47158   0.00000  Uiso   1.00
C59    C     0.19200   0.30740   0.39222   0.00000  Uiso   1.00
C60    C     0.52054   0.04851   0.59791   0.00000  Uiso   1.00
C61    C     0.49583   0.93021   0.59752   0.00000  Uiso   1.00
C62    C     0.52483   0.83449   0.59308   0.00000  Uiso   1.00
C63    C     0.49470   0.73419   0.59353   0.00000  Uiso   1.00
C64    C     0.56242   0.10116   0.65186   0.00000  Uiso   1.00
C65    C     0.64741   0.14919   0.69312   0.00000  Uiso   1.00
C66    C     0.67334   0.19280   0.73932   0.00000  Uiso   1.00
C67    C     0.43137   0.10874   0.55030   0.00000  Uiso   1.00
C68    C     0.40618   0.16317   0.50617   0.00000  Uiso   1.00
C69    C     0.32178   0.21320   0.46686   0.00000  Uiso   1.00
H70    H     0.37101   0.03724   0.61025   0.00000  Uiso   1.00
H71    H     0.36439   0.82243   0.60633   0.00000  Uiso   1.00
H72    H     0.48695   0.13708   0.70635   0.00000  Uiso   1.00
H73    H     0.24576   0.15105   0.51942   0.00000  Uiso   1.00
H74    H     0.38226   0.58617   0.59992   0.00000  Uiso   1.00
H75    H     0.64066   0.24966   0.81081   0.00000  Uiso   1.00
H76    H     0.13205   0.27914   0.41664   0.00000  Uiso   1.00
H77    H     0.56498   0.05187   0.59424   0.00000  Uiso   1.00
H78    H     0.56900   0.83785   0.58944   0.00000  Uiso   1.00
H79    H     0.69156   0.15251   0.68946   0.00000  Uiso   1.00
H80    H     0.45037   0.16648   0.50253   0.00000  Uiso   1.00
H81    H     0.54833   0.59869   0.58622   0.00000  Uiso   1.00
H82    H     0.80674   0.26219   0.79710   0.00000  Uiso   1.00
H83    H     0.29813   0.29166   0.40293   0.00000  Uiso   1.00
O84    O     0.46446   0.45138   0.59022   0.00000  Uiso   1.00
O85    O     0.80347   0.32188   0.86689   0.00000  Uiso   1.00
O86    O     0.13619   0.36054   0.34975   0.00000  Uiso   1.00
N87    N     0.42077   0.61848   0.59734   0.00000  Uiso   1.00
N88    N     0.66238   0.23880   0.79452   0.00000  Uiso   1.00
N89    N     0.18688   0.26638   0.42601   0.00000  Uiso   1.00
N90    N     0.51014   0.62522   0.58997   0.00000  Uiso   1.00
N91    N     0.75174   0.24553   0.78714   0.00000  Uiso   1.00
N92    N     0.27624   0.27312   0.41863   0.00000  Uiso   1.00
C93    C     0.08541   0.38582   0.89127   0.00000  Uiso   1.00
C94    C     0.06503   0.26998   0.89669   0.00000  Uiso   1.00
C95    C     0.09503   0.17111   0.89510   0.00000  Uiso   1.00
C96    C     0.06902   0.07386   0.90081   0.00000  Uiso   1.00
C97    C     0.04556   0.89374   0.90813   0.00000  Uiso   1.00
C98    C     0.99409   0.44072   0.84242   0.00000  Uiso   1.00
C99    C     0.96444   0.48542   0.79521   0.00000  Uiso   1.00
C100   C     0.87872   0.53191   0.75523   0.00000  Uiso   1.00
C101   C     0.74514   0.61694   0.67832   0.00000  Uiso   1.00
C102   C     0.12890   0.44888   0.94357   0.00000  Uiso   1.00
C103   C     0.21261   0.50048   0.98140   0.00000  Uiso   1.00
C104   C     0.24038   0.55387   0.02658   0.00000  Uiso   1.00
C105   C     0.31613   0.65157   0.10671   0.00000  Uiso   1.00
C106   C     0.98588   0.38892   0.90423   0.00000  Uiso   1.00
C107   C     0.01097   0.27167   0.90373   0.00000  Uiso   1.00
C108   C     0.98491   0.17455   0.90945   0.00000  Uiso   1.00
C109   C     0.01486   0.07555   0.90786   0.00000  Uiso   1.00
C110   C     0.94003   0.44241   0.84946   0.00000  Uiso   1.00
C111   C     0.85433   0.48886   0.80955   0.00000  Uiso   1.00
C112   C     0.82456   0.53361   0.76229   0.00000  Uiso   1.00
C113   C     0.07485   0.45057   0.95061   0.00000  Uiso   1.00
C114   C     0.10249   0.50390   0.99574   0.00000  Uiso   1.00
C115   C     0.18622   0.55556   0.03363   0.00000  Uiso   1.00
H116   H     0.12750   0.38451   0.88578   0.00000  Uiso   1.00
H117   H     0.13686   0.16984   0.88964   0.00000  Uiso   1.00
H118   H     0.00630   0.48411   0.78977   0.00000  Uiso   1.00
H119   H     0.25442   0.49915   0.97593   0.00000  Uiso   1.00
H120   H     0.12337   0.93258   0.89701   0.00000  Uiso   1.00
H121   H     0.84809   0.59527   0.68643   0.00000  Uiso   1.00
H122   H     0.37131   0.62700   0.07899   0.00000  Uiso   1.00
H123   H     0.94379   0.39024   0.90972   0.00000  Uiso   1.00
H124   H     0.94307   0.17588   0.91489   0.00000  Uiso   1.00
H125   H     0.81251   0.49015   0.81502   0.00000  Uiso   1.00
H126   H     0.06064   0.50519   0.00118   0.00000  Uiso   1.00
H127   H     0.96608   0.93748   0.91750   0.00000  Uiso   1.00
H128   H     0.69080   0.60018   0.70692   0.00000  Uiso   1.00
H129   H     0.21402   0.63190   0.09948   0.00000  Uiso   1.00
O130   O     0.04754   0.79392   0.91021   0.00000  Uiso   1.00
O131   O     0.68640   0.66336   0.63395   0.00000  Uiso   1.00
O132   O     0.37285   0.70498   0.14897   0.00000  Uiso   1.00
N133   N     0.08646   0.96316   0.90113   0.00000  Uiso   1.00
N134   N     0.82909   0.58271   0.70425   0.00000  Uiso   1.00
N135   N     0.31824   0.61240   0.07125   0.00000  Uiso   1.00
N136   N     0.00183   0.96579   0.91216   0.00000  Uiso   1.00
N137   N     0.74446   0.58535   0.71528   0.00000  Uiso   1.00
N138   N     0.23361   0.61504   0.08228   0.00000  Uiso   1.00
C139   C     0.58455   0.04058   0.89342   0.00000  Uiso   1.00
C140   C     0.56126   0.92590   0.89778   0.00000  Uiso   1.00
C141   C     0.59144   0.82572   0.89732   0.00000  Uiso   1.00
C142   C     0.56248   0.72988   0.90175   0.00000  Uiso   1.00
C143   C     0.53496   0.55115   0.90777   0.00000  Uiso   1.00
C144   C     0.49466   0.09685   0.84343   0.00000  Uiso   1.00
C145   C     0.46886   0.14042   0.79728   0.00000  Uiso   1.00
C146   C     0.38384   0.18849   0.75597   0.00000  Uiso   1.00
C147   C     0.25296   0.27523   0.67763   0.00000  Uiso   1.00
C148   C     0.62571   0.10443   0.94499   0.00000  Uiso   1.00
C149   C     0.71009   0.15440   0.98424   0.00000  Uiso   1.00
C150   C     0.73541   0.20889   0.02842   0.00000  Uiso   1.00
C151   C     0.80800   0.30740   0.10778   0.00000  Uiso   1.00
C152   C     0.47946   0.04851   0.90209   0.00000  Uiso   1.00
C153   C     0.50417   0.93021   0.90248   0.00000  Uiso   1.00
C154   C     0.47517   0.83449   0.90692   0.00000  Uiso   1.00
C155   C     0.50530   0.73419   0.90647   0.00000  Uiso   1.00
C156   C     0.43758   0.10116   0.84814   0.00000  Uiso   1.00
C157   C     0.35259   0.14919   0.80688   0.00000  Uiso   1.00
C158   C     0.32666   0.19280   0.76068   0.00000  Uiso   1.00
C159   C     0.56863   0.10874   0.94970   0.00000  Uiso   1.00
C160   C     0.59382   0.16317   0.99383   0.00000  Uiso   1.00
C161   C     0.67822   0.21320   0.03314   0.00000  Uiso   1.00
H162   H     0.62899   0.03724   0.88975   0.00000  Uiso   1.00
H163   H     0.63561   0.82243   0.89367   0.00000  Uiso   1.00
H164   H     0.51305   0.13708   0.79365   0.00000  Uiso   1.00
H165   H     0.75424   0.15105   0.98058   0.00000  Uiso   1.00
H166   H     0.61774   0.58617   0.90008   0.00000  Uiso   1.00
H167   H     0.35934   0.24966   0.68919   0.00000  Uiso   1.00
H168   H     0.86795   0.27914   0.08336   0.00000  Uiso   1.00
H169   H     0.43502   0.05187   0.90576   0.00000  Uiso   1.00
H170   H     0.43100   0.83785   0.91056   0.00000  Uiso   1.00
H171   H     0.30844   0.15251   0.81054   0.00000  Uiso   1.00
H172   H     0.54963   0.16648   0.99747   0.00000  Uiso   1.00
H173   H     0.45167   0.59869   0.91378   0.00000  Uiso   1.00
H174   H     0.19326   0.26219   0.70290   0.00000  Uiso   1.00
H175   H     0.70187   0.29166   0.09707   0.00000  Uiso   1.00
O176   O     0.53554   0.45138   0.90978   0.00000  Uiso   1.00
O177   O     0.19653   0.32188   0.63311   0.00000  Uiso   1.00
O178   O     0.86381   0.36054   0.15025   0.00000  Uiso   1.00
N179   N     0.57923   0.61848   0.90266   0.00000  Uiso   1.00
N180   N     0.33762   0.23880   0.70548   0.00000  Uiso   1.00
N181   N     0.81312   0.26638   0.07399   0.00000  Uiso   1.00
N182   N     0.48986   0.62522   0.91003   0.00000  Uiso   1.00
N183   N     0.24826   0.24553   0.71286   0.00000  Uiso   1.00
N184   N     0.72376   0.27312   0.08137   0.00000  Uiso   1.00
C185   C     0.08541   0.61418   0.39127   0.00000  Uiso   1.00
C186   C     0.06503   0.73002   0.39669   0.00000  Uiso   1.00
C187   C     0.09503   0.82889   0.39510   0.00000  Uiso   1.00
C188   C     0.06902   0.92614   0.40081   0.00000  Uiso   1.00
C189   C     0.04556   0.10626   0.40813   0.00000  Uiso   1.00
C190   C     0.99409   0.55928   0.34242   0.00000  Uiso   1.00
C191   C     0.96444   0.51458   0.29521   0.00000  Uiso   1.00
C192   C     0.87872   0.46809   0.25523   0.00000  Uiso   1.00
C193   C     0.74514   0.38306   0.17832   0.00000  Uiso   1.00
C194   C     0.12890   0.55112   0.44357   0.00000  Uiso   1.00
C195   C     0.21261   0.49952   0.48140   0.00000  Uiso   1.00
C196   C     0.24038   0.44613   0.52658   0.00000  Uiso   1.00
C197   C     0.31613   0.34843   0.60671   0.00000  Uiso   1.00
C198   C     0.98588   0.61108   0.40423   0.00000  Uiso   1.00
C199   C     0.01097   0.72833   0.40373   0.00000  Uiso   1.00
C200   C     0.98491   0.82545   0.40945   0.00000  Uiso   1.00
C201   C     0.01486   0.92445   0.40786   0.00000  Uiso   1.00
C202   C     0.94003   0.55759   0.34946   0.00000  Uiso   1.00
C203   C     0.85433   0.51114   0.30955   0.00000  Uiso   1.00
C204   C     0.82456   0.46639   0.26229   0.00000  Uiso   1.00
C205   C     0.07485   0.54943   0.45061   0.00000  Uiso   1.00
C206   C     0.10249   0.49610   0.49574   0.00000  Uiso   1.00
C207   C     0.18622   0.44444   0.53363   0.00000  Uiso   1.00
H208   H     0.12750   0.61549   0.38578   0.00000  Uiso   1.00
H209   H     0.13686   0.83016   0.38964   0.00000  Uiso   1.00
H210   H     0.00630   0.51589   0.28977   0.00000  Uiso   1.00
H211   H     0.25442   0.50085   0.47593   0.00000  Uiso   1.00
H212   H     0.12337   0.06742   0.39701   0.00000  Uiso   1.00
H213   H     0.84809   0.40473   0.18643   0.00000  Uiso   1.00
H214   H     0.37131   0.37300   0.57899   0.00000  Uiso   1.00
H215   H     0.94379   0.60976   0.40972   0.00000  Uiso   1.00
H216   H     0.94307   0.82412   0.41489   0.00000  Uiso   1.00
H217   H     0.81251   0.50985   0.31502   0.00000  Uiso   1.00
H218   H     0.06064   0.49481   0.50118   0.00000  Uiso   1.00
H219   H     0.96608   0.06252   0.41750   0.00000  Uiso   1.00
H220   H     0.69080   0.39982   0.20692   0.00000  Uiso   1.00
H221   H     0.21402   0.36810   0.59948   0.00000  Uiso   1.00
O222   O     0.04754   0.20608   0.41021   0.00000  Uiso   1.00
O223   O     0.68640   0.33664   0.13395   0.00000  Uiso   1.00
O224   O     0.37285   0.29502   0.64897   0.00000  Uiso   1.00
N225   N     0.08646   0.03684   0.40113   0.00000  Uiso   1.00
N226   N     0.82909   0.41729   0.20425   0.00000  Uiso   1.00
N227   N     0.31824   0.38760   0.57125   0.00000  Uiso   1.00
N228   N     0.00183   0.03421   0.41216   0.00000  Uiso   1.00
N229   N     0.74446   0.41465   0.21528   0.00000  Uiso   1.00
N230   N     0.23361   0.38496   0.58228   0.00000  Uiso   1.00
C231   C     0.58455   0.95942   0.39342   0.00000  Uiso   1.00
C232   C     0.56126   0.07410   0.39778   0.00000  Uiso   1.00
C233   C     0.59144   0.17428   0.39732   0.00000  Uiso   1.00
C234   C     0.56248   0.27012   0.40175   0.00000  Uiso   1.00
C235   C     0.53496   0.44885   0.40777   0.00000  Uiso   1.00
C236   C     0.49466   0.90315   0.34343   0.00000  Uiso   1.00
C237   C     0.46886   0.85958   0.29728   0.00000  Uiso   1.00
C238   C     0.38384   0.81151   0.25597   0.00000  Uiso   1.00
C239   C     0.25296   0.72477   0.17763   0.00000  Uiso   1.00
C240   C     0.62571   0.89557   0.44499   0.00000  Uiso   1.00
C241   C     0.71009   0.84560   0.48424   0.00000  Uiso   1.00
C242   C     0.73541   0.79111   0.52842   0.00000  Uiso   1.00
C243   C     0.80800   0.69260   0.60778   0.00000  Uiso   1.00
C244   C     0.47946   0.95149   0.40209   0.00000  Uiso   1.00
C245   C     0.50417   0.06979   0.40248   0.00000  Uiso   1.00
C246   C     0.47517   0.16551   0.40692   0.00000  Uiso   1.00
C247   C     0.50530   0.26581   0.40647   0.00000  Uiso   1.00
C248   C     0.43758   0.89884   0.34814   0.00000  Uiso   1.00
C249   C     0.35259   0.85081   0.30688   0.00000  Uiso   1.00
C250   C     0.32666   0.80720   0.26068   0.00000  Uiso   1.00
C251   C     0.56863   0.89126   0.44970   0.00000  Uiso   1.00
C252   C     0.59382   0.83683   0.49383   0.00000  Uiso   1.00
C253   C     0.67822   0.78680   0.53314   0.00000  Uiso   1.00
H254   H     0.62899   0.96276   0.38975   0.00000  Uiso   1.00
H255   H     0.63561   0.17757   0.39367   0.00000  Uiso   1.00
H256   H     0.51305   0.86292   0.29365   0.00000  Uiso   1.00
H257   H     0.75424   0.84895   0.48058   0.00000  Uiso   1.00
H258   H     0.61774   0.41383   0.40008   0.00000  Uiso   1.00
H259   H     0.35934   0.75034   0.18919   0.00000  Uiso   1.00
H260   H     0.86795   0.72086   0.58336   0.00000  Uiso   1.00
H261   H     0.43502   0.94813   0.40576   0.00000  Uiso   1.00
H262   H     0.43100   0.16215   0.41056   0.00000  Uiso   1.00
H263   H     0.30844   0.84749   0.31054   0.00000  Uiso   1.00
H264   H     0.54963   0.83352   0.49747   0.00000  Uiso   1.00
H265   H     0.45167   0.40131   0.41378   0.00000  Uiso   1.00
H266   H     0.19326   0.73781   0.20290   0.00000  Uiso   1.00
H267   H     0.70187   0.70834   0.59707   0.00000  Uiso   1.00
O268   O     0.53554   0.54862   0.40978   0.00000  Uiso   1.00
O269   O     0.19653   0.67812   0.13311   0.00000  Uiso   1.00
O270   O     0.86381   0.63946   0.65025   0.00000  Uiso   1.00
N271   N     0.57923   0.38152   0.40266   0.00000  Uiso   1.00
N272   N     0.33762   0.76120   0.20548   0.00000  Uiso   1.00
N273   N     0.81312   0.73362   0.57399   0.00000  Uiso   1.00
N274   N     0.48986   0.37478   0.41003   0.00000  Uiso   1.00
N275   N     0.24826   0.75447   0.21286   0.00000  Uiso   1.00
N276   N     0.72376   0.72688   0.58137   0.00000  Uiso   1.00
C277   C     0.91459   0.61418   0.10873   0.00000  Uiso   1.00
C278   C     0.93497   0.73002   0.10331   0.00000  Uiso   1.00
C279   C     0.90497   0.82889   0.10490   0.00000  Uiso   1.00
C280   C     0.93098   0.92614   0.09919   0.00000  Uiso   1.00
C281   C     0.95444   0.10626   0.09187   0.00000  Uiso   1.00
C282   C     0.00591   0.55928   0.15758   0.00000  Uiso   1.00
C283   C     0.03556   0.51458   0.20479   0.00000  Uiso   1.00
C284   C     0.12128   0.46809   0.24477   0.00000  Uiso   1.00
C285   C     0.25486   0.38306   0.32168   0.00000  Uiso   1.00
C286   C     0.87110   0.55112   0.05643   0.00000  Uiso   1.00
C287   C     0.78739   0.49952   0.01860   0.00000  Uiso   1.00
C288   C     0.75962   0.44613   0.97342   0.00000  Uiso   1.00
C289   C     0.68387   0.34843   0.89329   0.00000  Uiso   1.00
C290   C     0.01412   0.61108   0.09577   0.00000  Uiso   1.00
C291   C     0.98903   0.72833   0.09627   0.00000  Uiso   1.00
C292   C     0.01509   0.82545   0.09055   0.00000  Uiso   1.00
C293   C     0.98514   0.92445   0.09214   0.00000  Uiso   1.00
C294   C     0.05997   0.55759   0.15054   0.00000  Uiso   1.00
C295   C     0.14567   0.51114   0.19045   0.00000  Uiso   1.00
C296   C     0.17544   0.46639   0.23771   0.00000  Uiso   1.00
C297   C     0.92515   0.54943   0.04939   0.00000  Uiso   1.00
C298   C     0.89751   0.49610   0.00426   0.00000  Uiso   1.00
C299   C     0.81378   0.44444   0.96637   0.00000  Uiso   1.00
H300   H     0.87250   0.61549   0.11422   0.00000  Uiso   1.00
H301   H     0.86314   0.83016   0.11036   0.00000  Uiso   1.00
H302   H     0.99370   0.51589   0.21023   0.00000  Uiso   1.00
H303   H     0.74558   0.50085   0.02407   0.00000  Uiso   1.00
H304   H     0.87663   0.06742   0.10299   0.00000  Uiso   1.00
H305   H     0.15191   0.40473   0.31357   0.00000  Uiso   1.00
H306   H     0.62869   0.37300   0.92101   0.00000  Uiso   1.00
H307   H     0.05621   0.60976   0.09028   0.00000  Uiso   1.00
H308   H     0.05693   0.82412   0.08511   0.00000  Uiso   1.00
H309   H     0.18749   0.50985   0.18498   0.00000  Uiso   1.00
H310   H     0.93936   0.49481   0.99882   0.00000  Uiso   1.00
H311   H     0.03392   0.06252   0.08250   0.00000  Uiso   1.00
H312   H     0.30920   0.39982   0.29308   0.00000  Uiso   1.00
H313   H     0.78598   0.36810   0.90052   0.00000  Uiso   1.00
O314   O     0.95246   0.20608   0.08979   0.00000  Uiso   1.00
O315   O     0.31360   0.33664   0.36605   0.00000  Uiso   1.00
O316   O     0.62715   0.29502   0.85103   0.00000  Uiso   1.00
N317   N     0.91354   0.03684   0.09887   0.00000  Uiso   1.00
N318   N     0.17091   0.41729   0.29575   0.00000  Uiso   1.00
N319   N     0.68176   0.38760   0.92875   0.00000  Uiso   1.00
N320   N     0.99817   0.03421   0.08784   0.00000  Uiso   1.00
N321   N     0.25554   0.41465   0.28472   0.00000  Uiso   1.00
N322   N     0.76639   0.38496   0.91772   0.00000  Uiso   1.00
C323   C     0.41545   0.95942   0.10658   0.00000  Uiso   1.00
C324   C     0.43874   0.07410   0.10222   0.00000  Uiso   1.00
C325   C     0.40856   0.17428   0.10268   0.00000  Uiso   1.00
C326   C     0.43752   0.27012   0.09825   0.00000  Uiso   1.00
C327   C     0.46504   0.44885   0.09223   0.00000  Uiso   1.00
C328   C     0.50534   0.90315   0.15657   0.00000  Uiso   1.00
C329   C     0.53114   0.85958   0.20272   0.00000  Uiso   1.00
C330   C     0.61616   0.81151   0.24403   0.00000  Uiso   1.00
C331   C     0.74704   0.72477   0.32237   0.00000  Uiso   1.00
C332   C     0.37429   0.89557   0.05501   0.00000  Uiso   1.00
C333   C     0.28991   0.84560   0.01576   0.00000  Uiso   1.00
C334   C     0.26459   0.79111   0.97158   0.00000  Uiso   1.00
C335   C     0.19200   0.69260   0.89222   0.00000  Uiso   1.00
C336   C     0.52054   0.95149   0.09791   0.00000  Uiso   1.00
C337   C     0.49583   0.06979   0.09752   0.00000  Uiso   1.00
C338   C     0.52483   0.16551   0.09308   0.00000  Uiso   1.00
C339   C     0.49470   0.26581   0.09353   0.00000  Uiso   1.00
C340   C     0.56242   0.89884   0.15186   0.00000  Uiso   1.00
C341   C     0.64741   0.85081   0.19312   0.00000  Uiso   1.00
C342   C     0.67334   0.80720   0.23932   0.00000  Uiso   1.00
C343   C     0.43137   0.89126   0.05030   0.00000  Uiso   1.00
C344   C     0.40618   0.83683   0.00617   0.00000  Uiso   1.00
C345   C     0.32178   0.78680   0.96686   0.00000  Uiso   1.00
H346   H     0.37101   0.96276   0.11025   0.00000  Uiso   1.00
H347   H     0.36439   0.17757   0.10633   0.00000  Uiso   1.00
H348   H     0.48695   0.86292   0.20635   0.00000  Uiso   1.00
H349   H     0.24576   0.84895   0.01942   0.00000  Uiso   1.00
H350   H     0.38226   0.41383   0.09992   0.00000  Uiso   1.00
H351   H     0.64066   0.75034   0.31081   0.00000  Uiso   1.00
H352   H     0.13205   0.72086   0.91664   0.00000  Uiso   1.00
H353   H     0.56498   0.94813   0.09424   0.00000  Uiso   1.00
H354   H     0.56900   0.16215   0.08944   0.00000  Uiso   1.00
H355   H     0.69156   0.84749   0.18946   0.00000  Uiso   1.00
H356   H     0.45037   0.83352   0.00253   0.00000  Uiso   1.00
H357   H     0.54833   0.40131   0.08622   0.00000  Uiso   1.00
H358   H     0.80674   0.73781   0.29710   0.00000  Uiso   1.00
H359   H     0.29813   0.70834   0.90293   0.00000  Uiso   1.00
O360   O     0.46446   0.54862   0.09022   0.00000  Uiso   1.00
O361   O     0.80347   0.67812   0.36689   0.00000  Uiso   1.00
O362   O     0.13619   0.63946   0.84975   0.00000  Uiso   1.00
N363   N     0.42077   0.38152   0.09734   0.00000  Uiso   1.00
N364   N     0.66238   0.76120   0.29452   0.00000  Uiso   1.00
N365   N     0.18688   0.73362   0.92601   0.00000  Uiso   1.00
N366   N     0.51014   0.37478   0.08997   0.00000  Uiso   1.00
N367   N     0.75174   0.75447   0.28714   0.00000  Uiso   1.00
N368   N     0.27624   0.72688   0.91863   0.00000  Uiso   1.00
