data_job_03027
_audit_creation_date              2018-12-19
_audit_creation_method            'Materials Studio'
_symmetry_space_group_name_H-M    'P1'
_symmetry_Int_Tables_number       1
_symmetry_cell_setting            triclinic
loop_
_symmetry_equiv_pos_as_xyz
  x,y,z
_cell_length_a                    12.2371
_cell_length_b                    12.2371
_cell_length_c                    42.6969
_cell_angle_alpha                 90.0000
_cell_angle_beta                  90.0000
_cell_angle_gamma                 120.0000
loop_
_atom_site_label
_atom_site_type_symbol
_atom_site_fract_x
_atom_site_fract_y
_atom_site_fract_z
_atom_site_U_iso_or_equiv
_atom_site_adp_type
_atom_site_occupancy
C1     C     0.60804   0.13946   0.91844   0.00000  Uiso   1.00
C2     C     0.66672   0.05561   0.92176   0.00000  Uiso   1.00
C3     C     0.65885   0.98507   0.94800   0.00000  Uiso   1.00
C4     C     0.71900   0.91451   0.94640   0.00000  Uiso   1.00
C5     C     0.80019   0.78435   0.95565   0.00000  Uiso   1.00
C6     C     0.71617   0.27051   0.91017   0.00000  Uiso   1.00
C7     C     0.74986   0.38065   0.92665   0.00000  Uiso   1.00
C8     C     0.85162   0.49099   0.91529   0.00000  Uiso   1.00
C9     C     0.00952   0.69448   0.90653   0.00000  Uiso   1.00
C10    C     0.52403   0.09236   0.88949   0.00000  Uiso   1.00
C11    C     0.39617   0.05274   0.88858   0.00000  Uiso   1.00
C12    C     0.33617   0.01312   0.85980   0.00000  Uiso   1.00
C13    C     0.19574   0.94000   0.81892   0.00000  Uiso   1.00
C14    C     0.72885   0.13959   0.86896   0.00000  Uiso   1.00
C15    C     0.73234   0.05569   0.89489   0.00000  Uiso   1.00
C16    C     0.79251   0.98520   0.89325   0.00000  Uiso   1.00
C17    C     0.78473   0.91457   0.91947   0.00000  Uiso   1.00
C18    C     0.78179   0.27058   0.88329   0.00000  Uiso   1.00
C19    C     0.88352   0.38078   0.87190   0.00000  Uiso   1.00
C20    C     0.91736   0.49106   0.88837   0.00000  Uiso   1.00
C21    C     0.58964   0.09242   0.86261   0.00000  Uiso   1.00
C22    C     0.52983   0.05287   0.83383   0.00000  Uiso   1.00
C23    C     0.40191   0.01319   0.83287   0.00000  Uiso   1.00
H24    H     0.55696   0.13942   0.93937   0.00000  Uiso   1.00
H25    H     0.60807   0.98505   0.96880   0.00000  Uiso   1.00
H26    H     0.69905   0.38057   0.94745   0.00000  Uiso   1.00
H27    H     0.34542   0.05270   0.90938   0.00000  Uiso   1.00
H28    H     0.69371   0.81397   0.98957   0.00000  Uiso   1.00
H29    H     0.88554   0.64795   0.94456   0.00000  Uiso   1.00
H30    H     0.13983   0.95658   0.86428   0.00000  Uiso   1.00
H31    H     0.77994   0.13964   0.84803   0.00000  Uiso   1.00
H32    H     0.84329   0.98528   0.87244   0.00000  Uiso   1.00
H33    H     0.93428   0.38080   0.85110   0.00000  Uiso   1.00
H34    H     0.58064   0.05293   0.81303   0.00000  Uiso   1.00
H35    H     0.88463   0.81416   0.91137   0.00000  Uiso   1.00
H36    H     0.07645   0.64814   0.86636   0.00000  Uiso   1.00
H37    H     0.33075   0.95677   0.78608   0.00000  Uiso   1.00
O38    O     0.82686   0.71255   0.96818   0.00000  Uiso   1.00
O39    O     0.07850   0.80670   0.90913   0.00000  Uiso   1.00
O40    O     0.10015   0.89963   0.80380   0.00000  Uiso   1.00
N41    N     0.72993   0.83518   0.96781   0.00000  Uiso   1.00
N42    N     0.90929   0.61490   0.92573   0.00000  Uiso   1.00
N43    N     0.21212   0.96856   0.85067   0.00000  Uiso   1.00
N44    N     0.83266   0.83528   0.92573   0.00000  Uiso   1.00
N45    N     0.01202   0.61500   0.88365   0.00000  Uiso   1.00
N46    N     0.31485   0.96866   0.80860   0.00000  Uiso   1.00
C47    C     0.86054   0.46858   0.58511   0.00000  Uiso   1.00
C48    C     0.94439   0.61111   0.58843   0.00000  Uiso   1.00
C49    C     0.01493   0.67378   0.61466   0.00000  Uiso   1.00
C50    C     0.08549   0.80449   0.61307   0.00000  Uiso   1.00
C51    C     0.21565   0.01584   0.62232   0.00000  Uiso   1.00
C52    C     0.72949   0.44566   0.57684   0.00000  Uiso   1.00
C53    C     0.61935   0.36921   0.59332   0.00000  Uiso   1.00
C54    C     0.50901   0.36064   0.58196   0.00000  Uiso   1.00
C55    C     0.30552   0.31505   0.57320   0.00000  Uiso   1.00
C56    C     0.90764   0.43167   0.55615   0.00000  Uiso   1.00
C57    C     0.94726   0.34343   0.55524   0.00000  Uiso   1.00
C58    C     0.98688   0.32305   0.52646   0.00000  Uiso   1.00
C59    C     0.06000   0.25574   0.48559   0.00000  Uiso   1.00
C60    C     0.86041   0.58926   0.53563   0.00000  Uiso   1.00
C61    C     0.94431   0.67666   0.56155   0.00000  Uiso   1.00
C62    C     0.01480   0.80731   0.55991   0.00000  Uiso   1.00
C63    C     0.08543   0.87017   0.58614   0.00000  Uiso   1.00
C64    C     0.72942   0.51121   0.54996   0.00000  Uiso   1.00
C65    C     0.61922   0.50274   0.53857   0.00000  Uiso   1.00
C66    C     0.50894   0.42631   0.55503   0.00000  Uiso   1.00
C67    C     0.90758   0.49722   0.52927   0.00000  Uiso   1.00
C68    C     0.94713   0.47697   0.50049   0.00000  Uiso   1.00
C69    C     0.98681   0.38872   0.49954   0.00000  Uiso   1.00
H70    H     0.86058   0.41754   0.60604   0.00000  Uiso   1.00
H71    H     0.01495   0.62302   0.63546   0.00000  Uiso   1.00
H72    H     0.61943   0.31849   0.61412   0.00000  Uiso   1.00
H73    H     0.94730   0.29272   0.57605   0.00000  Uiso   1.00
H74    H     0.18603   0.87974   0.65624   0.00000  Uiso   1.00
H75    H     0.35205   0.23759   0.61123   0.00000  Uiso   1.00
H76    H     0.04342   0.18325   0.53094   0.00000  Uiso   1.00
H77    H     0.86036   0.64030   0.51470   0.00000  Uiso   1.00
H78    H     0.01472   0.85801   0.53911   0.00000  Uiso   1.00
H79    H     0.61920   0.55347   0.51777   0.00000  Uiso   1.00
H80    H     0.94707   0.52771   0.47970   0.00000  Uiso   1.00
H81    H     0.18584   0.07047   0.57803   0.00000  Uiso   1.00
H82    H     0.35186   0.42831   0.53302   0.00000  Uiso   1.00
H83    H     0.04323   0.37398   0.45274   0.00000  Uiso   1.00
O84    O     0.28745   0.11431   0.63485   0.00000  Uiso   1.00
O85    O     0.19330   0.27180   0.57579   0.00000  Uiso   1.00
O86    O     0.10037   0.20052   0.47047   0.00000  Uiso   1.00
N87    N     0.16482   0.89475   0.63448   0.00000  Uiso   1.00
N88    N     0.38510   0.29439   0.59240   0.00000  Uiso   1.00
N89    N     0.03144   0.24356   0.51734   0.00000  Uiso   1.00
N90    N     0.16472   0.99738   0.59240   0.00000  Uiso   1.00
N91    N     0.38500   0.39702   0.55032   0.00000  Uiso   1.00
N92    N     0.03134   0.34619   0.47526   0.00000  Uiso   1.00
C93    C     0.53142   0.39196   0.25178   0.00000  Uiso   1.00
C94    C     0.38889   0.33328   0.25510   0.00000  Uiso   1.00
C95    C     0.32622   0.34115   0.28133   0.00000  Uiso   1.00
C96    C     0.19551   0.28100   0.27973   0.00000  Uiso   1.00
C97    C     0.98416   0.19981   0.28898   0.00000  Uiso   1.00
C98    C     0.55434   0.28383   0.24350   0.00000  Uiso   1.00
C99    C     0.63079   0.25014   0.25999   0.00000  Uiso   1.00
C100   C     0.63936   0.14838   0.24863   0.00000  Uiso   1.00
C101   C     0.68495   0.99048   0.23986   0.00000  Uiso   1.00
C102   C     0.56833   0.47597   0.22282   0.00000  Uiso   1.00
C103   C     0.65657   0.60383   0.22191   0.00000  Uiso   1.00
C104   C     0.67695   0.66383   0.19313   0.00000  Uiso   1.00
C105   C     0.74426   0.80426   0.15225   0.00000  Uiso   1.00
C106   C     0.41074   0.27115   0.20229   0.00000  Uiso   1.00
C107   C     0.32334   0.26766   0.22822   0.00000  Uiso   1.00
C108   C     0.19269   0.20749   0.22658   0.00000  Uiso   1.00
C109   C     0.12983   0.21527   0.25281   0.00000  Uiso   1.00
C110   C     0.48879   0.21821   0.21663   0.00000  Uiso   1.00
C111   C     0.49726   0.11648   0.20524   0.00000  Uiso   1.00
C112   C     0.57369   0.08264   0.22170   0.00000  Uiso   1.00
C113   C     0.50278   0.41036   0.19594   0.00000  Uiso   1.00
C114   C     0.52303   0.47017   0.16716   0.00000  Uiso   1.00
C115   C     0.61128   0.59809   0.16620   0.00000  Uiso   1.00
H116   H     0.58246   0.44304   0.27270   0.00000  Uiso   1.00
H117   H     0.37698   0.39193   0.30213   0.00000  Uiso   1.00
H118   H     0.68151   0.30095   0.28078   0.00000  Uiso   1.00
H119   H     0.70728   0.65458   0.24271   0.00000  Uiso   1.00
H120   H     0.12026   0.30629   0.32290   0.00000  Uiso   1.00
H121   H     0.76241   0.11446   0.27789   0.00000  Uiso   1.00
H122   H     0.81675   0.86017   0.19761   0.00000  Uiso   1.00
H123   H     0.35970   0.22006   0.18136   0.00000  Uiso   1.00
H124   H     0.14199   0.15671   0.20578   0.00000  Uiso   1.00
H125   H     0.44653   0.06572   0.18444   0.00000  Uiso   1.00
H126   H     0.47229   0.41936   0.14636   0.00000  Uiso   1.00
H127   H     0.92953   0.11537   0.24470   0.00000  Uiso   1.00
H128   H     0.57169   0.92355   0.19969   0.00000  Uiso   1.00
H129   H     0.62602   0.66925   0.11941   0.00000  Uiso   1.00
O130   O     0.88569   0.17314   0.30151   0.00000  Uiso   1.00
O131   O     0.72820   0.92150   0.24246   0.00000  Uiso   1.00
O132   O     0.79948   0.89985   0.13713   0.00000  Uiso   1.00
N133   N     0.10525   0.27007   0.30115   0.00000  Uiso   1.00
N134   N     0.70561   0.09071   0.25907   0.00000  Uiso   1.00
N135   N     0.75644   0.78788   0.18401   0.00000  Uiso   1.00
N136   N     0.00262   0.16734   0.25907   0.00000  Uiso   1.00
N137   N     0.60298   0.98798   0.21699   0.00000  Uiso   1.00
N138   N     0.65381   0.68515   0.14193   0.00000  Uiso   1.00
C139   C     0.13946   0.60804   0.08156   0.00000  Uiso   1.00
C140   C     0.05561   0.66672   0.07824   0.00000  Uiso   1.00
C141   C     0.98507   0.65885   0.05200   0.00000  Uiso   1.00
C142   C     0.91451   0.71900   0.05360   0.00000  Uiso   1.00
C143   C     0.78435   0.80019   0.04435   0.00000  Uiso   1.00
C144   C     0.27051   0.71617   0.08983   0.00000  Uiso   1.00
C145   C     0.38065   0.74986   0.07335   0.00000  Uiso   1.00
C146   C     0.49099   0.85162   0.08471   0.00000  Uiso   1.00
C147   C     0.69448   0.00952   0.09347   0.00000  Uiso   1.00
C148   C     0.09236   0.52403   0.11051   0.00000  Uiso   1.00
C149   C     0.05274   0.39617   0.11142   0.00000  Uiso   1.00
C150   C     0.01312   0.33617   0.14020   0.00000  Uiso   1.00
C151   C     0.94000   0.19574   0.18108   0.00000  Uiso   1.00
C152   C     0.13959   0.72885   0.13104   0.00000  Uiso   1.00
C153   C     0.05569   0.73234   0.10511   0.00000  Uiso   1.00
C154   C     0.98520   0.79251   0.10675   0.00000  Uiso   1.00
C155   C     0.91457   0.78473   0.08053   0.00000  Uiso   1.00
C156   C     0.27058   0.78179   0.11671   0.00000  Uiso   1.00
C157   C     0.38078   0.88352   0.12810   0.00000  Uiso   1.00
C158   C     0.49106   0.91736   0.11163   0.00000  Uiso   1.00
C159   C     0.09242   0.58964   0.13739   0.00000  Uiso   1.00
C160   C     0.05287   0.52983   0.16617   0.00000  Uiso   1.00
C161   C     0.01319   0.40191   0.16713   0.00000  Uiso   1.00
H162   H     0.13942   0.55696   0.06063   0.00000  Uiso   1.00
H163   H     0.98505   0.60807   0.03120   0.00000  Uiso   1.00
H164   H     0.38057   0.69905   0.05255   0.00000  Uiso   1.00
H165   H     0.05270   0.34542   0.09062   0.00000  Uiso   1.00
H166   H     0.81397   0.69371   0.01043   0.00000  Uiso   1.00
H167   H     0.64795   0.88554   0.05544   0.00000  Uiso   1.00
H168   H     0.95658   0.13983   0.13572   0.00000  Uiso   1.00
H169   H     0.13964   0.77994   0.15197   0.00000  Uiso   1.00
H170   H     0.98528   0.84329   0.12756   0.00000  Uiso   1.00
H171   H     0.38080   0.93428   0.14890   0.00000  Uiso   1.00
H172   H     0.05293   0.58064   0.18697   0.00000  Uiso   1.00
H173   H     0.81416   0.88463   0.08863   0.00000  Uiso   1.00
H174   H     0.64814   0.07645   0.13364   0.00000  Uiso   1.00
H175   H     0.95677   0.33075   0.21392   0.00000  Uiso   1.00
O176   O     0.71255   0.82686   0.03182   0.00000  Uiso   1.00
O177   O     0.80670   0.07850   0.09087   0.00000  Uiso   1.00
O178   O     0.89963   0.10015   0.19620   0.00000  Uiso   1.00
N179   N     0.83518   0.72993   0.03219   0.00000  Uiso   1.00
N180   N     0.61490   0.90929   0.07427   0.00000  Uiso   1.00
N181   N     0.96856   0.21212   0.14933   0.00000  Uiso   1.00
N182   N     0.83528   0.83266   0.07427   0.00000  Uiso   1.00
N183   N     0.61500   0.01202   0.11635   0.00000  Uiso   1.00
N184   N     0.96866   0.31485   0.19140   0.00000  Uiso   1.00
C185   C     0.46858   0.86054   0.41489   0.00000  Uiso   1.00
C186   C     0.61111   0.94439   0.41157   0.00000  Uiso   1.00
C187   C     0.67378   0.01493   0.38534   0.00000  Uiso   1.00
C188   C     0.80449   0.08549   0.38693   0.00000  Uiso   1.00
C189   C     0.01584   0.21565   0.37768   0.00000  Uiso   1.00
C190   C     0.44566   0.72949   0.42316   0.00000  Uiso   1.00
C191   C     0.36921   0.61935   0.40668   0.00000  Uiso   1.00
C192   C     0.36064   0.50901   0.41804   0.00000  Uiso   1.00
C193   C     0.31505   0.30552   0.42680   0.00000  Uiso   1.00
C194   C     0.43167   0.90764   0.44385   0.00000  Uiso   1.00
C195   C     0.34343   0.94726   0.44476   0.00000  Uiso   1.00
C196   C     0.32305   0.98688   0.47354   0.00000  Uiso   1.00
C197   C     0.25574   0.06000   0.51441   0.00000  Uiso   1.00
C198   C     0.58926   0.86041   0.46437   0.00000  Uiso   1.00
C199   C     0.67666   0.94431   0.43845   0.00000  Uiso   1.00
C200   C     0.80731   0.01480   0.44009   0.00000  Uiso   1.00
C201   C     0.87017   0.08543   0.41386   0.00000  Uiso   1.00
C202   C     0.51121   0.72942   0.45004   0.00000  Uiso   1.00
C203   C     0.50274   0.61922   0.46143   0.00000  Uiso   1.00
C204   C     0.42631   0.50894   0.44497   0.00000  Uiso   1.00
C205   C     0.49722   0.90758   0.47073   0.00000  Uiso   1.00
C206   C     0.47697   0.94713   0.49951   0.00000  Uiso   1.00
C207   C     0.38872   0.98681   0.50046   0.00000  Uiso   1.00
H208   H     0.41754   0.86058   0.39396   0.00000  Uiso   1.00
H209   H     0.62302   0.01495   0.36454   0.00000  Uiso   1.00
H210   H     0.31849   0.61943   0.38588   0.00000  Uiso   1.00
H211   H     0.29272   0.94730   0.42395   0.00000  Uiso   1.00
H212   H     0.87974   0.18603   0.34376   0.00000  Uiso   1.00
H213   H     0.23759   0.35205   0.38877   0.00000  Uiso   1.00
H214   H     0.18325   0.04342   0.46906   0.00000  Uiso   1.00
H215   H     0.64030   0.86036   0.48530   0.00000  Uiso   1.00
H216   H     0.85801   0.01472   0.46089   0.00000  Uiso   1.00
H217   H     0.55347   0.61920   0.48223   0.00000  Uiso   1.00
H218   H     0.52771   0.94707   0.52030   0.00000  Uiso   1.00
H219   H     0.07047   0.18584   0.42197   0.00000  Uiso   1.00
H220   H     0.42831   0.35186   0.46698   0.00000  Uiso   1.00
H221   H     0.37398   0.04323   0.54726   0.00000  Uiso   1.00
O222   O     0.11431   0.28745   0.36515   0.00000  Uiso   1.00
O223   O     0.27180   0.19330   0.42421   0.00000  Uiso   1.00
O224   O     0.20052   0.10037   0.52953   0.00000  Uiso   1.00
N225   N     0.89475   0.16482   0.36552   0.00000  Uiso   1.00
N226   N     0.29439   0.38510   0.40760   0.00000  Uiso   1.00
N227   N     0.24356   0.03144   0.48266   0.00000  Uiso   1.00
N228   N     0.99738   0.16472   0.40760   0.00000  Uiso   1.00
N229   N     0.39702   0.38500   0.44968   0.00000  Uiso   1.00
N230   N     0.34619   0.03134   0.52474   0.00000  Uiso   1.00
C231   C     0.39196   0.53142   0.74822   0.00000  Uiso   1.00
C232   C     0.33328   0.38889   0.74490   0.00000  Uiso   1.00
C233   C     0.34115   0.32622   0.71867   0.00000  Uiso   1.00
C234   C     0.28100   0.19551   0.72027   0.00000  Uiso   1.00
C235   C     0.19981   0.98416   0.71102   0.00000  Uiso   1.00
C236   C     0.28383   0.55434   0.75650   0.00000  Uiso   1.00
C237   C     0.25014   0.63079   0.74001   0.00000  Uiso   1.00
C238   C     0.14838   0.63936   0.75137   0.00000  Uiso   1.00
C239   C     0.99048   0.68495   0.76014   0.00000  Uiso   1.00
C240   C     0.47597   0.56833   0.77718   0.00000  Uiso   1.00
C241   C     0.60383   0.65657   0.77809   0.00000  Uiso   1.00
C242   C     0.66383   0.67695   0.80687   0.00000  Uiso   1.00
C243   C     0.80426   0.74426   0.84775   0.00000  Uiso   1.00
C244   C     0.27115   0.41074   0.79771   0.00000  Uiso   1.00
C245   C     0.26766   0.32334   0.77178   0.00000  Uiso   1.00
C246   C     0.20749   0.19269   0.77342   0.00000  Uiso   1.00
C247   C     0.21527   0.12983   0.74719   0.00000  Uiso   1.00
C248   C     0.21821   0.48879   0.78337   0.00000  Uiso   1.00
C249   C     0.11648   0.49726   0.79476   0.00000  Uiso   1.00
C250   C     0.08264   0.57369   0.77830   0.00000  Uiso   1.00
C251   C     0.41036   0.50278   0.80406   0.00000  Uiso   1.00
C252   C     0.47017   0.52303   0.83284   0.00000  Uiso   1.00
C253   C     0.59809   0.61128   0.83380   0.00000  Uiso   1.00
H254   H     0.44304   0.58246   0.72730   0.00000  Uiso   1.00
H255   H     0.39193   0.37698   0.69787   0.00000  Uiso   1.00
H256   H     0.30095   0.68151   0.71922   0.00000  Uiso   1.00
H257   H     0.65458   0.70728   0.75729   0.00000  Uiso   1.00
H258   H     0.30629   0.12026   0.67710   0.00000  Uiso   1.00
H259   H     0.11446   0.76241   0.72211   0.00000  Uiso   1.00
H260   H     0.86017   0.81675   0.80239   0.00000  Uiso   1.00
H261   H     0.22006   0.35970   0.81864   0.00000  Uiso   1.00
H262   H     0.15671   0.14199   0.79422   0.00000  Uiso   1.00
H263   H     0.06572   0.44653   0.81556   0.00000  Uiso   1.00
H264   H     0.41936   0.47229   0.85364   0.00000  Uiso   1.00
H265   H     0.11537   0.92953   0.75530   0.00000  Uiso   1.00
H266   H     0.92355   0.57169   0.80031   0.00000  Uiso   1.00
H267   H     0.66925   0.62602   0.88059   0.00000  Uiso   1.00
O268   O     0.17314   0.88569   0.69849   0.00000  Uiso   1.00
O269   O     0.92150   0.72820   0.75754   0.00000  Uiso   1.00
O270   O     0.89985   0.79948   0.86287   0.00000  Uiso   1.00
N271   N     0.27007   0.10525   0.69885   0.00000  Uiso   1.00
N272   N     0.09071   0.70561   0.74093   0.00000  Uiso   1.00
N273   N     0.78788   0.75644   0.81599   0.00000  Uiso   1.00
N274   N     0.16734   0.00262   0.74093   0.00000  Uiso   1.00
N275   N     0.98798   0.60298   0.78301   0.00000  Uiso   1.00
N276   N     0.68515   0.65381   0.85807   0.00000  Uiso   1.00
