data_job_07070
_audit_creation_date              2018-12-19
_audit_creation_method            'Materials Studio'
_symmetry_space_group_name_H-M    'P1'
_symmetry_Int_Tables_number       1
_symmetry_cell_setting            triclinic
loop_
_symmetry_equiv_pos_as_xyz
  x,y,z
_cell_length_a                    21.1478
_cell_length_b                    22.4973
_cell_length_c                    22.7633
_cell_angle_alpha                 92.1130
_cell_angle_beta                  109.1408
_cell_angle_gamma                 67.1168
loop_
_atom_site_label
_atom_site_type_symbol
_atom_site_fract_x
_atom_site_fract_y
_atom_site_fract_z
_atom_site_U_iso_or_equiv
_atom_site_adp_type
_atom_site_occupancy
C1     C     0.71921   0.52080   0.83794   0.00000  Uiso   1.00
C2     C     0.71123   0.46461   0.80107   0.00000  Uiso   1.00
C3     C     0.74829   0.43522   0.76060   0.00000  Uiso   1.00
C4     C     0.73335   0.38458   0.73133   0.00000  Uiso   1.00
C5     C     0.72856   0.30047   0.67242   0.00000  Uiso   1.00
C6     C     0.64269   0.57441   0.82001   0.00000  Uiso   1.00
C7     C     0.62214   0.63735   0.79546   0.00000  Uiso   1.00
C8     C     0.54951   0.67914   0.78214   0.00000  Uiso   1.00
C9     C     0.43833   0.76552   0.75266   0.00000  Uiso   1.00
C10    C     0.74037   0.49756   0.90643   0.00000  Uiso   1.00
C11    C     0.80193   0.49588   0.95456   0.00000  Uiso   1.00
C12    C     0.81152   0.47298   0.01400   0.00000  Uiso   1.00
C13    C     0.85199   0.44002   0.11871   0.00000  Uiso   1.00
C14    C     0.62677   0.48313   0.85793   0.00000  Uiso   1.00
C15    C     0.66101   0.44415   0.81194   0.00000  Uiso   1.00
C16    C     0.64601   0.39354   0.78272   0.00000  Uiso   1.00
C17    C     0.68305   0.36407   0.74222   0.00000  Uiso   1.00
C18    C     0.59248   0.55396   0.83087   0.00000  Uiso   1.00
C19    C     0.51987   0.59567   0.81758   0.00000  Uiso   1.00
C20    C     0.49920   0.65865   0.79302   0.00000  Uiso   1.00
C21    C     0.69016   0.47709   0.91729   0.00000  Uiso   1.00
C22    C     0.69965   0.45420   0.97668   0.00000  Uiso   1.00
C23    C     0.76122   0.45248   0.02488   0.00000  Uiso   1.00
H24    H     0.75830   0.53673   0.82948   0.00000  Uiso   1.00
H25    H     0.78714   0.45107   0.75220   0.00000  Uiso   1.00
H26    H     0.66101   0.65317   0.78706   0.00000  Uiso   1.00
H27    H     0.84077   0.51172   0.94613   0.00000  Uiso   1.00
H28    H     0.79695   0.34709   0.67130   0.00000  Uiso   1.00
H29    H     0.53100   0.77323   0.74482   0.00000  Uiso   1.00
H30    H     0.91006   0.47496   0.08026   0.00000  Uiso   1.00
H31    H     0.58768   0.46720   0.86639   0.00000  Uiso   1.00
H32    H     0.60716   0.37771   0.79114   0.00000  Uiso   1.00
H33    H     0.48103   0.57982   0.82600   0.00000  Uiso   1.00
H34    H     0.66079   0.43837   0.98507   0.00000  Uiso   1.00
H35    H     0.65086   0.28756   0.70290   0.00000  Uiso   1.00
H36    H     0.38492   0.71370   0.77642   0.00000  Uiso   1.00
H37    H     0.76398   0.41543   0.11186   0.00000  Uiso   1.00
O38    O     0.73978   0.25973   0.63691   0.00000  Uiso   1.00
O39    O     0.39088   0.81882   0.73339   0.00000  Uiso   1.00
O40    O     0.88819   0.42749   0.17346   0.00000  Uiso   1.00
N41    N     0.75990   0.34535   0.68907   0.00000  Uiso   1.00
N42    N     0.51126   0.74377   0.75780   0.00000  Uiso   1.00
N43    N     0.86564   0.46492   0.07141   0.00000  Uiso   1.00
N44    N     0.68130   0.31331   0.70608   0.00000  Uiso   1.00
N45    N     0.43265   0.71173   0.77481   0.00000  Uiso   1.00
N46    N     0.78703   0.43289   0.08841   0.00000  Uiso   1.00
C47    C     0.16482   0.03561   0.81708   0.00000  Uiso   1.00
C48    C     0.11188   0.10431   0.78794   0.00000  Uiso   1.00
C49    C     0.04790   0.12072   0.73699   0.00000  Uiso   1.00
C50    C     0.00698   0.18631   0.71740   0.00000  Uiso   1.00
C51    C     0.92140   0.28578   0.66752   0.00000  Uiso   1.00
C52    C     0.23900   0.02850   0.81566   0.00000  Uiso   1.00
C53    C     0.28191   0.98116   0.78804   0.00000  Uiso   1.00
C54    C     0.34801   0.98293   0.79180   0.00000  Uiso   1.00
C55    C     0.45981   0.96467   0.78499   0.00000  Uiso   1.00
C56    C     0.17176   0.03385   0.88588   0.00000  Uiso   1.00
C57    C     0.15815   0.99099   0.91731   0.00000  Uiso   1.00
C58    C     0.16766   0.99725   0.98020   0.00000  Uiso   1.00
C59    C     0.17506   0.98728   0.08243   0.00000  Uiso   1.00
C60    C     0.20593   0.12292   0.87288   0.00000  Uiso   1.00
C61    C     0.13421   0.15174   0.81824   0.00000  Uiso   1.00
C62    C     0.09338   0.21732   0.79873   0.00000  Uiso   1.00
C63    C     0.02935   0.23382   0.74777   0.00000  Uiso   1.00
C64    C     0.26133   0.07592   0.84597   0.00000  Uiso   1.00
C65    C     0.32739   0.07776   0.84977   0.00000  Uiso   1.00
C66    C     0.37038   0.03044   0.82216   0.00000  Uiso   1.00
C67    C     0.19409   0.08127   0.91619   0.00000  Uiso   1.00
C68    C     0.20363   0.08759   0.97904   0.00000  Uiso   1.00
C69    C     0.19003   0.04476   0.01056   0.00000  Uiso   1.00
H70    H     0.14744   0.99868   0.79349   0.00000  Uiso   1.00
H71    H     0.03064   0.08400   0.71355   0.00000  Uiso   1.00
H72    H     0.26461   0.94446   0.76459   0.00000  Uiso   1.00
H73    H     0.14087   0.95429   0.89384   0.00000  Uiso   1.00
H74    H     0.91100   0.19951   0.63828   0.00000  Uiso   1.00
H75    H     0.40436   0.90527   0.74592   0.00000  Uiso   1.00
H76    H     0.14343   0.92599   0.01847   0.00000  Uiso   1.00
H77    H     0.22332   0.15984   0.89648   0.00000  Uiso   1.00
H78    H     0.11067   0.25401   0.82219   0.00000  Uiso   1.00
H79    H     0.34465   0.11447   0.87323   0.00000  Uiso   1.00
H80    H     0.22091   0.12430   0.00248   0.00000  Uiso   1.00
H81    H     0.97596   0.33749   0.72645   0.00000  Uiso   1.00
H82    H     0.46933   0.04325   0.83410   0.00000  Uiso   1.00
H83    H     0.20840   0.06398   0.10665   0.00000  Uiso   1.00
O84    O     0.86803   0.32754   0.63162   0.00000  Uiso   1.00
O85    O     0.51530   0.94150   0.77286   0.00000  Uiso   1.00
O86    O     0.17296   0.96869   0.13044   0.00000  Uiso   1.00
N87    N     0.94174   0.21906   0.66923   0.00000  Uiso   1.00
N88    N     0.40300   0.94397   0.76986   0.00000  Uiso   1.00
N89    N     0.15907   0.96334   0.02468   0.00000  Uiso   1.00
N90    N     0.97670   0.29331   0.71668   0.00000  Uiso   1.00
N91    N     0.43796   0.01822   0.81731   0.00000  Uiso   1.00
N92    N     0.19403   0.03758   0.07213   0.00000  Uiso   1.00
C93    C     0.82675   0.95032   0.82113   0.00000  Uiso   1.00
C94    C     0.84650   0.97457   0.77074   0.00000  Uiso   1.00
C95    C     0.82651   0.03908   0.75147   0.00000  Uiso   1.00
C96    C     0.84999   0.05122   0.70471   0.00000  Uiso   1.00
C97    C     0.87424   0.09658   0.63047   0.00000  Uiso   1.00
C98    C     0.78777   0.90689   0.79015   0.00000  Uiso   1.00
C99    C     0.71842   0.91450   0.78720   0.00000  Uiso   1.00
C100   C     0.69247   0.86967   0.75678   0.00000  Uiso   1.00
C101   C     0.62557   0.80992   0.71272   0.00000  Uiso   1.00
C102   C     0.89889   0.90565   0.86908   0.00000  Uiso   1.00
C103   C     0.92296   0.91221   0.93251   0.00000  Uiso   1.00
C104   C     0.99055   0.86633   0.96855   0.00000  Uiso   1.00
C105   C     0.09618   0.80466   0.04704   0.00000  Uiso   1.00
C106   C     0.90398   0.85716   0.77236   0.00000  Uiso   1.00
C107   C     0.88845   0.92397   0.74425   0.00000  Uiso   1.00
C108   C     0.91196   0.93602   0.69751   0.00000  Uiso   1.00
C109   C     0.89202   0.00054   0.67817   0.00000  Uiso   1.00
C110   C     0.82972   0.85629   0.76366   0.00000  Uiso   1.00
C111   C     0.80387   0.81144   0.73324   0.00000  Uiso   1.00
C112   C     0.73449   0.81898   0.73025   0.00000  Uiso   1.00
C113   C     0.94084   0.85506   0.84259   0.00000  Uiso   1.00
C114   C     0.00841   0.80915   0.87855   0.00000  Uiso   1.00
C115   C     0.03258   0.81564   0.94201   0.00000  Uiso   1.00
H116   H     0.79409   0.98971   0.84175   0.00000  Uiso   1.00
H117   H     0.79404   0.07822   0.77197   0.00000  Uiso   1.00
H118   H     0.68597   0.95366   0.80771   0.00000  Uiso   1.00
H119   H     0.89048   0.95137   0.95299   0.00000  Uiso   1.00
H120   H     0.81247   0.15405   0.68291   0.00000  Uiso   1.00
H121   H     0.58461   0.89138   0.75828   0.00000  Uiso   1.00
H122   H     0.01585   0.88656   0.06463   0.00000  Uiso   1.00
H123   H     0.93664   0.81777   0.75174   0.00000  Uiso   1.00
H124   H     0.94442   0.89685   0.67702   0.00000  Uiso   1.00
H125   H     0.83635   0.77228   0.71275   0.00000  Uiso   1.00
H126   H     0.04086   0.77000   0.85803   0.00000  Uiso   1.00
H127   H     0.93452   0.00684   0.60584   0.00000  Uiso   1.00
H128   H     0.70666   0.74417   0.68121   0.00000  Uiso   1.00
H129   H     0.13791   0.73935   0.98756   0.00000  Uiso   1.00
O130   O     0.87602   0.13557   0.59683   0.00000  Uiso   1.00
O131   O     0.57708   0.79095   0.69573   0.00000  Uiso   1.00
O132   O     0.14287   0.78463   0.09765   0.00000  Uiso   1.00
N133   N     0.84014   0.10855   0.67504   0.00000  Uiso   1.00
N134   N     0.62710   0.86298   0.74549   0.00000  Uiso   1.00
N135   N     0.03027   0.85846   0.03191   0.00000  Uiso   1.00
N136   N     0.90582   0.02934   0.63357   0.00000  Uiso   1.00
N137   N     0.69277   0.78376   0.70402   0.00000  Uiso   1.00
N138   N     0.09594   0.77925   0.99044   0.00000  Uiso   1.00
C139   C     0.77466   0.53377   0.26913   0.00000  Uiso   1.00
C140   C     0.76870   0.58663   0.22506   0.00000  Uiso   1.00
C141   C     0.82473   0.58764   0.20668   0.00000  Uiso   1.00
C142   C     0.80827   0.64028   0.16606   0.00000  Uiso   1.00
C143   C     0.80965   0.71477   0.10086   0.00000  Uiso   1.00
C144   C     0.71611   0.50957   0.23321   0.00000  Uiso   1.00
C145   C     0.72792   0.44579   0.22171   0.00000  Uiso   1.00
C146   C     0.66718   0.43357   0.18796   0.00000  Uiso   1.00
C147   C     0.58691   0.38842   0.13546   0.00000  Uiso   1.00
C148   C     0.75086   0.56792   0.32208   0.00000  Uiso   1.00
C149   C     0.79188   0.55320   0.38530   0.00000  Uiso   1.00
C150   C     0.76039   0.59009   0.42637   0.00000  Uiso   1.00
C151   C     0.73407   0.63554   0.51185   0.00000  Uiso   1.00
C152   C     0.64580   0.62545   0.22967   0.00000  Uiso   1.00
C153   C     0.69871   0.63642   0.20362   0.00000  Uiso   1.00
C154   C     0.68216   0.68908   0.16302   0.00000  Uiso   1.00
C155   C     0.73815   0.69017   0.14459   0.00000  Uiso   1.00
C156   C     0.64612   0.55937   0.21178   0.00000  Uiso   1.00
C157   C     0.58535   0.54723   0.17804   0.00000  Uiso   1.00
C158   C     0.59706   0.48345   0.16649   0.00000  Uiso   1.00
C159   C     0.68087   0.61772   0.30065   0.00000  Uiso   1.00
C160   C     0.64931   0.65464   0.34163   0.00000  Uiso   1.00
C161   C     0.69027   0.63998   0.40490   0.00000  Uiso   1.00
H162   H     0.82915   0.49499   0.28582   0.00000  Uiso   1.00
H163   H     0.87889   0.54909   0.22328   0.00000  Uiso   1.00
H164   H     0.78209   0.40727   0.23831   0.00000  Uiso   1.00
H165   H     0.84604   0.51466   0.40187   0.00000  Uiso   1.00
H166   H     0.90315   0.63102   0.14447   0.00000  Uiso   1.00
H167   H     0.69905   0.33197   0.17617   0.00000  Uiso   1.00
H168   H     0.83389   0.55843   0.52108   0.00000  Uiso   1.00
H169   H     0.59130   0.66422   0.21298   0.00000  Uiso   1.00
H170   H     0.62799   0.72761   0.14644   0.00000  Uiso   1.00
H171   H     0.53119   0.58578   0.16147   0.00000  Uiso   1.00
H172   H     0.59514   0.69317   0.32503   0.00000  Uiso   1.00
H173   H     0.69951   0.77591   0.08210   0.00000  Uiso   1.00
H174   H     0.49541   0.47685   0.11381   0.00000  Uiso   1.00
H175   H     0.63025   0.70332   0.45871   0.00000  Uiso   1.00
O176   O     0.82975   0.74210   0.07081   0.00000  Uiso   1.00
O177   O     0.56198   0.34975   0.11242   0.00000  Uiso   1.00
O178   O     0.73889   0.64686   0.56492   0.00000  Uiso   1.00
N179   N     0.85019   0.65643   0.13893   0.00000  Uiso   1.00
N180   N     0.65938   0.37683   0.16856   0.00000  Uiso   1.00
N181   N     0.78543   0.58854   0.49102   0.00000  Uiso   1.00
N182   N     0.74062   0.73439   0.10537   0.00000  Uiso   1.00
N183   N     0.54980   0.45480   0.13501   0.00000  Uiso   1.00
N184   N     0.67586   0.66650   0.45746   0.00000  Uiso   1.00
C185   C     0.38393   0.43653   0.28143   0.00000  Uiso   1.00
C186   C     0.30162   0.45575   0.25880   0.00000  Uiso   1.00
C187   C     0.24907   0.51341   0.22386   0.00000  Uiso   1.00
C188   C     0.17665   0.52181   0.20778   0.00000  Uiso   1.00
C189   C     0.05175   0.55887   0.16983   0.00000  Uiso   1.00
C190   C     0.41585   0.37194   0.25624   0.00000  Uiso   1.00
C191   C     0.45934   0.35914   0.21917   0.00000  Uiso   1.00
C192   C     0.48309   0.29697   0.20095   0.00000  Uiso   1.00
C193   C     0.53556   0.20391   0.15909   0.00000  Uiso   1.00
C194   C     0.41024   0.42184   0.35224   0.00000  Uiso   1.00
C195   C     0.44904   0.45099   0.39589   0.00000  Uiso   1.00
C196   C     0.46808   0.43083   0.45849   0.00000  Uiso   1.00
C197   C     0.51186   0.41525   0.56567   0.00000  Uiso   1.00
C198   C     0.34878   0.34889   0.31499   0.00000  Uiso   1.00
C199   C     0.28253   0.40814   0.27703   0.00000  Uiso   1.00
C200   C     0.21017   0.41645   0.26099   0.00000  Uiso   1.00
C201   C     0.15752   0.47412   0.22604   0.00000  Uiso   1.00
C202   C     0.39676   0.32433   0.27447   0.00000  Uiso   1.00
C203   C     0.42045   0.26217   0.25631   0.00000  Uiso   1.00
C204   C     0.46396   0.24928   0.21921   0.00000  Uiso   1.00
C205   C     0.39115   0.37424   0.37047   0.00000  Uiso   1.00
C206   C     0.41014   0.35402   0.43302   0.00000  Uiso   1.00
C207   C     0.44895   0.38314   0.47675   0.00000  Uiso   1.00
H208   H     0.39880   0.47359   0.26723   0.00000  Uiso   1.00
H209   H     0.26387   0.55024   0.20976   0.00000  Uiso   1.00
H210   H     0.47411   0.39598   0.20508   0.00000  Uiso   1.00
H211   H     0.46381   0.48782   0.38176   0.00000  Uiso   1.00
H212   H     0.10585   0.61422   0.15405   0.00000  Uiso   1.00
H213   H     0.54918   0.28896   0.14420   0.00000  Uiso   1.00
H214   H     0.52745   0.48262   0.51678   0.00000  Uiso   1.00
H215   H     0.33392   0.31182   0.32919   0.00000  Uiso   1.00
H216   H     0.19542   0.37960   0.27511   0.00000  Uiso   1.00
H217   H     0.40566   0.22534   0.27043   0.00000  Uiso   1.00
H218   H     0.39536   0.31718   0.44711   0.00000  Uiso   1.00
H219   H     0.05029   0.47572   0.20709   0.00000  Uiso   1.00
H220   H     0.49363   0.15045   0.19724   0.00000  Uiso   1.00
H221   H     0.47189   0.34412   0.56982   0.00000  Uiso   1.00
O222   O     0.98813   0.59247   0.14386   0.00000  Uiso   1.00
O223   O     0.56978   0.16573   0.13095   0.00000  Uiso   1.00
O224   O     0.54127   0.41981   0.61976   0.00000  Uiso   1.00
N225   N     0.11178   0.57233   0.17397   0.00000  Uiso   1.00
N226   N     0.52626   0.26823   0.16475   0.00000  Uiso   1.00
N227   N     0.50596   0.44927   0.51308   0.00000  Uiso   1.00
N228   N     0.08188   0.49780   0.20251   0.00000  Uiso   1.00
N229   N     0.49637   0.19370   0.19329   0.00000  Uiso   1.00
N230   N     0.47607   0.37475   0.54162   0.00000  Uiso   1.00
C231   C     0.87228   0.92085   0.28316   0.00000  Uiso   1.00
C232   C     0.92298   0.87712   0.25036   0.00000  Uiso   1.00
C233   C     0.90592   0.83734   0.20526   0.00000  Uiso   1.00
C234   C     0.95978   0.80110   0.18092   0.00000  Uiso   1.00
C235   C     0.02808   0.73269   0.12691   0.00000  Uiso   1.00
C236   C     0.86735   0.98908   0.27146   0.00000  Uiso   1.00
C237   C     0.80352   0.04343   0.24410   0.00000  Uiso   1.00
C238   C     0.81056   0.10143   0.23753   0.00000  Uiso   1.00
C239   C     0.79250   0.20685   0.21631   0.00000  Uiso   1.00
C240   C     0.91285   0.90074   0.35301   0.00000  Uiso   1.00
C241   C     0.88727   0.88083   0.39423   0.00000  Uiso   1.00
C242   C     0.93262   0.86447   0.45632   0.00000  Uiso   1.00
C243   C     0.98520   0.83273   0.56172   0.00000  Uiso   1.00
C244   C     0.99828   0.92724   0.32015   0.00000  Uiso   1.00
C245   C     0.99142   0.88060   0.27045   0.00000  Uiso   1.00
C246   C     0.04532   0.84441   0.24618   0.00000  Uiso   1.00
C247   C     0.02835   0.80457   0.20105   0.00000  Uiso   1.00
C248   C     0.93579   0.99255   0.29154   0.00000  Uiso   1.00
C249   C     0.94293   0.05049   0.28502   0.00000  Uiso   1.00
C250   C     0.87913   0.10491   0.25765   0.00000  Uiso   1.00
C251   C     0.98129   0.90421   0.37310   0.00000  Uiso   1.00
C252   C     0.02668   0.88789   0.43514   0.00000  Uiso   1.00
C253   C     0.00118   0.86795   0.47644   0.00000  Uiso   1.00
H254   H     0.81900   0.91816   0.26753   0.00000  Uiso   1.00
H255   H     0.85295   0.83467   0.18972   0.00000  Uiso   1.00
H256   H     0.75057   0.04073   0.22857   0.00000  Uiso   1.00
H257   H     0.83431   0.87815   0.37867   0.00000  Uiso   1.00
H258   H     0.92076   0.74366   0.11231   0.00000  Uiso   1.00
H259   H     0.70488   0.17814   0.19423   0.00000  Uiso   1.00
H260   H     0.88147   0.83532   0.51075   0.00000  Uiso   1.00
H261   H     0.05157   0.92995   0.33578   0.00000  Uiso   1.00
H262   H     0.09828   0.84710   0.26173   0.00000  Uiso   1.00
H263   H     0.99590   0.05316   0.30057   0.00000  Uiso   1.00
H264   H     0.07964   0.89058   0.45067   0.00000  Uiso   1.00
H265   H     0.11988   0.75375   0.17075   0.00000  Uiso   1.00
H266   H     0.90400   0.18824   0.25267   0.00000  Uiso   1.00
H267   H     0.08059   0.84541   0.56918   0.00000  Uiso   1.00
O268   O     0.04685   0.69401   0.09156   0.00000  Uiso   1.00
O269   O     0.76362   0.26404   0.19905   0.00000  Uiso   1.00
O270   O     0.99530   0.81426   0.61431   0.00000  Uiso   1.00
N271   N     0.96122   0.75739   0.13623   0.00000  Uiso   1.00
N272   N     0.75939   0.16361   0.21282   0.00000  Uiso   1.00
N273   N     0.92447   0.84311   0.50873   0.00000  Uiso   1.00
N274   N     0.06836   0.76282   0.16768   0.00000  Uiso   1.00
N275   N     0.86653   0.16904   0.24426   0.00000  Uiso   1.00
N276   N     0.03161   0.84854   0.54018   0.00000  Uiso   1.00
C277   C     0.28866   0.76421   0.97295   0.00000  Uiso   1.00
C278   C     0.32194   0.80688   0.01425   0.00000  Uiso   1.00
C279   C     0.30679   0.83180   0.06706   0.00000  Uiso   1.00
C280   C     0.34290   0.86977   0.09844   0.00000  Uiso   1.00
C281   C     0.38708   0.93408   0.16573   0.00000  Uiso   1.00
C282   C     0.35276   0.70258   0.97150   0.00000  Uiso   1.00
C283   C     0.36352   0.63981   0.98837   0.00000  Uiso   1.00
C284   C     0.42557   0.58998   0.98375   0.00000  Uiso   1.00
C285   C     0.51758   0.49238   0.98463   0.00000  Uiso   1.00
C286   C     0.25370   0.79899   0.90694   0.00000  Uiso   1.00
C287   C     0.18117   0.81728   0.86952   0.00000  Uiso   1.00
C288   C     0.15983   0.84860   0.81054   0.00000  Uiso   1.00
C289   C     0.09803   0.90069   0.71119   0.00000  Uiso   1.00
C290   C     0.37975   0.78731   0.93475   0.00000  Uiso   1.00
C291   C     0.37142   0.81942   0.99350   0.00000  Uiso   1.00
C292   C     0.40756   0.85737   0.02480   0.00000  Uiso   1.00
C293   C     0.39246   0.88234   0.07765   0.00000  Uiso   1.00
C294   C     0.40224   0.71513   0.95075   0.00000  Uiso   1.00
C295   C     0.46429   0.66538   0.94610   0.00000  Uiso   1.00
C296   C     0.47514   0.60255   0.96296   0.00000  Uiso   1.00
C297   C     0.30318   0.81154   0.88619   0.00000  Uiso   1.00
C298   C     0.28195   0.84284   0.82726   0.00000  Uiso   1.00
C299   C     0.20940   0.86118   0.78976   0.00000  Uiso   1.00
H300   H     0.25015   0.75443   0.98911   0.00000  Uiso   1.00
H301   H     0.26850   0.82207   0.08311   0.00000  Uiso   1.00
H302   H     0.32522   0.63012   0.00442   0.00000  Uiso   1.00
H303   H     0.14290   0.80755   0.88559   0.00000  Uiso   1.00
H304   H     0.31069   0.90258   0.17819   0.00000  Uiso   1.00
H305   H     0.43027   0.49783   0.01224   0.00000  Uiso   1.00
H306   H     0.04581   0.87199   0.76168   0.00000  Uiso   1.00
H307   H     0.41827   0.79708   0.91860   0.00000  Uiso   1.00
H308   H     0.44585   0.86707   0.00873   0.00000  Uiso   1.00
H309   H     0.50256   0.67511   0.93004   0.00000  Uiso   1.00
H310   H     0.32025   0.85255   0.81121   0.00000  Uiso   1.00
H311   H     0.45463   0.93910   0.11782   0.00000  Uiso   1.00
H312   H     0.57421   0.53434   0.95187   0.00000  Uiso   1.00
H313   H     0.18976   0.90851   0.70131   0.00000  Uiso   1.00
O314   O     0.39778   0.96609   0.20858   0.00000  Uiso   1.00
O315   O     0.55466   0.43507   0.99085   0.00000  Uiso   1.00
O316   O     0.05027   0.92597   0.66212   0.00000  Uiso   1.00
N317   N     0.34077   0.90158   0.15161   0.00000  Uiso   1.00
N318   N     0.45257   0.52316   0.99646   0.00000  Uiso   1.00
N319   N     0.09315   0.87296   0.76220   0.00000  Uiso   1.00
N320   N     0.41822   0.92123   0.11912   0.00000  Uiso   1.00
N321   N     0.53003   0.54281   0.96398   0.00000  Uiso   1.00
N322   N     0.17060   0.89261   0.72972   0.00000  Uiso   1.00
C323   C     0.85755   0.23794   0.00981   0.00000  Uiso   1.00
C324   C     0.91263   0.22675   0.07573   0.00000  Uiso   1.00
C325   C     0.94431   0.26902   0.10346   0.00000  Uiso   1.00
C326   C     0.99341   0.24992   0.16415   0.00000  Uiso   1.00
C327   C     0.07636   0.24158   0.26169   0.00000  Uiso   1.00
C328   C     0.79079   0.23249   0.01711   0.00000  Uiso   1.00
C329   C     0.72004   0.27958   0.99553   0.00000  Uiso   1.00
C330   C     0.66658   0.26530   0.00687   0.00000  Uiso   1.00
C331   C     0.56037   0.26585   0.01334   0.00000  Uiso   1.00
C332   C     0.89037   0.17981   0.97668   0.00000  Uiso   1.00
C333   C     0.90332   0.18262   0.92110   0.00000  Uiso   1.00
C334   C     0.93368   0.12399   0.89839   0.00000  Uiso   1.00
C335   C     0.98207   0.04276   0.84209   0.00000  Uiso   1.00
C336   C     0.88841   0.12884   0.06829   0.00000  Uiso   1.00
C337   C     0.92939   0.16749   0.10750   0.00000  Uiso   1.00
C338   C     0.97846   0.14832   0.16816   0.00000  Uiso   1.00
C339   C     0.01021   0.19056   0.19597   0.00000  Uiso   1.00
C340   C     0.80755   0.17323   0.04887   0.00000  Uiso   1.00
C341   C     0.75418   0.15888   0.06023   0.00000  Uiso   1.00
C342   C     0.68337   0.20594   0.03869   0.00000  Uiso   1.00
C343   C     0.90713   0.12055   0.00844   0.00000  Uiso   1.00
C344   C     0.93747   0.06191   0.98581   0.00000  Uiso   1.00
C345   C     0.95047   0.06463   0.93021   0.00000  Uiso   1.00
H346   H     0.84449   0.28407   0.98508   0.00000  Uiso   1.00
H347   H     0.93132   0.31488   0.07887   0.00000  Uiso   1.00
H348   H     0.70709   0.32543   0.97095   0.00000  Uiso   1.00
H349   H     0.89034   0.22848   0.89653   0.00000  Uiso   1.00
H350   H     0.03496   0.32292   0.19686   0.00000  Uiso   1.00
H351   H     0.56214   0.34516   0.96929   0.00000  Uiso   1.00
H352   H     0.94856   0.14072   0.81237   0.00000  Uiso   1.00
H353   H     0.90146   0.08270   0.09302   0.00000  Uiso   1.00
H354   H     0.99142   0.10246   0.19273   0.00000  Uiso   1.00
H355   H     0.76718   0.11301   0.08481   0.00000  Uiso   1.00
H356   H     0.95043   0.01607   0.01040   0.00000  Uiso   1.00
H357   H     0.08373   0.15051   0.28928   0.00000  Uiso   1.00
H358   H     0.61091   0.17275   0.06171   0.00000  Uiso   1.00
H359   H     0.99733   0.96832   0.90479   0.00000  Uiso   1.00
O360   O     0.11747   0.25335   0.30672   0.00000  Uiso   1.00
O361   O     0.49715   0.28253   0.00815   0.00000  Uiso   1.00
O362   O     0.00413   0.01432   0.80227   0.00000  Uiso   1.00
N363   N     0.03410   0.27962   0.20492   0.00000  Uiso   1.00
N364   N     0.59205   0.30042   0.99217   0.00000  Uiso   1.00
N365   N     0.95330   0.10929   0.84545   0.00000  Uiso   1.00
N366   N     0.06035   0.18685   0.25465   0.00000  Uiso   1.00
N367   N     0.61829   0.20765   0.04190   0.00000  Uiso   1.00
N368   N     0.97955   0.01652   0.89518   0.00000  Uiso   1.00
C369   C     0.23885   0.24061   0.05797   0.00000  Uiso   1.00
C370   C     0.24734   0.21656   0.12300   0.00000  Uiso   1.00
C371   C     0.28893   0.15372   0.15185   0.00000  Uiso   1.00
C372   C     0.28964   0.14146   0.21144   0.00000  Uiso   1.00
C373   C     0.30886   0.09668   0.30792   0.00000  Uiso   1.00
C374   C     0.26232   0.29736   0.06667   0.00000  Uiso   1.00
C375   C     0.31649   0.30247   0.04815   0.00000  Uiso   1.00
C376   C     0.32980   0.35824   0.06031   0.00000  Uiso   1.00
C377   C     0.37224   0.43893   0.06929   0.00000  Uiso   1.00
C378   C     0.15707   0.26957   0.02162   0.00000  Uiso   1.00
C379   C     0.12274   0.25132   0.96521   0.00000  Uiso   1.00
C380   C     0.04743   0.28370   0.93944   0.00000  Uiso   1.00
C381   C     0.92645   0.32125   0.87848   0.00000  Uiso   1.00
C382   C     0.16615   0.33058   0.11251   0.00000  Uiso   1.00
C383   C     0.20786   0.26543   0.15262   0.00000  Uiso   1.00
C384   C     0.20849   0.25326   0.21219   0.00000  Uiso   1.00
C385   C     0.25007   0.19041   0.24112   0.00000  Uiso   1.00
C386   C     0.22283   0.34623   0.09629   0.00000  Uiso   1.00
C387   C     0.23606   0.40200   0.10848   0.00000  Uiso   1.00
C388   C     0.29024   0.40719   0.08999   0.00000  Uiso   1.00
C389   C     0.11758   0.31844   0.05124   0.00000  Uiso   1.00
C390   C     0.04231   0.35086   0.02555   0.00000  Uiso   1.00
C391   C     0.00787   0.33266   0.96912   0.00000  Uiso   1.00
H392   H     0.26959   0.20257   0.03491   0.00000  Uiso   1.00
H393   H     0.31949   0.11592   0.12891   0.00000  Uiso   1.00
H394   H     0.34704   0.26465   0.02522   0.00000  Uiso   1.00
H395   H     0.15332   0.21351   0.94230   0.00000  Uiso   1.00
H396   H     0.35741   0.04141   0.24620   0.00000  Uiso   1.00
H397   H     0.41548   0.35502   0.02754   0.00000  Uiso   1.00
H398   H     0.00699   0.24718   0.85269   0.00000  Uiso   1.00
H399   H     0.13540   0.36862   0.13557   0.00000  Uiso   1.00
H400   H     0.17793   0.29108   0.23510   0.00000  Uiso   1.00
H401   H     0.20548   0.43981   0.13140   0.00000  Uiso   1.00
H402   H     0.01177   0.38867   0.04849   0.00000  Uiso   1.00
H403   H     0.24252   0.18357   0.33239   0.00000  Uiso   1.00
H404   H     0.30059   0.49719   0.11372   0.00000  Uiso   1.00
H405   H     0.89210   0.38934   0.93888   0.00000  Uiso   1.00
O406   O     0.33038   0.05849   0.35296   0.00000  Uiso   1.00
O407   O     0.40656   0.46994   0.06607   0.00000  Uiso   1.00
O408   O     0.87063   0.32845   0.83668   0.00000  Uiso   1.00
N409   N     0.32452   0.08550   0.25282   0.00000  Uiso   1.00
N410   N     0.37883   0.37871   0.04840   0.00000  Uiso   1.00
N411   N     0.99692   0.27790   0.88492   0.00000  Uiso   1.00
N412   N     0.26270   0.16200   0.29920   0.00000  Uiso   1.00
N413   N     0.31700   0.45521   0.09477   0.00000  Uiso   1.00
N414   N     0.93510   0.35440   0.93129   0.00000  Uiso   1.00
C415   C     0.23503   0.71717   0.58230   0.00000  Uiso   1.00
C416   C     0.29638   0.65466   0.61946   0.00000  Uiso   1.00
C417   C     0.29714   0.62234   0.67062   0.00000  Uiso   1.00
C418   C     0.35832   0.56593   0.69818   0.00000  Uiso   1.00
C419   C     0.44472   0.47242   0.75937   0.00000  Uiso   1.00
C420   C     0.27001   0.76537   0.58411   0.00000  Uiso   1.00
C421   C     0.24859   0.82614   0.60553   0.00000  Uiso   1.00
C422   C     0.28757   0.86292   0.60332   0.00000  Uiso   1.00
C423   C     0.33300   0.94131   0.60958   0.00000  Uiso   1.00
C424   C     0.21224   0.70220   0.51454   0.00000  Uiso   1.00
C425   C     0.14224   0.70988   0.47746   0.00000  Uiso   1.00
C426   C     0.13258   0.69350   0.41667   0.00000  Uiso   1.00
C427   C     0.08832   0.67381   0.31492   0.00000  Uiso   1.00
C428   C     0.34233   0.67445   0.54028   0.00000  Uiso   1.00
C429   C     0.35466   0.63146   0.59664   0.00000  Uiso   1.00
C430   C     0.41585   0.57508   0.62412   0.00000  Uiso   1.00
C431   C     0.41670   0.54268   0.67531   0.00000  Uiso   1.00
C432   C     0.32829   0.74217   0.56128   0.00000  Uiso   1.00
C433   C     0.36730   0.77887   0.55904   0.00000  Uiso   1.00
C434   C     0.34595   0.83968   0.58045   0.00000  Uiso   1.00
C435   C     0.27052   0.67900   0.49171   0.00000  Uiso   1.00
C436   C     0.26096   0.66261   0.43097   0.00000  Uiso   1.00
C437   C     0.19096   0.67026   0.39380   0.00000  Uiso   1.00
H438   H     0.18965   0.73523   0.60007   0.00000  Uiso   1.00
H439   H     0.25202   0.64032   0.68827   0.00000  Uiso   1.00
H440   H     0.20348   0.84408   0.62319   0.00000  Uiso   1.00
H441   H     0.09715   0.72784   0.49514   0.00000  Uiso   1.00
H442   H     0.34689   0.52486   0.77601   0.00000  Uiso   1.00
H443   H     0.24451   0.95452   0.63875   0.00000  Uiso   1.00
H444   H     0.02030   0.70940   0.36874   0.00000  Uiso   1.00
H445   H     0.38770   0.65638   0.52250   0.00000  Uiso   1.00
H446   H     0.46094   0.55713   0.60645   0.00000  Uiso   1.00
H447   H     0.41240   0.76090   0.54136   0.00000  Uiso   1.00
H448   H     0.30607   0.64466   0.41332   0.00000  Uiso   1.00
H449   H     0.51645   0.45735   0.70960   0.00000  Uiso   1.00
H450   H     0.41408   0.88701   0.57234   0.00000  Uiso   1.00
H451   H     0.18987   0.64189   0.30233   0.00000  Uiso   1.00
O452   O     0.47629   0.42725   0.79943   0.00000  Uiso   1.00
O453   O     0.34196   0.99095   0.61935   0.00000  Uiso   1.00
O454   O     0.04781   0.66935   0.26510   0.00000  Uiso   1.00
N455   N     0.37674   0.52259   0.74885   0.00000  Uiso   1.00
N456   N     0.28103   0.92429   0.62053   0.00000  Uiso   1.00
N457   N     0.07141   0.69514   0.36809   0.00000  Uiso   1.00
N458   N     0.46798   0.48626   0.71311   0.00000  Uiso   1.00
N459   N     0.37227   0.88796   0.58480   0.00000  Uiso   1.00
N460   N     0.16265   0.65881   0.33235   0.00000  Uiso   1.00
C461   C     0.59476   0.91479   0.51337   0.00000  Uiso   1.00
C462   C     0.67611   0.87258   0.54185   0.00000  Uiso   1.00
C463   C     0.70704   0.80546   0.55344   0.00000  Uiso   1.00
C464   C     0.78255   0.77585   0.57974   0.00000  Uiso   1.00
C465   C     0.90234   0.70479   0.62183   0.00000  Uiso   1.00
C466   C     0.57660   0.96321   0.56015   0.00000  Uiso   1.00
C467   C     0.52384   0.97230   0.58712   0.00000  Uiso   1.00
C468   C     0.51558   0.01900   0.62882   0.00000  Uiso   1.00
C469   C     0.48082   0.08869   0.69929   0.00000  Uiso   1.00
C470   C     0.58579   0.95434   0.45600   0.00000  Uiso   1.00
C471   C     0.54074   0.95599   0.39541   0.00000  Uiso   1.00
C472   C     0.54020   0.99523   0.34942   0.00000  Uiso   1.00
C473   C     0.51971   0.05115   0.25818   0.00000  Uiso   1.00
C474   C     0.67388   0.98158   0.53946   0.00000  Uiso   1.00
C475   C     0.71909   0.90886   0.55602   0.00000  Uiso   1.00
C476   C     0.79458   0.87935   0.58230   0.00000  Uiso   1.00
C477   C     0.82561   0.81219   0.59393   0.00000  Uiso   1.00
C478   C     0.61957   0.99949   0.57432   0.00000  Uiso   1.00
C479   C     0.61138   0.04619   0.61598   0.00000  Uiso   1.00
C480   C     0.55863   0.05534   0.64302   0.00000  Uiso   1.00
C481   C     0.62876   0.99062   0.47017   0.00000  Uiso   1.00
C482   C     0.62828   0.02987   0.42427   0.00000  Uiso   1.00
C483   C     0.58325   0.03157   0.36362   0.00000  Uiso   1.00
H484   H     0.56130   0.88655   0.50235   0.00000  Uiso   1.00
H485   H     0.67376   0.77740   0.54248   0.00000  Uiso   1.00
H486   H     0.49059   0.94422   0.57615   0.00000  Uiso   1.00
H487   H     0.50749   0.92791   0.38446   0.00000  Uiso   1.00
H488   H     0.81740   0.67239   0.59324   0.00000  Uiso   1.00
H489   H     0.43115   0.02416   0.66422   0.00000  Uiso   1.00
H490   H     0.46679   0.98976   0.26001   0.00000  Uiso   1.00
H491   H     0.70734   0.00982   0.55049   0.00000  Uiso   1.00
H492   H     0.82782   0.90743   0.59326   0.00000  Uiso   1.00
H493   H     0.64464   0.07426   0.62693   0.00000  Uiso   1.00
H494   H     0.66155   0.05794   0.43525   0.00000  Uiso   1.00
H495   H     0.94244   0.77792   0.63446   0.00000  Uiso   1.00
H496   H     0.55618   0.12970   0.70544   0.00000  Uiso   1.00
H497   H     0.59183   0.09530   0.30123   0.00000  Uiso   1.00
O498   O     0.95654   0.65558   0.64114   0.00000  Uiso   1.00
O499   O     0.44978   0.11710   0.73425   0.00000  Uiso   1.00
O500   O     0.49655   0.07196   0.20394   0.00000  Uiso   1.00
N501   N     0.83029   0.71127   0.59706   0.00000  Uiso   1.00
N502   N     0.46918   0.04015   0.66343   0.00000  Uiso   1.00
N503   N     0.50249   0.00801   0.28553   0.00000  Uiso   1.00
N504   N     0.89757   0.76806   0.61924   0.00000  Uiso   1.00
N505   N     0.53646   0.09694   0.68561   0.00000  Uiso   1.00
N506   N     0.56977   0.06480   0.30771   0.00000  Uiso   1.00
C507   C     0.08396   0.33715   0.56256   0.00000  Uiso   1.00
C508   C     0.02424   0.38554   0.58428   0.00000  Uiso   1.00
C509   C     0.03373   0.42767   0.62920   0.00000  Uiso   1.00
C510   C     0.97227   0.46813   0.64251   0.00000  Uiso   1.00
C511   C     0.88996   0.54350   0.68091   0.00000  Uiso   1.00
C512   C     0.08319   0.27089   0.57293   0.00000  Uiso   1.00
C513   C     0.14225   0.21662   0.60830   0.00000  Uiso   1.00
C514   C     0.13041   0.16056   0.61203   0.00000  Uiso   1.00
C515   C     0.13964   0.05792   0.63277   0.00000  Uiso   1.00
C516   C     0.05807   0.35292   0.49192   0.00000  Uiso   1.00
C517   C     0.09602   0.36761   0.45916   0.00000  Uiso   1.00
C518   C     0.06304   0.38060   0.39468   0.00000  Uiso   1.00
C519   C     0.03326   0.40533   0.28964   0.00000  Uiso   1.00
C520   C     0.95791   0.33410   0.50630   0.00000  Uiso   1.00
C521   C     0.95577   0.38388   0.55373   0.00000  Uiso   1.00
C522   C     0.89427   0.42429   0.56696   0.00000  Uiso   1.00
C523   C     0.90368   0.46647   0.61189   0.00000  Uiso   1.00
C524   C     0.01473   0.26923   0.54237   0.00000  Uiso   1.00
C525   C     0.00280   0.21324   0.54605   0.00000  Uiso   1.00
C526   C     0.06182   0.15890   0.58142   0.00000  Uiso   1.00
C527   C     0.98960   0.35127   0.46136   0.00000  Uiso   1.00
C528   C     0.95656   0.36424   0.39692   0.00000  Uiso   1.00
C529   C     0.99445   0.37894   0.36407   0.00000  Uiso   1.00
H530   H     0.13726   0.33843   0.58635   0.00000  Uiso   1.00
H531   H     0.08673   0.42893   0.65285   0.00000  Uiso   1.00
H532   H     0.19523   0.21791   0.63193   0.00000  Uiso   1.00
H533   H     0.14900   0.36888   0.48282   0.00000  Uiso   1.00
H534   H     0.00051   0.52851   0.71311   0.00000  Uiso   1.00
H535   H     0.22931   0.08356   0.66900   0.00000  Uiso   1.00
H536   H     0.13182   0.40191   0.35457   0.00000  Uiso   1.00
H537   H     0.90460   0.33281   0.48251   0.00000  Uiso   1.00
H538   H     0.84130   0.42300   0.54331   0.00000  Uiso   1.00
H539   H     0.94981   0.21198   0.52240   0.00000  Uiso   1.00
H540   H     0.90357   0.36295   0.37329   0.00000  Uiso   1.00
H541   H     0.80131   0.52370   0.62421   0.00000  Uiso   1.00
H542   H     0.03011   0.07875   0.58009   0.00000  Uiso   1.00
H543   H     0.93262   0.39710   0.26566   0.00000  Uiso   1.00
O544   O     0.86347   0.58552   0.71054   0.00000  Uiso   1.00
O545   O     0.16365   0.00176   0.65266   0.00000  Uiso   1.00
O546   O     0.03575   0.41944   0.24013   0.00000  Uiso   1.00
N547   N     0.96232   0.51501   0.68383   0.00000  Uiso   1.00
N548   N     0.17622   0.09901   0.64260   0.00000  Uiso   1.00
N549   N     0.08509   0.39663   0.34863   0.00000  Uiso   1.00
N550   N     0.85513   0.51242   0.63599   0.00000  Uiso   1.00
N551   N     0.06903   0.09642   0.59476   0.00000  Uiso   1.00
N552   N     0.97790   0.39404   0.30079   0.00000  Uiso   1.00
