data_job_04803
_audit_creation_date              2018-12-19
_audit_creation_method            'Materials Studio'
_symmetry_space_group_name_H-M    'P1'
_symmetry_Int_Tables_number       1
_symmetry_cell_setting            triclinic
loop_
_symmetry_equiv_pos_as_xyz
  x,y,z
_cell_length_a                    14.2158
_cell_length_b                    16.8353
_cell_length_c                    12.4728
_cell_angle_alpha                 90.0000
_cell_angle_beta                  90.0000
_cell_angle_gamma                 90.0000
loop_
_atom_site_label
_atom_site_type_symbol
_atom_site_fract_x
_atom_site_fract_y
_atom_site_fract_z
_atom_site_U_iso_or_equiv
_atom_site_adp_type
_atom_site_occupancy
C1     C     0.61465   0.07360   0.57853   0.00000  Uiso   1.00
C2     C     0.58926   0.15970   0.55393   0.00000  Uiso   1.00
C3     C     0.49988   0.19253   0.56018   0.00000  Uiso   1.00
C4     C     0.49125   0.27242   0.53439   0.00000  Uiso   1.00
C5     C     0.43995   0.39920   0.50084   0.00000  Uiso   1.00
C6     C     0.66243   0.04156   0.47798   0.00000  Uiso   1.00
C7     C     0.63459   0.97505   0.42040   0.00000  Uiso   1.00
C8     C     0.68757   0.95549   0.33069   0.00000  Uiso   1.00
C9     C     0.74992   0.89881   0.17927   0.00000  Uiso   1.00
C10    C     0.69067   0.07677   0.66468   0.00000  Uiso   1.00
C11    C     0.68659   0.03986   0.76406   0.00000  Uiso   1.00
C12    C     0.76336   0.04993   0.83153   0.00000  Uiso   1.00
C13    C     0.86955   0.04793   0.96998   0.00000  Uiso   1.00
C14    C     0.75826   0.15710   0.52162   0.00000  Uiso   1.00
C15    C     0.66726   0.20505   0.52301   0.00000  Uiso   1.00
C16    C     0.65876   0.28491   0.49721   0.00000  Uiso   1.00
C17    C     0.56939   0.31786   0.50343   0.00000  Uiso   1.00
C18    C     0.74043   0.08691   0.44707   0.00000  Uiso   1.00
C19    C     0.79347   0.06743   0.35743   0.00000  Uiso   1.00
C20    C     0.76571   0.00092   0.29971   0.00000  Uiso   1.00
C21    C     0.76867   0.12213   0.63377   0.00000  Uiso   1.00
C22    C     0.84547   0.13225   0.70109   0.00000  Uiso   1.00
C23    C     0.84150   0.09536   0.80055   0.00000  Uiso   1.00
H24    H     0.55393   0.03829   0.60260   0.00000  Uiso   1.00
H25    H     0.43953   0.15741   0.58410   0.00000  Uiso   1.00
H26    H     0.57423   0.93996   0.44435   0.00000  Uiso   1.00
H27    H     0.62622   0.00477   0.78795   0.00000  Uiso   1.00
H28    H     0.34710   0.30947   0.54992   0.00000  Uiso   1.00
H29    H     0.63113   0.85095   0.25526   0.00000  Uiso   1.00
H30    H     0.74076   0.98760   0.97983   0.00000  Uiso   1.00
H31    H     0.81899   0.19241   0.49755   0.00000  Uiso   1.00
H32    H     0.71914   0.32000   0.47329   0.00000  Uiso   1.00
H33    H     0.85383   0.10254   0.33353   0.00000  Uiso   1.00
H34    H     0.90582   0.16735   0.67714   0.00000  Uiso   1.00
H35    H     0.57404   0.44143   0.45998   0.00000  Uiso   1.00
H36    H     0.85807   0.98291   0.16532   0.00000  Uiso   1.00
H37    H     0.96769   0.11956   0.88988   0.00000  Uiso   1.00
O38    O     0.39010   0.45659   0.49085   0.00000  Uiso   1.00
O39    O     0.76275   0.85502   0.10428   0.00000  Uiso   1.00
O40    O     0.90657   0.03431   0.05490   0.00000  Uiso   1.00
N41    N     0.41422   0.32303   0.53210   0.00000  Uiso   1.00
N42    N     0.67976   0.89434   0.25660   0.00000  Uiso   1.00
N43    N     0.78226   0.02208   0.93400   0.00000  Uiso   1.00
N44    N     0.53633   0.39403   0.48371   0.00000  Uiso   1.00
N45    N     0.80187   0.96535   0.20821   0.00000  Uiso   1.00
N46    N     0.90437   0.09309   0.88560   0.00000  Uiso   1.00
C47    C     0.38535   0.92640   0.57853   0.00000  Uiso   1.00
C48    C     0.41074   0.84030   0.55393   0.00000  Uiso   1.00
C49    C     0.50012   0.80747   0.56018   0.00000  Uiso   1.00
C50    C     0.50875   0.72758   0.53439   0.00000  Uiso   1.00
C51    C     0.56005   0.60080   0.50084   0.00000  Uiso   1.00
C52    C     0.33757   0.95844   0.47798   0.00000  Uiso   1.00
C53    C     0.36541   0.02495   0.42040   0.00000  Uiso   1.00
C54    C     0.31243   0.04451   0.33069   0.00000  Uiso   1.00
C55    C     0.25008   0.10119   0.17927   0.00000  Uiso   1.00
C56    C     0.30933   0.92323   0.66468   0.00000  Uiso   1.00
C57    C     0.31341   0.96014   0.76406   0.00000  Uiso   1.00
C58    C     0.23664   0.95007   0.83153   0.00000  Uiso   1.00
C59    C     0.13045   0.95207   0.96998   0.00000  Uiso   1.00
C60    C     0.24174   0.84290   0.52162   0.00000  Uiso   1.00
C61    C     0.33274   0.79495   0.52301   0.00000  Uiso   1.00
C62    C     0.34124   0.71509   0.49721   0.00000  Uiso   1.00
C63    C     0.43061   0.68214   0.50343   0.00000  Uiso   1.00
C64    C     0.25957   0.91309   0.44707   0.00000  Uiso   1.00
C65    C     0.20653   0.93257   0.35743   0.00000  Uiso   1.00
C66    C     0.23429   0.99908   0.29971   0.00000  Uiso   1.00
C67    C     0.23133   0.87787   0.63377   0.00000  Uiso   1.00
C68    C     0.15453   0.86775   0.70109   0.00000  Uiso   1.00
C69    C     0.15850   0.90464   0.80055   0.00000  Uiso   1.00
H70    H     0.44607   0.96171   0.60260   0.00000  Uiso   1.00
H71    H     0.56047   0.84259   0.58410   0.00000  Uiso   1.00
H72    H     0.42577   0.06004   0.44435   0.00000  Uiso   1.00
H73    H     0.37378   0.99523   0.78795   0.00000  Uiso   1.00
H74    H     0.65290   0.69053   0.54992   0.00000  Uiso   1.00
H75    H     0.36887   0.14905   0.25526   0.00000  Uiso   1.00
H76    H     0.25924   0.01240   0.97983   0.00000  Uiso   1.00
H77    H     0.18101   0.80759   0.49755   0.00000  Uiso   1.00
H78    H     0.28086   0.68000   0.47329   0.00000  Uiso   1.00
H79    H     0.14617   0.89746   0.33353   0.00000  Uiso   1.00
H80    H     0.09418   0.83265   0.67714   0.00000  Uiso   1.00
H81    H     0.42596   0.55857   0.45998   0.00000  Uiso   1.00
H82    H     0.14193   0.01709   0.16532   0.00000  Uiso   1.00
H83    H     0.03231   0.88044   0.88988   0.00000  Uiso   1.00
O84    O     0.60990   0.54341   0.49085   0.00000  Uiso   1.00
O85    O     0.23725   0.14498   0.10428   0.00000  Uiso   1.00
O86    O     0.09343   0.96569   0.05490   0.00000  Uiso   1.00
N87    N     0.58578   0.67697   0.53210   0.00000  Uiso   1.00
N88    N     0.32024   0.10566   0.25660   0.00000  Uiso   1.00
N89    N     0.21774   0.97792   0.93400   0.00000  Uiso   1.00
N90    N     0.46367   0.60597   0.48371   0.00000  Uiso   1.00
N91    N     0.19813   0.03465   0.20821   0.00000  Uiso   1.00
N92    N     0.09563   0.90691   0.88560   0.00000  Uiso   1.00
C93    C     0.61465   0.42640   0.07853   0.00000  Uiso   1.00
C94    C     0.58926   0.34030   0.05393   0.00000  Uiso   1.00
C95    C     0.49988   0.30747   0.06018   0.00000  Uiso   1.00
C96    C     0.49125   0.22758   0.03439   0.00000  Uiso   1.00
C97    C     0.43995   0.10080   0.00084   0.00000  Uiso   1.00
C98    C     0.66243   0.45844   0.97798   0.00000  Uiso   1.00
C99    C     0.63459   0.52495   0.92040   0.00000  Uiso   1.00
C100   C     0.68757   0.54451   0.83069   0.00000  Uiso   1.00
C101   C     0.74992   0.60119   0.67927   0.00000  Uiso   1.00
C102   C     0.69067   0.42323   0.16468   0.00000  Uiso   1.00
C103   C     0.68659   0.46014   0.26406   0.00000  Uiso   1.00
C104   C     0.76336   0.45007   0.33153   0.00000  Uiso   1.00
C105   C     0.86955   0.45207   0.46998   0.00000  Uiso   1.00
C106   C     0.75826   0.34290   0.02162   0.00000  Uiso   1.00
C107   C     0.66726   0.29495   0.02301   0.00000  Uiso   1.00
C108   C     0.65876   0.21509   0.99721   0.00000  Uiso   1.00
C109   C     0.56939   0.18214   0.00343   0.00000  Uiso   1.00
C110   C     0.74043   0.41309   0.94707   0.00000  Uiso   1.00
C111   C     0.79347   0.43257   0.85743   0.00000  Uiso   1.00
C112   C     0.76571   0.49908   0.79971   0.00000  Uiso   1.00
C113   C     0.76867   0.37787   0.13377   0.00000  Uiso   1.00
C114   C     0.84547   0.36775   0.20109   0.00000  Uiso   1.00
C115   C     0.84150   0.40464   0.30055   0.00000  Uiso   1.00
H116   H     0.55393   0.46171   0.10260   0.00000  Uiso   1.00
H117   H     0.43953   0.34259   0.08410   0.00000  Uiso   1.00
H118   H     0.57423   0.56004   0.94435   0.00000  Uiso   1.00
H119   H     0.62622   0.49523   0.28795   0.00000  Uiso   1.00
H120   H     0.34710   0.19053   0.04992   0.00000  Uiso   1.00
H121   H     0.63113   0.64905   0.75526   0.00000  Uiso   1.00
H122   H     0.74076   0.51240   0.47983   0.00000  Uiso   1.00
H123   H     0.81899   0.30759   0.99755   0.00000  Uiso   1.00
H124   H     0.71914   0.18000   0.97329   0.00000  Uiso   1.00
H125   H     0.85383   0.39746   0.83353   0.00000  Uiso   1.00
H126   H     0.90582   0.33265   0.17714   0.00000  Uiso   1.00
H127   H     0.57404   0.05857   0.95998   0.00000  Uiso   1.00
H128   H     0.85807   0.51709   0.66532   0.00000  Uiso   1.00
H129   H     0.96769   0.38044   0.38988   0.00000  Uiso   1.00
O130   O     0.39010   0.04341   0.99085   0.00000  Uiso   1.00
O131   O     0.76275   0.64498   0.60428   0.00000  Uiso   1.00
O132   O     0.90657   0.46569   0.55490   0.00000  Uiso   1.00
N133   N     0.41422   0.17697   0.03210   0.00000  Uiso   1.00
N134   N     0.67976   0.60566   0.75660   0.00000  Uiso   1.00
N135   N     0.78226   0.47792   0.43400   0.00000  Uiso   1.00
N136   N     0.53633   0.10597   0.98371   0.00000  Uiso   1.00
N137   N     0.80187   0.53465   0.70821   0.00000  Uiso   1.00
N138   N     0.90437   0.40691   0.38560   0.00000  Uiso   1.00
C139   C     0.38535   0.57360   0.07853   0.00000  Uiso   1.00
C140   C     0.41074   0.65970   0.05393   0.00000  Uiso   1.00
C141   C     0.50012   0.69253   0.06018   0.00000  Uiso   1.00
C142   C     0.50875   0.77242   0.03439   0.00000  Uiso   1.00
C143   C     0.56005   0.89920   0.00084   0.00000  Uiso   1.00
C144   C     0.33757   0.54156   0.97798   0.00000  Uiso   1.00
C145   C     0.36541   0.47505   0.92040   0.00000  Uiso   1.00
C146   C     0.31243   0.45549   0.83069   0.00000  Uiso   1.00
C147   C     0.25008   0.39881   0.67927   0.00000  Uiso   1.00
C148   C     0.30933   0.57677   0.16468   0.00000  Uiso   1.00
C149   C     0.31341   0.53986   0.26406   0.00000  Uiso   1.00
C150   C     0.23664   0.54993   0.33153   0.00000  Uiso   1.00
C151   C     0.13045   0.54793   0.46998   0.00000  Uiso   1.00
C152   C     0.24174   0.65710   0.02162   0.00000  Uiso   1.00
C153   C     0.33274   0.70505   0.02301   0.00000  Uiso   1.00
C154   C     0.34124   0.78491   0.99721   0.00000  Uiso   1.00
C155   C     0.43061   0.81786   0.00343   0.00000  Uiso   1.00
C156   C     0.25957   0.58691   0.94707   0.00000  Uiso   1.00
C157   C     0.20653   0.56743   0.85743   0.00000  Uiso   1.00
C158   C     0.23429   0.50092   0.79971   0.00000  Uiso   1.00
C159   C     0.23133   0.62213   0.13377   0.00000  Uiso   1.00
C160   C     0.15453   0.63225   0.20109   0.00000  Uiso   1.00
C161   C     0.15850   0.59536   0.30055   0.00000  Uiso   1.00
H162   H     0.44607   0.53829   0.10260   0.00000  Uiso   1.00
H163   H     0.56047   0.65741   0.08410   0.00000  Uiso   1.00
H164   H     0.42577   0.43996   0.94435   0.00000  Uiso   1.00
H165   H     0.37378   0.50477   0.28795   0.00000  Uiso   1.00
H166   H     0.65290   0.80947   0.04992   0.00000  Uiso   1.00
H167   H     0.36887   0.35095   0.75526   0.00000  Uiso   1.00
H168   H     0.25924   0.48760   0.47983   0.00000  Uiso   1.00
H169   H     0.18101   0.69241   0.99755   0.00000  Uiso   1.00
H170   H     0.28086   0.82000   0.97329   0.00000  Uiso   1.00
H171   H     0.14617   0.60254   0.83353   0.00000  Uiso   1.00
H172   H     0.09418   0.66735   0.17714   0.00000  Uiso   1.00
H173   H     0.42596   0.94143   0.95998   0.00000  Uiso   1.00
H174   H     0.14193   0.48291   0.66532   0.00000  Uiso   1.00
H175   H     0.03231   0.61956   0.38988   0.00000  Uiso   1.00
O176   O     0.60990   0.95659   0.99085   0.00000  Uiso   1.00
O177   O     0.23725   0.35502   0.60428   0.00000  Uiso   1.00
O178   O     0.09343   0.53431   0.55490   0.00000  Uiso   1.00
N179   N     0.58578   0.82303   0.03210   0.00000  Uiso   1.00
N180   N     0.32024   0.39434   0.75660   0.00000  Uiso   1.00
N181   N     0.21774   0.52208   0.43400   0.00000  Uiso   1.00
N182   N     0.46367   0.89403   0.98371   0.00000  Uiso   1.00
N183   N     0.19813   0.46535   0.70821   0.00000  Uiso   1.00
N184   N     0.09563   0.59309   0.38560   0.00000  Uiso   1.00
