data_job_03731
_audit_creation_date              2018-12-19
_audit_creation_method            'Materials Studio'
_symmetry_space_group_name_H-M    'P1'
_symmetry_Int_Tables_number       1
_symmetry_cell_setting            triclinic
loop_
_symmetry_equiv_pos_as_xyz
  x,y,z
_cell_length_a                    34.9115
_cell_length_b                    10.2615
_cell_length_c                    20.5682
_cell_angle_alpha                 90.0000
_cell_angle_beta                  90.0000
_cell_angle_gamma                 90.0000
loop_
_atom_site_label
_atom_site_type_symbol
_atom_site_fract_x
_atom_site_fract_y
_atom_site_fract_z
_atom_site_U_iso_or_equiv
_atom_site_adp_type
_atom_site_occupancy
C1     C     0.58123   0.56017   0.32605   0.00000  Uiso   1.00
C2     C     0.59897   0.50426   0.26431   0.00000  Uiso   1.00
C3     C     0.59147   0.54593   0.20139   0.00000  Uiso   1.00
C4     C     0.61061   0.48223   0.15148   0.00000  Uiso   1.00
C5     C     0.63423   0.41085   0.05369   0.00000  Uiso   1.00
C6     C     0.56246   0.44562   0.36092   0.00000  Uiso   1.00
C7     C     0.52427   0.43799   0.37924   0.00000  Uiso   1.00
C8     C     0.51267   0.32492   0.41066   0.00000  Uiso   1.00
C9     C     0.47961   0.16253   0.46289   0.00000  Uiso   1.00
C10    C     0.61468   0.60231   0.36884   0.00000  Uiso   1.00
C11    C     0.62038   0.72642   0.39385   0.00000  Uiso   1.00
C12    C     0.65274   0.74527   0.43195   0.00000  Uiso   1.00
C13    C     0.70076   0.82617   0.49650   0.00000  Uiso   1.00
C14    C     0.62854   0.37294   0.34928   0.00000  Uiso   1.00
C15    C     0.62467   0.40257   0.27693   0.00000  Uiso   1.00
C16    C     0.64382   0.33879   0.22710   0.00000  Uiso   1.00
C17    C     0.63635   0.38035   0.16412   0.00000  Uiso   1.00
C18    C     0.58816   0.34393   0.37354   0.00000  Uiso   1.00
C19    C     0.57661   0.23085   0.40494   0.00000  Uiso   1.00
C20    C     0.53841   0.22304   0.42330   0.00000  Uiso   1.00
C21    C     0.64038   0.50062   0.38146   0.00000  Uiso   1.00
C22    C     0.67273   0.51928   0.41954   0.00000  Uiso   1.00
C23    C     0.67849   0.64339   0.44459   0.00000  Uiso   1.00
H24    H     0.56122   0.63934   0.31623   0.00000  Uiso   1.00
H25    H     0.57158   0.62462   0.19165   0.00000  Uiso   1.00
H26    H     0.50439   0.51670   0.36947   0.00000  Uiso   1.00
H27    H     0.60049   0.80509   0.38407   0.00000  Uiso   1.00
H28    H     0.59439   0.56344   0.05909   0.00000  Uiso   1.00
H29    H     0.45271   0.33590   0.43406   0.00000  Uiso   1.00
H30    H     0.65536   0.94402   0.46485   0.00000  Uiso   1.00
H31    H     0.64855   0.29377   0.35911   0.00000  Uiso   1.00
H32    H     0.66371   0.26010   0.23688   0.00000  Uiso   1.00
H33    H     0.59651   0.15217   0.41470   0.00000  Uiso   1.00
H34    H     0.69261   0.44056   0.42930   0.00000  Uiso   1.00
H35    H     0.66916   0.26757   0.09580   0.00000  Uiso   1.00
H36    H     0.52748   0.04003   0.47077   0.00000  Uiso   1.00
H37    H     0.73013   0.64815   0.50155   0.00000  Uiso   1.00
O38    O     0.64016   0.39956   0.99626   0.00000  Uiso   1.00
O39    O     0.45428   0.10105   0.48822   0.00000  Uiso   1.00
O40    O     0.72015   0.89889   0.52860   0.00000  Uiso   1.00
N41    N     0.60992   0.49844   0.08451   0.00000  Uiso   1.00
N42    N     0.47745   0.28570   0.43507   0.00000  Uiso   1.00
N43    N     0.66690   0.85424   0.46387   0.00000  Uiso   1.00
N44    N     0.65015   0.33924   0.10426   0.00000  Uiso   1.00
N45    N     0.51768   0.12650   0.45482   0.00000  Uiso   1.00
N46    N     0.70714   0.69503   0.48362   0.00000  Uiso   1.00
C47    C     0.91877   0.93983   0.32605   0.00000  Uiso   1.00
C48    C     0.90103   0.99574   0.26431   0.00000  Uiso   1.00
C49    C     0.90853   0.95407   0.20139   0.00000  Uiso   1.00
C50    C     0.88939   0.01777   0.15148   0.00000  Uiso   1.00
C51    C     0.86577   0.08915   0.05369   0.00000  Uiso   1.00
C52    C     0.93754   0.05438   0.36092   0.00000  Uiso   1.00
C53    C     0.97573   0.06201   0.37924   0.00000  Uiso   1.00
C54    C     0.98733   0.17508   0.41066   0.00000  Uiso   1.00
C55    C     0.02039   0.33747   0.46289   0.00000  Uiso   1.00
C56    C     0.88532   0.89769   0.36884   0.00000  Uiso   1.00
C57    C     0.87962   0.77358   0.39385   0.00000  Uiso   1.00
C58    C     0.84726   0.75473   0.43195   0.00000  Uiso   1.00
C59    C     0.79924   0.67383   0.49650   0.00000  Uiso   1.00
C60    C     0.87146   0.12706   0.34928   0.00000  Uiso   1.00
C61    C     0.87533   0.09743   0.27693   0.00000  Uiso   1.00
C62    C     0.85618   0.16121   0.22710   0.00000  Uiso   1.00
C63    C     0.86365   0.11965   0.16412   0.00000  Uiso   1.00
C64    C     0.91184   0.15607   0.37354   0.00000  Uiso   1.00
C65    C     0.92339   0.26915   0.40494   0.00000  Uiso   1.00
C66    C     0.96159   0.27696   0.42330   0.00000  Uiso   1.00
C67    C     0.85962   0.99938   0.38146   0.00000  Uiso   1.00
C68    C     0.82727   0.98072   0.41954   0.00000  Uiso   1.00
C69    C     0.82151   0.85661   0.44459   0.00000  Uiso   1.00
H70    H     0.93878   0.86066   0.31623   0.00000  Uiso   1.00
H71    H     0.92842   0.87538   0.19165   0.00000  Uiso   1.00
H72    H     0.99561   0.98330   0.36947   0.00000  Uiso   1.00
H73    H     0.89951   0.69491   0.38407   0.00000  Uiso   1.00
H74    H     0.90561   0.93656   0.05909   0.00000  Uiso   1.00
H75    H     0.04729   0.16410   0.43406   0.00000  Uiso   1.00
H76    H     0.84464   0.55598   0.46485   0.00000  Uiso   1.00
H77    H     0.85145   0.20623   0.35911   0.00000  Uiso   1.00
H78    H     0.83629   0.23990   0.23688   0.00000  Uiso   1.00
H79    H     0.90349   0.34783   0.41470   0.00000  Uiso   1.00
H80    H     0.80739   0.05944   0.42930   0.00000  Uiso   1.00
H81    H     0.83084   0.23243   0.09580   0.00000  Uiso   1.00
H82    H     0.97252   0.45997   0.47077   0.00000  Uiso   1.00
H83    H     0.76987   0.85185   0.50155   0.00000  Uiso   1.00
O84    O     0.85984   0.10044   0.99626   0.00000  Uiso   1.00
O85    O     0.04572   0.39895   0.48822   0.00000  Uiso   1.00
O86    O     0.77985   0.60111   0.52860   0.00000  Uiso   1.00
N87    N     0.89008   0.00156   0.08451   0.00000  Uiso   1.00
N88    N     0.02255   0.21430   0.43507   0.00000  Uiso   1.00
N89    N     0.83310   0.64576   0.46387   0.00000  Uiso   1.00
N90    N     0.84985   0.16076   0.10426   0.00000  Uiso   1.00
N91    N     0.98232   0.37350   0.45482   0.00000  Uiso   1.00
N92    N     0.79286   0.80497   0.48362   0.00000  Uiso   1.00
C93    C     0.41877   0.06017   0.17395   0.00000  Uiso   1.00
C94    C     0.40103   0.00426   0.23569   0.00000  Uiso   1.00
C95    C     0.40853   0.04593   0.29861   0.00000  Uiso   1.00
C96    C     0.38939   0.98223   0.34852   0.00000  Uiso   1.00
C97    C     0.36577   0.91085   0.44631   0.00000  Uiso   1.00
C98    C     0.43754   0.94562   0.13908   0.00000  Uiso   1.00
C99    C     0.47573   0.93799   0.12076   0.00000  Uiso   1.00
C100   C     0.48733   0.82492   0.08934   0.00000  Uiso   1.00
C101   C     0.52039   0.66253   0.03711   0.00000  Uiso   1.00
C102   C     0.38532   0.10231   0.13116   0.00000  Uiso   1.00
C103   C     0.37962   0.22642   0.10615   0.00000  Uiso   1.00
C104   C     0.34726   0.24527   0.06805   0.00000  Uiso   1.00
C105   C     0.29924   0.32617   0.00350   0.00000  Uiso   1.00
C106   C     0.37146   0.87294   0.15072   0.00000  Uiso   1.00
C107   C     0.37533   0.90257   0.22307   0.00000  Uiso   1.00
C108   C     0.35618   0.83879   0.27290   0.00000  Uiso   1.00
C109   C     0.36365   0.88035   0.33588   0.00000  Uiso   1.00
C110   C     0.41184   0.84393   0.12646   0.00000  Uiso   1.00
C111   C     0.42339   0.73085   0.09506   0.00000  Uiso   1.00
C112   C     0.46159   0.72304   0.07670   0.00000  Uiso   1.00
C113   C     0.35962   0.00062   0.11854   0.00000  Uiso   1.00
C114   C     0.32727   0.01928   0.08046   0.00000  Uiso   1.00
C115   C     0.32151   0.14339   0.05541   0.00000  Uiso   1.00
H116   H     0.43878   0.13934   0.18377   0.00000  Uiso   1.00
H117   H     0.42842   0.12462   0.30835   0.00000  Uiso   1.00
H118   H     0.49561   0.01670   0.13053   0.00000  Uiso   1.00
H119   H     0.39951   0.30509   0.11593   0.00000  Uiso   1.00
H120   H     0.40561   0.06344   0.44091   0.00000  Uiso   1.00
H121   H     0.54729   0.83590   0.06594   0.00000  Uiso   1.00
H122   H     0.34464   0.44402   0.03515   0.00000  Uiso   1.00
H123   H     0.35145   0.79377   0.14089   0.00000  Uiso   1.00
H124   H     0.33629   0.76010   0.26312   0.00000  Uiso   1.00
H125   H     0.40349   0.65217   0.08530   0.00000  Uiso   1.00
H126   H     0.30739   0.94056   0.07070   0.00000  Uiso   1.00
H127   H     0.33084   0.76757   0.40420   0.00000  Uiso   1.00
H128   H     0.47252   0.54003   0.02923   0.00000  Uiso   1.00
H129   H     0.26987   0.14815   0.99845   0.00000  Uiso   1.00
O130   O     0.35984   0.89956   0.50374   0.00000  Uiso   1.00
O131   O     0.54572   0.60105   0.01178   0.00000  Uiso   1.00
O132   O     0.27985   0.39889   0.97140   0.00000  Uiso   1.00
N133   N     0.39008   0.99844   0.41549   0.00000  Uiso   1.00
N134   N     0.52255   0.78570   0.06493   0.00000  Uiso   1.00
N135   N     0.33310   0.35424   0.03613   0.00000  Uiso   1.00
N136   N     0.34985   0.83924   0.39574   0.00000  Uiso   1.00
N137   N     0.48232   0.62650   0.04518   0.00000  Uiso   1.00
N138   N     0.29286   0.19503   0.01638   0.00000  Uiso   1.00
C139   C     0.08123   0.43983   0.17395   0.00000  Uiso   1.00
C140   C     0.09897   0.49574   0.23569   0.00000  Uiso   1.00
C141   C     0.09147   0.45407   0.29861   0.00000  Uiso   1.00
C142   C     0.11061   0.51777   0.34852   0.00000  Uiso   1.00
C143   C     0.13423   0.58915   0.44631   0.00000  Uiso   1.00
C144   C     0.06246   0.55438   0.13908   0.00000  Uiso   1.00
C145   C     0.02427   0.56201   0.12076   0.00000  Uiso   1.00
C146   C     0.01267   0.67508   0.08934   0.00000  Uiso   1.00
C147   C     0.97961   0.83747   0.03711   0.00000  Uiso   1.00
C148   C     0.11468   0.39769   0.13116   0.00000  Uiso   1.00
C149   C     0.12038   0.27358   0.10615   0.00000  Uiso   1.00
C150   C     0.15274   0.25473   0.06805   0.00000  Uiso   1.00
C151   C     0.20076   0.17383   0.00350   0.00000  Uiso   1.00
C152   C     0.12854   0.62706   0.15072   0.00000  Uiso   1.00
C153   C     0.12467   0.59743   0.22307   0.00000  Uiso   1.00
C154   C     0.14382   0.66121   0.27290   0.00000  Uiso   1.00
C155   C     0.13635   0.61965   0.33588   0.00000  Uiso   1.00
C156   C     0.08816   0.65607   0.12646   0.00000  Uiso   1.00
C157   C     0.07661   0.76915   0.09506   0.00000  Uiso   1.00
C158   C     0.03841   0.77696   0.07670   0.00000  Uiso   1.00
C159   C     0.14038   0.49938   0.11854   0.00000  Uiso   1.00
C160   C     0.17273   0.48072   0.08046   0.00000  Uiso   1.00
C161   C     0.17849   0.35661   0.05541   0.00000  Uiso   1.00
H162   H     0.06122   0.36066   0.18377   0.00000  Uiso   1.00
H163   H     0.07158   0.37538   0.30835   0.00000  Uiso   1.00
H164   H     0.00439   0.48330   0.13053   0.00000  Uiso   1.00
H165   H     0.10049   0.19491   0.11593   0.00000  Uiso   1.00
H166   H     0.09439   0.43656   0.44091   0.00000  Uiso   1.00
H167   H     0.95271   0.66410   0.06594   0.00000  Uiso   1.00
H168   H     0.15536   0.05598   0.03515   0.00000  Uiso   1.00
H169   H     0.14855   0.70623   0.14089   0.00000  Uiso   1.00
H170   H     0.16371   0.73990   0.26312   0.00000  Uiso   1.00
H171   H     0.09651   0.84783   0.08530   0.00000  Uiso   1.00
H172   H     0.19261   0.55944   0.07070   0.00000  Uiso   1.00
H173   H     0.16916   0.73243   0.40420   0.00000  Uiso   1.00
H174   H     0.02748   0.95997   0.02923   0.00000  Uiso   1.00
H175   H     0.23013   0.35185   0.99845   0.00000  Uiso   1.00
O176   O     0.14016   0.60044   0.50374   0.00000  Uiso   1.00
O177   O     0.95428   0.89895   0.01178   0.00000  Uiso   1.00
O178   O     0.22015   0.10111   0.97140   0.00000  Uiso   1.00
N179   N     0.10992   0.50156   0.41549   0.00000  Uiso   1.00
N180   N     0.97745   0.71430   0.06493   0.00000  Uiso   1.00
N181   N     0.16690   0.14576   0.03613   0.00000  Uiso   1.00
N182   N     0.15015   0.66076   0.39574   0.00000  Uiso   1.00
N183   N     0.01768   0.87350   0.04518   0.00000  Uiso   1.00
N184   N     0.20714   0.30497   0.01638   0.00000  Uiso   1.00
C185   C     0.41877   0.43983   0.67395   0.00000  Uiso   1.00
C186   C     0.40103   0.49574   0.73569   0.00000  Uiso   1.00
C187   C     0.40853   0.45407   0.79861   0.00000  Uiso   1.00
C188   C     0.38939   0.51777   0.84852   0.00000  Uiso   1.00
C189   C     0.36577   0.58915   0.94631   0.00000  Uiso   1.00
C190   C     0.43754   0.55438   0.63908   0.00000  Uiso   1.00
C191   C     0.47573   0.56201   0.62076   0.00000  Uiso   1.00
C192   C     0.48733   0.67508   0.58934   0.00000  Uiso   1.00
C193   C     0.52039   0.83747   0.53711   0.00000  Uiso   1.00
C194   C     0.38532   0.39769   0.63116   0.00000  Uiso   1.00
C195   C     0.37962   0.27358   0.60615   0.00000  Uiso   1.00
C196   C     0.34726   0.25473   0.56805   0.00000  Uiso   1.00
C197   C     0.29924   0.17383   0.50350   0.00000  Uiso   1.00
C198   C     0.37146   0.62706   0.65072   0.00000  Uiso   1.00
C199   C     0.37533   0.59743   0.72307   0.00000  Uiso   1.00
C200   C     0.35618   0.66121   0.77290   0.00000  Uiso   1.00
C201   C     0.36365   0.61965   0.83588   0.00000  Uiso   1.00
C202   C     0.41184   0.65607   0.62646   0.00000  Uiso   1.00
C203   C     0.42339   0.76915   0.59506   0.00000  Uiso   1.00
C204   C     0.46159   0.77696   0.57670   0.00000  Uiso   1.00
C205   C     0.35962   0.49938   0.61854   0.00000  Uiso   1.00
C206   C     0.32727   0.48072   0.58046   0.00000  Uiso   1.00
C207   C     0.32151   0.35661   0.55541   0.00000  Uiso   1.00
H208   H     0.43878   0.36066   0.68377   0.00000  Uiso   1.00
H209   H     0.42842   0.37538   0.80835   0.00000  Uiso   1.00
H210   H     0.49561   0.48330   0.63053   0.00000  Uiso   1.00
H211   H     0.39951   0.19491   0.61593   0.00000  Uiso   1.00
H212   H     0.40561   0.43656   0.94091   0.00000  Uiso   1.00
H213   H     0.54729   0.66410   0.56594   0.00000  Uiso   1.00
H214   H     0.34464   0.05598   0.53515   0.00000  Uiso   1.00
H215   H     0.35145   0.70623   0.64089   0.00000  Uiso   1.00
H216   H     0.33629   0.73990   0.76312   0.00000  Uiso   1.00
H217   H     0.40349   0.84783   0.58530   0.00000  Uiso   1.00
H218   H     0.30739   0.55944   0.57070   0.00000  Uiso   1.00
H219   H     0.33084   0.73243   0.90420   0.00000  Uiso   1.00
H220   H     0.47252   0.95997   0.52923   0.00000  Uiso   1.00
H221   H     0.26987   0.35185   0.49845   0.00000  Uiso   1.00
O222   O     0.35984   0.60044   0.00374   0.00000  Uiso   1.00
O223   O     0.54572   0.89895   0.51178   0.00000  Uiso   1.00
O224   O     0.27985   0.10111   0.47140   0.00000  Uiso   1.00
N225   N     0.39008   0.50156   0.91549   0.00000  Uiso   1.00
N226   N     0.52255   0.71430   0.56493   0.00000  Uiso   1.00
N227   N     0.33310   0.14576   0.53613   0.00000  Uiso   1.00
N228   N     0.34985   0.66076   0.89574   0.00000  Uiso   1.00
N229   N     0.48232   0.87350   0.54518   0.00000  Uiso   1.00
N230   N     0.29286   0.30497   0.51638   0.00000  Uiso   1.00
C231   C     0.08123   0.06017   0.67395   0.00000  Uiso   1.00
C232   C     0.09897   0.00426   0.73569   0.00000  Uiso   1.00
C233   C     0.09147   0.04593   0.79861   0.00000  Uiso   1.00
C234   C     0.11061   0.98223   0.84852   0.00000  Uiso   1.00
C235   C     0.13423   0.91085   0.94631   0.00000  Uiso   1.00
C236   C     0.06246   0.94562   0.63908   0.00000  Uiso   1.00
C237   C     0.02427   0.93799   0.62076   0.00000  Uiso   1.00
C238   C     0.01267   0.82492   0.58934   0.00000  Uiso   1.00
C239   C     0.97961   0.66253   0.53711   0.00000  Uiso   1.00
C240   C     0.11468   0.10231   0.63116   0.00000  Uiso   1.00
C241   C     0.12038   0.22642   0.60615   0.00000  Uiso   1.00
C242   C     0.15274   0.24527   0.56805   0.00000  Uiso   1.00
C243   C     0.20076   0.32617   0.50350   0.00000  Uiso   1.00
C244   C     0.12854   0.87294   0.65072   0.00000  Uiso   1.00
C245   C     0.12467   0.90257   0.72307   0.00000  Uiso   1.00
C246   C     0.14382   0.83879   0.77290   0.00000  Uiso   1.00
C247   C     0.13635   0.88035   0.83588   0.00000  Uiso   1.00
C248   C     0.08816   0.84393   0.62646   0.00000  Uiso   1.00
C249   C     0.07661   0.73085   0.59506   0.00000  Uiso   1.00
C250   C     0.03841   0.72304   0.57670   0.00000  Uiso   1.00
C251   C     0.14038   0.00062   0.61854   0.00000  Uiso   1.00
C252   C     0.17273   0.01928   0.58046   0.00000  Uiso   1.00
C253   C     0.17849   0.14339   0.55541   0.00000  Uiso   1.00
H254   H     0.06122   0.13934   0.68377   0.00000  Uiso   1.00
H255   H     0.07158   0.12462   0.80835   0.00000  Uiso   1.00
H256   H     0.00439   0.01670   0.63053   0.00000  Uiso   1.00
H257   H     0.10049   0.30509   0.61593   0.00000  Uiso   1.00
H258   H     0.09439   0.06344   0.94091   0.00000  Uiso   1.00
H259   H     0.95271   0.83590   0.56594   0.00000  Uiso   1.00
H260   H     0.15536   0.44402   0.53515   0.00000  Uiso   1.00
H261   H     0.14855   0.79377   0.64089   0.00000  Uiso   1.00
H262   H     0.16371   0.76010   0.76312   0.00000  Uiso   1.00
H263   H     0.09651   0.65217   0.58530   0.00000  Uiso   1.00
H264   H     0.19261   0.94056   0.57070   0.00000  Uiso   1.00
H265   H     0.16916   0.76757   0.90420   0.00000  Uiso   1.00
H266   H     0.02748   0.54003   0.52923   0.00000  Uiso   1.00
H267   H     0.23013   0.14815   0.49845   0.00000  Uiso   1.00
O268   O     0.14016   0.89956   0.00374   0.00000  Uiso   1.00
O269   O     0.95428   0.60105   0.51178   0.00000  Uiso   1.00
O270   O     0.22015   0.39889   0.47140   0.00000  Uiso   1.00
N271   N     0.10992   0.99844   0.91549   0.00000  Uiso   1.00
N272   N     0.97745   0.78570   0.56493   0.00000  Uiso   1.00
N273   N     0.16690   0.35424   0.53613   0.00000  Uiso   1.00
N274   N     0.15015   0.83924   0.89574   0.00000  Uiso   1.00
N275   N     0.01768   0.62650   0.54518   0.00000  Uiso   1.00
N276   N     0.20714   0.19503   0.51638   0.00000  Uiso   1.00
C277   C     0.58123   0.93983   0.82605   0.00000  Uiso   1.00
C278   C     0.59897   0.99574   0.76431   0.00000  Uiso   1.00
C279   C     0.59147   0.95407   0.70139   0.00000  Uiso   1.00
C280   C     0.61061   0.01777   0.65148   0.00000  Uiso   1.00
C281   C     0.63423   0.08915   0.55369   0.00000  Uiso   1.00
C282   C     0.56246   0.05438   0.86092   0.00000  Uiso   1.00
C283   C     0.52427   0.06201   0.87924   0.00000  Uiso   1.00
C284   C     0.51267   0.17508   0.91066   0.00000  Uiso   1.00
C285   C     0.47961   0.33747   0.96289   0.00000  Uiso   1.00
C286   C     0.61468   0.89769   0.86884   0.00000  Uiso   1.00
C287   C     0.62038   0.77358   0.89385   0.00000  Uiso   1.00
C288   C     0.65274   0.75473   0.93195   0.00000  Uiso   1.00
C289   C     0.70076   0.67383   0.99650   0.00000  Uiso   1.00
C290   C     0.62854   0.12706   0.84928   0.00000  Uiso   1.00
C291   C     0.62467   0.09743   0.77693   0.00000  Uiso   1.00
C292   C     0.64382   0.16121   0.72710   0.00000  Uiso   1.00
C293   C     0.63635   0.11965   0.66412   0.00000  Uiso   1.00
C294   C     0.58816   0.15607   0.87354   0.00000  Uiso   1.00
C295   C     0.57661   0.26915   0.90494   0.00000  Uiso   1.00
C296   C     0.53841   0.27696   0.92330   0.00000  Uiso   1.00
C297   C     0.64038   0.99938   0.88146   0.00000  Uiso   1.00
C298   C     0.67273   0.98072   0.91954   0.00000  Uiso   1.00
C299   C     0.67849   0.85661   0.94459   0.00000  Uiso   1.00
H300   H     0.56122   0.86066   0.81623   0.00000  Uiso   1.00
H301   H     0.57158   0.87538   0.69165   0.00000  Uiso   1.00
H302   H     0.50439   0.98330   0.86947   0.00000  Uiso   1.00
H303   H     0.60049   0.69491   0.88407   0.00000  Uiso   1.00
H304   H     0.59439   0.93656   0.55909   0.00000  Uiso   1.00
H305   H     0.45271   0.16410   0.93406   0.00000  Uiso   1.00
H306   H     0.65536   0.55598   0.96485   0.00000  Uiso   1.00
H307   H     0.64855   0.20623   0.85911   0.00000  Uiso   1.00
H308   H     0.66371   0.23990   0.73688   0.00000  Uiso   1.00
H309   H     0.59651   0.34783   0.91470   0.00000  Uiso   1.00
H310   H     0.69261   0.05944   0.92930   0.00000  Uiso   1.00
H311   H     0.66916   0.23243   0.59580   0.00000  Uiso   1.00
H312   H     0.52748   0.45997   0.97077   0.00000  Uiso   1.00
H313   H     0.73013   0.85185   0.00155   0.00000  Uiso   1.00
O314   O     0.64016   0.10044   0.49626   0.00000  Uiso   1.00
O315   O     0.45428   0.39895   0.98822   0.00000  Uiso   1.00
O316   O     0.72015   0.60111   0.02860   0.00000  Uiso   1.00
N317   N     0.60992   0.00156   0.58451   0.00000  Uiso   1.00
N318   N     0.47745   0.21430   0.93507   0.00000  Uiso   1.00
N319   N     0.66690   0.64576   0.96387   0.00000  Uiso   1.00
N320   N     0.65015   0.16076   0.60426   0.00000  Uiso   1.00
N321   N     0.51768   0.37350   0.95482   0.00000  Uiso   1.00
N322   N     0.70714   0.80497   0.98362   0.00000  Uiso   1.00
C323   C     0.91877   0.56017   0.82605   0.00000  Uiso   1.00
C324   C     0.90103   0.50426   0.76431   0.00000  Uiso   1.00
C325   C     0.90853   0.54593   0.70139   0.00000  Uiso   1.00
C326   C     0.88939   0.48223   0.65148   0.00000  Uiso   1.00
C327   C     0.86577   0.41085   0.55369   0.00000  Uiso   1.00
C328   C     0.93754   0.44562   0.86092   0.00000  Uiso   1.00
C329   C     0.97573   0.43799   0.87924   0.00000  Uiso   1.00
C330   C     0.98733   0.32492   0.91066   0.00000  Uiso   1.00
C331   C     0.02039   0.16253   0.96289   0.00000  Uiso   1.00
C332   C     0.88532   0.60231   0.86884   0.00000  Uiso   1.00
C333   C     0.87962   0.72642   0.89385   0.00000  Uiso   1.00
C334   C     0.84726   0.74527   0.93195   0.00000  Uiso   1.00
C335   C     0.79924   0.82617   0.99650   0.00000  Uiso   1.00
C336   C     0.87146   0.37294   0.84928   0.00000  Uiso   1.00
C337   C     0.87533   0.40257   0.77693   0.00000  Uiso   1.00
C338   C     0.85618   0.33879   0.72710   0.00000  Uiso   1.00
C339   C     0.86365   0.38035   0.66412   0.00000  Uiso   1.00
C340   C     0.91184   0.34393   0.87354   0.00000  Uiso   1.00
C341   C     0.92339   0.23085   0.90494   0.00000  Uiso   1.00
C342   C     0.96159   0.22304   0.92330   0.00000  Uiso   1.00
C343   C     0.85962   0.50062   0.88146   0.00000  Uiso   1.00
C344   C     0.82727   0.51928   0.91954   0.00000  Uiso   1.00
C345   C     0.82151   0.64339   0.94459   0.00000  Uiso   1.00
H346   H     0.93878   0.63934   0.81623   0.00000  Uiso   1.00
H347   H     0.92842   0.62462   0.69165   0.00000  Uiso   1.00
H348   H     0.99561   0.51670   0.86947   0.00000  Uiso   1.00
H349   H     0.89951   0.80509   0.88407   0.00000  Uiso   1.00
H350   H     0.90561   0.56344   0.55909   0.00000  Uiso   1.00
H351   H     0.04729   0.33590   0.93406   0.00000  Uiso   1.00
H352   H     0.84464   0.94402   0.96485   0.00000  Uiso   1.00
H353   H     0.85145   0.29377   0.85911   0.00000  Uiso   1.00
H354   H     0.83629   0.26010   0.73688   0.00000  Uiso   1.00
H355   H     0.90349   0.15217   0.91470   0.00000  Uiso   1.00
H356   H     0.80739   0.44056   0.92930   0.00000  Uiso   1.00
H357   H     0.83084   0.26757   0.59580   0.00000  Uiso   1.00
H358   H     0.97252   0.04003   0.97077   0.00000  Uiso   1.00
H359   H     0.76987   0.64815   0.00155   0.00000  Uiso   1.00
O360   O     0.85984   0.39956   0.49626   0.00000  Uiso   1.00
O361   O     0.04572   0.10105   0.98822   0.00000  Uiso   1.00
O362   O     0.77985   0.89889   0.02860   0.00000  Uiso   1.00
N363   N     0.89008   0.49844   0.58451   0.00000  Uiso   1.00
N364   N     0.02255   0.28570   0.93507   0.00000  Uiso   1.00
N365   N     0.83310   0.85424   0.96387   0.00000  Uiso   1.00
N366   N     0.84985   0.33924   0.60426   0.00000  Uiso   1.00
N367   N     0.98232   0.12650   0.95482   0.00000  Uiso   1.00
N368   N     0.79286   0.69503   0.98362   0.00000  Uiso   1.00
