data_job_00581
_audit_creation_date              2018-12-19
_audit_creation_method            'Materials Studio'
_symmetry_space_group_name_H-M    'P1'
_symmetry_Int_Tables_number       1
_symmetry_cell_setting            triclinic
loop_
_symmetry_equiv_pos_as_xyz
  x,y,z
_cell_length_a                    15.8420
_cell_length_b                    9.2289
_cell_length_c                    21.6696
_cell_angle_alpha                 90.0000
_cell_angle_beta                  125.1649
_cell_angle_gamma                 90.0000
loop_
_atom_site_label
_atom_site_type_symbol
_atom_site_fract_x
_atom_site_fract_y
_atom_site_fract_z
_atom_site_U_iso_or_equiv
_atom_site_adp_type
_atom_site_occupancy
C1     C     0.22286   0.90677   0.19701   0.00000  Uiso   1.00
C2     C     0.26636   0.04725   0.18893   0.00000  Uiso   1.00
C3     C     0.30890   0.06418   0.14851   0.00000  Uiso   1.00
C4     C     0.34442   0.20141   0.14802   0.00000  Uiso   1.00
C5     C     0.41306   0.40187   0.12964   0.00000  Uiso   1.00
C6     C     0.28167   0.87920   0.28160   0.00000  Uiso   1.00
C7     C     0.33705   0.75482   0.31908   0.00000  Uiso   1.00
C8     C     0.38544   0.75059   0.39660   0.00000  Uiso   1.00
C9     C     0.47777   0.69011   0.52207   0.00000  Uiso   1.00
C10    C     0.11197   0.94023   0.16919   0.00000  Uiso   1.00
C11    C     0.02466   0.86715   0.11216   0.00000  Uiso   1.00
C12    C     0.93018   0.91428   0.09505   0.00000  Uiso   1.00
C13    C     0.75902   0.94857   0.04599   0.00000  Uiso   1.00
C14    C     0.21031   0.12037   0.26804   0.00000  Uiso   1.00
C15    C     0.25955   0.16327   0.22752   0.00000  Uiso   1.00
C16    C     0.29501   0.30051   0.22709   0.00000  Uiso   1.00
C17    C     0.33759   0.31764   0.18667   0.00000  Uiso   1.00
C18    C     0.27485   0.99521   0.32018   0.00000  Uiso   1.00
C19    C     0.32317   0.99116   0.39766   0.00000  Uiso   1.00
C20    C     0.37862   0.86682   0.43525   0.00000  Uiso   1.00
C21    C     0.10515   0.05626   0.20777   0.00000  Uiso   1.00
C22    C     0.01078   0.10350   0.19075   0.00000  Uiso   1.00
C23    C     0.92335   0.03051   0.13371   0.00000  Uiso   1.00
H24    H     0.22817   0.81643   0.16698   0.00000  Uiso   1.00
H25    H     0.31417   0.97436   0.11866   0.00000  Uiso   1.00
H26    H     0.34230   0.66505   0.28920   0.00000  Uiso   1.00
H27    H     0.02997   0.77738   0.08232   0.00000  Uiso   1.00
H28    H     0.40654   0.20060   0.08213   0.00000  Uiso   1.00
H29    H     0.46584   0.54839   0.44172   0.00000  Uiso   1.00
H30    H     0.80722   0.78524   0.00547   0.00000  Uiso   1.00
H31    H     0.20501   0.21070   0.29809   0.00000  Uiso   1.00
H32    H     0.28973   0.39027   0.25696   0.00000  Uiso   1.00
H33    H     0.31787   0.08096   0.42750   0.00000  Uiso   1.00
H34    H     0.00554   0.19328   0.22062   0.00000  Uiso   1.00
H35    H     0.38671   0.53817   0.19438   0.00000  Uiso   1.00
H36    H     0.44600   0.88595   0.55397   0.00000  Uiso   1.00
H37    H     0.78739   0.12281   0.11772   0.00000  Uiso   1.00
O38    O     0.45281   0.48039   0.10886   0.00000  Uiso   1.00
O39    O     0.53059   0.62470   0.58062   0.00000  Uiso   1.00
O40    O     0.66650   0.93544   0.00827   0.00000  Uiso   1.00
N41    N     0.39023   0.25541   0.11418   0.00000  Uiso   1.00
N42    N     0.44568   0.64564   0.45038   0.00000  Uiso   1.00
N43    N     0.82993   0.86705   0.04253   0.00000  Uiso   1.00
N44    N     0.37955   0.43706   0.17458   0.00000  Uiso   1.00
N45    N     0.43501   0.82729   0.51078   0.00000  Uiso   1.00
N46    N     0.81926   0.04869   0.10293   0.00000  Uiso   1.00
C47    C     0.77714   0.40677   0.30299   0.00000  Uiso   1.00
C48    C     0.73364   0.54725   0.31107   0.00000  Uiso   1.00
C49    C     0.69110   0.56418   0.35149   0.00000  Uiso   1.00
C50    C     0.65558   0.70141   0.35198   0.00000  Uiso   1.00
C51    C     0.58694   0.90187   0.37036   0.00000  Uiso   1.00
C52    C     0.71833   0.37920   0.21840   0.00000  Uiso   1.00
C53    C     0.66295   0.25482   0.18092   0.00000  Uiso   1.00
C54    C     0.61456   0.25059   0.10340   0.00000  Uiso   1.00
C55    C     0.52223   0.19011   0.97793   0.00000  Uiso   1.00
C56    C     0.88803   0.44023   0.33081   0.00000  Uiso   1.00
C57    C     0.97534   0.36715   0.38784   0.00000  Uiso   1.00
C58    C     0.06982   0.41428   0.40495   0.00000  Uiso   1.00
C59    C     0.24098   0.44857   0.45401   0.00000  Uiso   1.00
C60    C     0.78969   0.62037   0.23196   0.00000  Uiso   1.00
C61    C     0.74045   0.66327   0.27248   0.00000  Uiso   1.00
C62    C     0.70499   0.80051   0.27291   0.00000  Uiso   1.00
C63    C     0.66241   0.81764   0.31333   0.00000  Uiso   1.00
C64    C     0.72515   0.49521   0.17982   0.00000  Uiso   1.00
C65    C     0.67683   0.49116   0.10234   0.00000  Uiso   1.00
C66    C     0.62138   0.36682   0.06475   0.00000  Uiso   1.00
C67    C     0.89485   0.55626   0.29223   0.00000  Uiso   1.00
C68    C     0.98922   0.60350   0.30925   0.00000  Uiso   1.00
C69    C     0.07665   0.53051   0.36629   0.00000  Uiso   1.00
H70    H     0.77183   0.31643   0.33302   0.00000  Uiso   1.00
H71    H     0.68583   0.47436   0.38134   0.00000  Uiso   1.00
H72    H     0.65770   0.16505   0.21080   0.00000  Uiso   1.00
H73    H     0.97003   0.27738   0.41768   0.00000  Uiso   1.00
H74    H     0.59346   0.70060   0.41787   0.00000  Uiso   1.00
H75    H     0.53416   0.04839   0.05828   0.00000  Uiso   1.00
H76    H     0.19278   0.28524   0.49453   0.00000  Uiso   1.00
H77    H     0.79499   0.71070   0.20191   0.00000  Uiso   1.00
H78    H     0.71027   0.89027   0.24304   0.00000  Uiso   1.00
H79    H     0.68213   0.58096   0.07250   0.00000  Uiso   1.00
H80    H     0.99446   0.69328   0.27938   0.00000  Uiso   1.00
H81    H     0.61329   0.03817   0.30562   0.00000  Uiso   1.00
H82    H     0.55400   0.38595   0.94603   0.00000  Uiso   1.00
H83    H     0.21261   0.62281   0.38228   0.00000  Uiso   1.00
O84    O     0.54719   0.98039   0.39114   0.00000  Uiso   1.00
O85    O     0.46941   0.12470   0.91938   0.00000  Uiso   1.00
O86    O     0.33350   0.43544   0.49173   0.00000  Uiso   1.00
N87    N     0.60977   0.75541   0.38582   0.00000  Uiso   1.00
N88    N     0.55432   0.14564   0.04962   0.00000  Uiso   1.00
N89    N     0.17007   0.36705   0.45747   0.00000  Uiso   1.00
N90    N     0.62045   0.93706   0.32542   0.00000  Uiso   1.00
N91    N     0.56499   0.32729   0.98922   0.00000  Uiso   1.00
N92    N     0.18074   0.54869   0.39707   0.00000  Uiso   1.00
C93    C     0.77714   0.09323   0.80299   0.00000  Uiso   1.00
C94    C     0.73364   0.95275   0.81107   0.00000  Uiso   1.00
C95    C     0.69110   0.93582   0.85149   0.00000  Uiso   1.00
C96    C     0.65558   0.79859   0.85198   0.00000  Uiso   1.00
C97    C     0.58694   0.59813   0.87036   0.00000  Uiso   1.00
C98    C     0.71833   0.12080   0.71840   0.00000  Uiso   1.00
C99    C     0.66295   0.24518   0.68092   0.00000  Uiso   1.00
C100   C     0.61456   0.24941   0.60340   0.00000  Uiso   1.00
C101   C     0.52223   0.30989   0.47793   0.00000  Uiso   1.00
C102   C     0.88803   0.05977   0.83081   0.00000  Uiso   1.00
C103   C     0.97534   0.13285   0.88784   0.00000  Uiso   1.00
C104   C     0.06982   0.08572   0.90495   0.00000  Uiso   1.00
C105   C     0.24098   0.05143   0.95401   0.00000  Uiso   1.00
C106   C     0.78969   0.87963   0.73196   0.00000  Uiso   1.00
C107   C     0.74045   0.83673   0.77248   0.00000  Uiso   1.00
C108   C     0.70499   0.69949   0.77291   0.00000  Uiso   1.00
C109   C     0.66241   0.68236   0.81333   0.00000  Uiso   1.00
C110   C     0.72515   0.00479   0.67982   0.00000  Uiso   1.00
C111   C     0.67683   0.00884   0.60234   0.00000  Uiso   1.00
C112   C     0.62138   0.13318   0.56475   0.00000  Uiso   1.00
C113   C     0.89485   0.94374   0.79223   0.00000  Uiso   1.00
C114   C     0.98922   0.89650   0.80925   0.00000  Uiso   1.00
C115   C     0.07665   0.96949   0.86629   0.00000  Uiso   1.00
H116   H     0.77183   0.18357   0.83302   0.00000  Uiso   1.00
H117   H     0.68583   0.02564   0.88134   0.00000  Uiso   1.00
H118   H     0.65770   0.33495   0.71080   0.00000  Uiso   1.00
H119   H     0.97003   0.22262   0.91768   0.00000  Uiso   1.00
H120   H     0.59346   0.79940   0.91787   0.00000  Uiso   1.00
H121   H     0.53416   0.45161   0.55828   0.00000  Uiso   1.00
H122   H     0.19278   0.21476   0.99453   0.00000  Uiso   1.00
H123   H     0.79499   0.78930   0.70191   0.00000  Uiso   1.00
H124   H     0.71027   0.60973   0.74304   0.00000  Uiso   1.00
H125   H     0.68213   0.91904   0.57250   0.00000  Uiso   1.00
H126   H     0.99446   0.80672   0.77938   0.00000  Uiso   1.00
H127   H     0.61329   0.46183   0.80562   0.00000  Uiso   1.00
H128   H     0.55400   0.11405   0.44603   0.00000  Uiso   1.00
H129   H     0.21261   0.87719   0.88228   0.00000  Uiso   1.00
O130   O     0.54719   0.51961   0.89114   0.00000  Uiso   1.00
O131   O     0.46941   0.37530   0.41938   0.00000  Uiso   1.00
O132   O     0.33350   0.06456   0.99173   0.00000  Uiso   1.00
N133   N     0.60977   0.74459   0.88582   0.00000  Uiso   1.00
N134   N     0.55432   0.35436   0.54962   0.00000  Uiso   1.00
N135   N     0.17007   0.13295   0.95747   0.00000  Uiso   1.00
N136   N     0.62045   0.56294   0.82542   0.00000  Uiso   1.00
N137   N     0.56499   0.17271   0.48922   0.00000  Uiso   1.00
N138   N     0.18074   0.95131   0.89707   0.00000  Uiso   1.00
C139   C     0.22286   0.59323   0.69701   0.00000  Uiso   1.00
C140   C     0.26636   0.45275   0.68893   0.00000  Uiso   1.00
C141   C     0.30890   0.43582   0.64851   0.00000  Uiso   1.00
C142   C     0.34442   0.29859   0.64802   0.00000  Uiso   1.00
C143   C     0.41306   0.09813   0.62964   0.00000  Uiso   1.00
C144   C     0.28167   0.62080   0.78160   0.00000  Uiso   1.00
C145   C     0.33705   0.74518   0.81908   0.00000  Uiso   1.00
C146   C     0.38544   0.74941   0.89660   0.00000  Uiso   1.00
C147   C     0.47777   0.80989   0.02207   0.00000  Uiso   1.00
C148   C     0.11197   0.55977   0.66919   0.00000  Uiso   1.00
C149   C     0.02466   0.63285   0.61216   0.00000  Uiso   1.00
C150   C     0.93018   0.58572   0.59505   0.00000  Uiso   1.00
C151   C     0.75902   0.55143   0.54599   0.00000  Uiso   1.00
C152   C     0.21031   0.37963   0.76804   0.00000  Uiso   1.00
C153   C     0.25955   0.33673   0.72752   0.00000  Uiso   1.00
C154   C     0.29501   0.19949   0.72709   0.00000  Uiso   1.00
C155   C     0.33759   0.18236   0.68667   0.00000  Uiso   1.00
C156   C     0.27485   0.50479   0.82018   0.00000  Uiso   1.00
C157   C     0.32317   0.50884   0.89766   0.00000  Uiso   1.00
C158   C     0.37862   0.63318   0.93525   0.00000  Uiso   1.00
C159   C     0.10515   0.44374   0.70777   0.00000  Uiso   1.00
C160   C     0.01078   0.39650   0.69075   0.00000  Uiso   1.00
C161   C     0.92335   0.46949   0.63371   0.00000  Uiso   1.00
H162   H     0.22817   0.68357   0.66698   0.00000  Uiso   1.00
H163   H     0.31417   0.52564   0.61866   0.00000  Uiso   1.00
H164   H     0.34230   0.83495   0.78920   0.00000  Uiso   1.00
H165   H     0.02997   0.72262   0.58232   0.00000  Uiso   1.00
H166   H     0.40654   0.29940   0.58213   0.00000  Uiso   1.00
H167   H     0.46584   0.95161   0.94172   0.00000  Uiso   1.00
H168   H     0.80722   0.71476   0.50547   0.00000  Uiso   1.00
H169   H     0.20501   0.28930   0.79809   0.00000  Uiso   1.00
H170   H     0.28973   0.10973   0.75696   0.00000  Uiso   1.00
H171   H     0.31787   0.41904   0.92750   0.00000  Uiso   1.00
H172   H     0.00554   0.30672   0.72062   0.00000  Uiso   1.00
H173   H     0.38671   0.96183   0.69438   0.00000  Uiso   1.00
H174   H     0.44600   0.61405   0.05397   0.00000  Uiso   1.00
H175   H     0.78739   0.37719   0.61772   0.00000  Uiso   1.00
O176   O     0.45281   0.01961   0.60886   0.00000  Uiso   1.00
O177   O     0.53059   0.87530   0.08062   0.00000  Uiso   1.00
O178   O     0.66650   0.56456   0.50827   0.00000  Uiso   1.00
N179   N     0.39023   0.24459   0.61418   0.00000  Uiso   1.00
N180   N     0.44568   0.85436   0.95038   0.00000  Uiso   1.00
N181   N     0.82993   0.63295   0.54253   0.00000  Uiso   1.00
N182   N     0.37955   0.06294   0.67458   0.00000  Uiso   1.00
N183   N     0.43501   0.67271   0.01078   0.00000  Uiso   1.00
N184   N     0.81926   0.45131   0.60293   0.00000  Uiso   1.00
