data_job_00521
_audit_creation_date              2018-12-19
_audit_creation_method            'Materials Studio'
_symmetry_space_group_name_H-M    'P1'
_symmetry_Int_Tables_number       1
_symmetry_cell_setting            triclinic
loop_
_symmetry_equiv_pos_as_xyz
  x,y,z
_cell_length_a                    15.8094
_cell_length_b                    16.5001
_cell_length_c                    17.5071
_cell_angle_alpha                 90.0000
_cell_angle_beta                  89.8983
_cell_angle_gamma                 90.0000
loop_
_atom_site_label
_atom_site_type_symbol
_atom_site_fract_x
_atom_site_fract_y
_atom_site_fract_z
_atom_site_U_iso_or_equiv
_atom_site_adp_type
_atom_site_occupancy
C1     C     0.63792   0.42001   0.37266   0.00000  Uiso   1.00
C2     C     0.71953   0.41479   0.41870   0.00000  Uiso   1.00
C3     C     0.72865   0.37718   0.48911   0.00000  Uiso   1.00
C4     C     0.80851   0.37903   0.52193   0.00000  Uiso   1.00
C5     C     0.92484   0.36516   0.59896   0.00000  Uiso   1.00
C6     C     0.62241   0.51001   0.35869   0.00000  Uiso   1.00
C7     C     0.54987   0.55245   0.37863   0.00000  Uiso   1.00
C8     C     0.54797   0.63445   0.36092   0.00000  Uiso   1.00
C9     C     0.51350   0.76840   0.34473   0.00000  Uiso   1.00
C10    C     0.65790   0.38332   0.29475   0.00000  Uiso   1.00
C11    C     0.61517   0.31925   0.26092   0.00000  Uiso   1.00
C12    C     0.64313   0.29460   0.18937   0.00000  Uiso   1.00
C13    C     0.66375   0.23184   0.07391   0.00000  Uiso   1.00
C14    C     0.76353   0.49017   0.30575   0.00000  Uiso   1.00
C15    C     0.78776   0.45290   0.38236   0.00000  Uiso   1.00
C16    C     0.86762   0.45481   0.41508   0.00000  Uiso   1.00
C17    C     0.87686   0.41720   0.48552   0.00000  Uiso   1.00
C18    C     0.69064   0.54812   0.32235   0.00000  Uiso   1.00
C19    C     0.68884   0.63008   0.30460   0.00000  Uiso   1.00
C20    C     0.61632   0.67263   0.32451   0.00000  Uiso   1.00
C21    C     0.72612   0.42143   0.25841   0.00000  Uiso   1.00
C22    C     0.75415   0.39687   0.18689   0.00000  Uiso   1.00
C23    C     0.71148   0.33278   0.15296   0.00000  Uiso   1.00
H24    H     0.58480   0.39034   0.40096   0.00000  Uiso   1.00
H25    H     0.67584   0.34770   0.51722   0.00000  Uiso   1.00
H26    H     0.49708   0.52294   0.40675   0.00000  Uiso   1.00
H27    H     0.56238   0.28977   0.28906   0.00000  Uiso   1.00
H28    H     0.80684   0.31725   0.63010   0.00000  Uiso   1.00
H29    H     0.42992   0.68675   0.39714   0.00000  Uiso   1.00
H30    H     0.56760   0.19507   0.14897   0.00000  Uiso   1.00
H31    H     0.81665   0.51985   0.27746   0.00000  Uiso   1.00
H32    H     0.92041   0.48430   0.38694   0.00000  Uiso   1.00
H33    H     0.74165   0.65955   0.27647   0.00000  Uiso   1.00
H34    H     0.80694   0.42638   0.15879   0.00000  Uiso   1.00
H35    H     0.00535   0.42813   0.52437   0.00000  Uiso   1.00
H36    H     0.62841   0.79763   0.29140   0.00000  Uiso   1.00
H37    H     0.76610   0.30595   0.04324   0.00000  Uiso   1.00
O38    O     0.97016   0.34700   0.65150   0.00000  Uiso   1.00
O39    O     0.47564   0.83176   0.34585   0.00000  Uiso   1.00
O40    O     0.65628   0.18669   0.02027   0.00000  Uiso   1.00
N41    N     0.83933   0.34821   0.59018   0.00000  Uiso   1.00
N42    N     0.48692   0.69367   0.37239   0.00000  Uiso   1.00
N43    N     0.61563   0.23401   0.14037   0.00000  Uiso   1.00
N44    N     0.94614   0.40787   0.53329   0.00000  Uiso   1.00
N45    N     0.59374   0.75333   0.31550   0.00000  Uiso   1.00
N46    N     0.72245   0.29367   0.08347   0.00000  Uiso   1.00
C47    C     0.13792   0.92001   0.37266   0.00000  Uiso   1.00
C48    C     0.21953   0.91479   0.41870   0.00000  Uiso   1.00
C49    C     0.22865   0.87718   0.48911   0.00000  Uiso   1.00
C50    C     0.30851   0.87903   0.52193   0.00000  Uiso   1.00
C51    C     0.42484   0.86516   0.59896   0.00000  Uiso   1.00
C52    C     0.12241   0.01001   0.35869   0.00000  Uiso   1.00
C53    C     0.04987   0.05245   0.37863   0.00000  Uiso   1.00
C54    C     0.04797   0.13445   0.36092   0.00000  Uiso   1.00
C55    C     0.01350   0.26840   0.34473   0.00000  Uiso   1.00
C56    C     0.15790   0.88332   0.29475   0.00000  Uiso   1.00
C57    C     0.11517   0.81925   0.26092   0.00000  Uiso   1.00
C58    C     0.14313   0.79460   0.18937   0.00000  Uiso   1.00
C59    C     0.16375   0.73184   0.07391   0.00000  Uiso   1.00
C60    C     0.26353   0.99017   0.30575   0.00000  Uiso   1.00
C61    C     0.28776   0.95290   0.38236   0.00000  Uiso   1.00
C62    C     0.36762   0.95481   0.41508   0.00000  Uiso   1.00
C63    C     0.37686   0.91720   0.48552   0.00000  Uiso   1.00
C64    C     0.19064   0.04812   0.32235   0.00000  Uiso   1.00
C65    C     0.18884   0.13008   0.30460   0.00000  Uiso   1.00
C66    C     0.11632   0.17263   0.32451   0.00000  Uiso   1.00
C67    C     0.22612   0.92143   0.25841   0.00000  Uiso   1.00
C68    C     0.25415   0.89687   0.18689   0.00000  Uiso   1.00
C69    C     0.21148   0.83278   0.15296   0.00000  Uiso   1.00
H70    H     0.08480   0.89034   0.40096   0.00000  Uiso   1.00
H71    H     0.17584   0.84770   0.51722   0.00000  Uiso   1.00
H72    H     0.99708   0.02294   0.40675   0.00000  Uiso   1.00
H73    H     0.06238   0.78977   0.28906   0.00000  Uiso   1.00
H74    H     0.30684   0.81725   0.63010   0.00000  Uiso   1.00
H75    H     0.92992   0.18675   0.39714   0.00000  Uiso   1.00
H76    H     0.06760   0.69507   0.14897   0.00000  Uiso   1.00
H77    H     0.31665   0.01985   0.27746   0.00000  Uiso   1.00
H78    H     0.42041   0.98430   0.38694   0.00000  Uiso   1.00
H79    H     0.24165   0.15955   0.27647   0.00000  Uiso   1.00
H80    H     0.30694   0.92638   0.15879   0.00000  Uiso   1.00
H81    H     0.50535   0.92813   0.52437   0.00000  Uiso   1.00
H82    H     0.12841   0.29763   0.29140   0.00000  Uiso   1.00
H83    H     0.26610   0.80595   0.04324   0.00000  Uiso   1.00
O84    O     0.47016   0.84700   0.65150   0.00000  Uiso   1.00
O85    O     0.97564   0.33176   0.34585   0.00000  Uiso   1.00
O86    O     0.15628   0.68669   0.02027   0.00000  Uiso   1.00
N87    N     0.33933   0.84821   0.59018   0.00000  Uiso   1.00
N88    N     0.98692   0.19367   0.37239   0.00000  Uiso   1.00
N89    N     0.11563   0.73401   0.14037   0.00000  Uiso   1.00
N90    N     0.44614   0.90787   0.53329   0.00000  Uiso   1.00
N91    N     0.09374   0.25333   0.31550   0.00000  Uiso   1.00
N92    N     0.22245   0.79367   0.08347   0.00000  Uiso   1.00
C93    C     0.36208   0.42001   0.12734   0.00000  Uiso   1.00
C94    C     0.28047   0.41479   0.08130   0.00000  Uiso   1.00
C95    C     0.27135   0.37718   0.01089   0.00000  Uiso   1.00
C96    C     0.19149   0.37903   0.97807   0.00000  Uiso   1.00
C97    C     0.07516   0.36516   0.90104   0.00000  Uiso   1.00
C98    C     0.37759   0.51001   0.14131   0.00000  Uiso   1.00
C99    C     0.45013   0.55245   0.12137   0.00000  Uiso   1.00
C100   C     0.45203   0.63445   0.13908   0.00000  Uiso   1.00
C101   C     0.48650   0.76840   0.15527   0.00000  Uiso   1.00
C102   C     0.34210   0.38332   0.20525   0.00000  Uiso   1.00
C103   C     0.38483   0.31925   0.23908   0.00000  Uiso   1.00
C104   C     0.35687   0.29460   0.31063   0.00000  Uiso   1.00
C105   C     0.33625   0.23184   0.42609   0.00000  Uiso   1.00
C106   C     0.23647   0.49017   0.19425   0.00000  Uiso   1.00
C107   C     0.21224   0.45290   0.11764   0.00000  Uiso   1.00
C108   C     0.13238   0.45481   0.08492   0.00000  Uiso   1.00
C109   C     0.12314   0.41720   0.01448   0.00000  Uiso   1.00
C110   C     0.30936   0.54812   0.17765   0.00000  Uiso   1.00
C111   C     0.31116   0.63008   0.19540   0.00000  Uiso   1.00
C112   C     0.38368   0.67263   0.17549   0.00000  Uiso   1.00
C113   C     0.27388   0.42143   0.24159   0.00000  Uiso   1.00
C114   C     0.24585   0.39687   0.31311   0.00000  Uiso   1.00
C115   C     0.28852   0.33278   0.34704   0.00000  Uiso   1.00
H116   H     0.41520   0.39034   0.09904   0.00000  Uiso   1.00
H117   H     0.32416   0.34770   0.98278   0.00000  Uiso   1.00
H118   H     0.50292   0.52294   0.09325   0.00000  Uiso   1.00
H119   H     0.43762   0.28977   0.21094   0.00000  Uiso   1.00
H120   H     0.19316   0.31725   0.86990   0.00000  Uiso   1.00
H121   H     0.57008   0.68675   0.10286   0.00000  Uiso   1.00
H122   H     0.43240   0.19507   0.35103   0.00000  Uiso   1.00
H123   H     0.18335   0.51985   0.22254   0.00000  Uiso   1.00
H124   H     0.07959   0.48430   0.11306   0.00000  Uiso   1.00
H125   H     0.25835   0.65955   0.22353   0.00000  Uiso   1.00
H126   H     0.19306   0.42638   0.34121   0.00000  Uiso   1.00
H127   H     0.99465   0.42813   0.97563   0.00000  Uiso   1.00
H128   H     0.37159   0.79763   0.20860   0.00000  Uiso   1.00
H129   H     0.23390   0.30595   0.45676   0.00000  Uiso   1.00
O130   O     0.02984   0.34700   0.84850   0.00000  Uiso   1.00
O131   O     0.52436   0.83176   0.15415   0.00000  Uiso   1.00
O132   O     0.34372   0.18669   0.47973   0.00000  Uiso   1.00
N133   N     0.16067   0.34821   0.90982   0.00000  Uiso   1.00
N134   N     0.51308   0.69367   0.12761   0.00000  Uiso   1.00
N135   N     0.38437   0.23401   0.35963   0.00000  Uiso   1.00
N136   N     0.05386   0.40787   0.96671   0.00000  Uiso   1.00
N137   N     0.40626   0.75333   0.18450   0.00000  Uiso   1.00
N138   N     0.27755   0.29367   0.41653   0.00000  Uiso   1.00
C139   C     0.86208   0.92001   0.12734   0.00000  Uiso   1.00
C140   C     0.78047   0.91479   0.08130   0.00000  Uiso   1.00
C141   C     0.77135   0.87718   0.01089   0.00000  Uiso   1.00
C142   C     0.69149   0.87903   0.97807   0.00000  Uiso   1.00
C143   C     0.57516   0.86516   0.90104   0.00000  Uiso   1.00
C144   C     0.87759   0.01001   0.14131   0.00000  Uiso   1.00
C145   C     0.95013   0.05245   0.12137   0.00000  Uiso   1.00
C146   C     0.95203   0.13445   0.13908   0.00000  Uiso   1.00
C147   C     0.98650   0.26840   0.15527   0.00000  Uiso   1.00
C148   C     0.84210   0.88332   0.20525   0.00000  Uiso   1.00
C149   C     0.88483   0.81925   0.23908   0.00000  Uiso   1.00
C150   C     0.85687   0.79460   0.31063   0.00000  Uiso   1.00
C151   C     0.83625   0.73184   0.42609   0.00000  Uiso   1.00
C152   C     0.73647   0.99017   0.19425   0.00000  Uiso   1.00
C153   C     0.71224   0.95290   0.11764   0.00000  Uiso   1.00
C154   C     0.63238   0.95481   0.08492   0.00000  Uiso   1.00
C155   C     0.62314   0.91720   0.01448   0.00000  Uiso   1.00
C156   C     0.80936   0.04812   0.17765   0.00000  Uiso   1.00
C157   C     0.81116   0.13008   0.19540   0.00000  Uiso   1.00
C158   C     0.88368   0.17263   0.17549   0.00000  Uiso   1.00
C159   C     0.77388   0.92143   0.24159   0.00000  Uiso   1.00
C160   C     0.74585   0.89687   0.31311   0.00000  Uiso   1.00
C161   C     0.78852   0.83278   0.34704   0.00000  Uiso   1.00
H162   H     0.91520   0.89034   0.09904   0.00000  Uiso   1.00
H163   H     0.82416   0.84770   0.98278   0.00000  Uiso   1.00
H164   H     0.00292   0.02294   0.09325   0.00000  Uiso   1.00
H165   H     0.93762   0.78977   0.21094   0.00000  Uiso   1.00
H166   H     0.69316   0.81725   0.86990   0.00000  Uiso   1.00
H167   H     0.07008   0.18675   0.10286   0.00000  Uiso   1.00
H168   H     0.93240   0.69507   0.35103   0.00000  Uiso   1.00
H169   H     0.68335   0.01985   0.22254   0.00000  Uiso   1.00
H170   H     0.57959   0.98430   0.11306   0.00000  Uiso   1.00
H171   H     0.75835   0.15955   0.22353   0.00000  Uiso   1.00
H172   H     0.69306   0.92638   0.34121   0.00000  Uiso   1.00
H173   H     0.49465   0.92813   0.97563   0.00000  Uiso   1.00
H174   H     0.87159   0.29763   0.20860   0.00000  Uiso   1.00
H175   H     0.73390   0.80595   0.45676   0.00000  Uiso   1.00
O176   O     0.52984   0.84700   0.84850   0.00000  Uiso   1.00
O177   O     0.02436   0.33176   0.15415   0.00000  Uiso   1.00
O178   O     0.84372   0.68669   0.47973   0.00000  Uiso   1.00
N179   N     0.66067   0.84821   0.90982   0.00000  Uiso   1.00
N180   N     0.01308   0.19367   0.12761   0.00000  Uiso   1.00
N181   N     0.88437   0.73401   0.35963   0.00000  Uiso   1.00
N182   N     0.55386   0.90787   0.96671   0.00000  Uiso   1.00
N183   N     0.90626   0.25333   0.18450   0.00000  Uiso   1.00
N184   N     0.77755   0.79367   0.41653   0.00000  Uiso   1.00
C185   C     0.36208   0.57999   0.62734   0.00000  Uiso   1.00
C186   C     0.28047   0.58521   0.58130   0.00000  Uiso   1.00
C187   C     0.27135   0.62282   0.51089   0.00000  Uiso   1.00
C188   C     0.19149   0.62097   0.47807   0.00000  Uiso   1.00
C189   C     0.07516   0.63484   0.40104   0.00000  Uiso   1.00
C190   C     0.37759   0.48999   0.64131   0.00000  Uiso   1.00
C191   C     0.45013   0.44755   0.62137   0.00000  Uiso   1.00
C192   C     0.45203   0.36555   0.63908   0.00000  Uiso   1.00
C193   C     0.48650   0.23160   0.65527   0.00000  Uiso   1.00
C194   C     0.34210   0.61668   0.70525   0.00000  Uiso   1.00
C195   C     0.38483   0.68075   0.73908   0.00000  Uiso   1.00
C196   C     0.35687   0.70540   0.81063   0.00000  Uiso   1.00
C197   C     0.33625   0.76816   0.92609   0.00000  Uiso   1.00
C198   C     0.23647   0.50983   0.69425   0.00000  Uiso   1.00
C199   C     0.21224   0.54710   0.61764   0.00000  Uiso   1.00
C200   C     0.13238   0.54519   0.58492   0.00000  Uiso   1.00
C201   C     0.12314   0.58280   0.51448   0.00000  Uiso   1.00
C202   C     0.30936   0.45188   0.67765   0.00000  Uiso   1.00
C203   C     0.31116   0.36992   0.69540   0.00000  Uiso   1.00
C204   C     0.38368   0.32737   0.67549   0.00000  Uiso   1.00
C205   C     0.27388   0.57857   0.74159   0.00000  Uiso   1.00
C206   C     0.24585   0.60313   0.81311   0.00000  Uiso   1.00
C207   C     0.28852   0.66722   0.84704   0.00000  Uiso   1.00
H208   H     0.41520   0.60966   0.59904   0.00000  Uiso   1.00
H209   H     0.32416   0.65230   0.48278   0.00000  Uiso   1.00
H210   H     0.50292   0.47706   0.59325   0.00000  Uiso   1.00
H211   H     0.43762   0.71023   0.71094   0.00000  Uiso   1.00
H212   H     0.19316   0.68275   0.36990   0.00000  Uiso   1.00
H213   H     0.57008   0.31325   0.60286   0.00000  Uiso   1.00
H214   H     0.43240   0.80493   0.85103   0.00000  Uiso   1.00
H215   H     0.18335   0.48015   0.72254   0.00000  Uiso   1.00
H216   H     0.07959   0.51570   0.61306   0.00000  Uiso   1.00
H217   H     0.25835   0.34045   0.72353   0.00000  Uiso   1.00
H218   H     0.19306   0.57362   0.84121   0.00000  Uiso   1.00
H219   H     0.99465   0.57187   0.47563   0.00000  Uiso   1.00
H220   H     0.37159   0.20237   0.70860   0.00000  Uiso   1.00
H221   H     0.23390   0.69405   0.95676   0.00000  Uiso   1.00
O222   O     0.02984   0.65300   0.34850   0.00000  Uiso   1.00
O223   O     0.52436   0.16824   0.65415   0.00000  Uiso   1.00
O224   O     0.34372   0.81331   0.97973   0.00000  Uiso   1.00
N225   N     0.16067   0.65179   0.40982   0.00000  Uiso   1.00
N226   N     0.51308   0.30633   0.62761   0.00000  Uiso   1.00
N227   N     0.38437   0.76599   0.85963   0.00000  Uiso   1.00
N228   N     0.05386   0.59213   0.46671   0.00000  Uiso   1.00
N229   N     0.40626   0.24667   0.68450   0.00000  Uiso   1.00
N230   N     0.27755   0.70633   0.91653   0.00000  Uiso   1.00
C231   C     0.86208   0.07999   0.62734   0.00000  Uiso   1.00
C232   C     0.78047   0.08521   0.58130   0.00000  Uiso   1.00
C233   C     0.77135   0.12282   0.51089   0.00000  Uiso   1.00
C234   C     0.69149   0.12097   0.47807   0.00000  Uiso   1.00
C235   C     0.57516   0.13484   0.40104   0.00000  Uiso   1.00
C236   C     0.87759   0.98999   0.64131   0.00000  Uiso   1.00
C237   C     0.95013   0.94755   0.62137   0.00000  Uiso   1.00
C238   C     0.95203   0.86555   0.63908   0.00000  Uiso   1.00
C239   C     0.98650   0.73160   0.65527   0.00000  Uiso   1.00
C240   C     0.84210   0.11668   0.70525   0.00000  Uiso   1.00
C241   C     0.88483   0.18075   0.73908   0.00000  Uiso   1.00
C242   C     0.85687   0.20540   0.81063   0.00000  Uiso   1.00
C243   C     0.83625   0.26816   0.92609   0.00000  Uiso   1.00
C244   C     0.73647   0.00983   0.69425   0.00000  Uiso   1.00
C245   C     0.71224   0.04710   0.61764   0.00000  Uiso   1.00
C246   C     0.63238   0.04519   0.58492   0.00000  Uiso   1.00
C247   C     0.62314   0.08280   0.51448   0.00000  Uiso   1.00
C248   C     0.80936   0.95188   0.67765   0.00000  Uiso   1.00
C249   C     0.81116   0.86992   0.69540   0.00000  Uiso   1.00
C250   C     0.88368   0.82737   0.67549   0.00000  Uiso   1.00
C251   C     0.77388   0.07857   0.74159   0.00000  Uiso   1.00
C252   C     0.74585   0.10313   0.81311   0.00000  Uiso   1.00
C253   C     0.78852   0.16722   0.84704   0.00000  Uiso   1.00
H254   H     0.91520   0.10966   0.59904   0.00000  Uiso   1.00
H255   H     0.82416   0.15230   0.48278   0.00000  Uiso   1.00
H256   H     0.00292   0.97706   0.59325   0.00000  Uiso   1.00
H257   H     0.93762   0.21023   0.71094   0.00000  Uiso   1.00
H258   H     0.69316   0.18275   0.36990   0.00000  Uiso   1.00
H259   H     0.07008   0.81325   0.60286   0.00000  Uiso   1.00
H260   H     0.93240   0.30493   0.85103   0.00000  Uiso   1.00
H261   H     0.68335   0.98015   0.72254   0.00000  Uiso   1.00
H262   H     0.57959   0.01570   0.61306   0.00000  Uiso   1.00
H263   H     0.75835   0.84045   0.72353   0.00000  Uiso   1.00
H264   H     0.69306   0.07362   0.84121   0.00000  Uiso   1.00
H265   H     0.49465   0.07187   0.47563   0.00000  Uiso   1.00
H266   H     0.87159   0.70237   0.70860   0.00000  Uiso   1.00
H267   H     0.73390   0.19405   0.95676   0.00000  Uiso   1.00
O268   O     0.52984   0.15300   0.34850   0.00000  Uiso   1.00
O269   O     0.02436   0.66824   0.65415   0.00000  Uiso   1.00
O270   O     0.84372   0.31331   0.97973   0.00000  Uiso   1.00
N271   N     0.66067   0.15179   0.40982   0.00000  Uiso   1.00
N272   N     0.01308   0.80633   0.62761   0.00000  Uiso   1.00
N273   N     0.88437   0.26599   0.85963   0.00000  Uiso   1.00
N274   N     0.55386   0.09213   0.46671   0.00000  Uiso   1.00
N275   N     0.90626   0.74667   0.68450   0.00000  Uiso   1.00
N276   N     0.77755   0.20633   0.91653   0.00000  Uiso   1.00
C277   C     0.63792   0.57999   0.87266   0.00000  Uiso   1.00
C278   C     0.71953   0.58521   0.91870   0.00000  Uiso   1.00
C279   C     0.72865   0.62282   0.98911   0.00000  Uiso   1.00
C280   C     0.80851   0.62097   0.02193   0.00000  Uiso   1.00
C281   C     0.92484   0.63484   0.09896   0.00000  Uiso   1.00
C282   C     0.62241   0.48999   0.85869   0.00000  Uiso   1.00
C283   C     0.54987   0.44755   0.87863   0.00000  Uiso   1.00
C284   C     0.54797   0.36555   0.86092   0.00000  Uiso   1.00
C285   C     0.51350   0.23160   0.84473   0.00000  Uiso   1.00
C286   C     0.65790   0.61668   0.79475   0.00000  Uiso   1.00
C287   C     0.61517   0.68075   0.76092   0.00000  Uiso   1.00
C288   C     0.64313   0.70540   0.68937   0.00000  Uiso   1.00
C289   C     0.66375   0.76816   0.57391   0.00000  Uiso   1.00
C290   C     0.76353   0.50983   0.80575   0.00000  Uiso   1.00
C291   C     0.78776   0.54710   0.88236   0.00000  Uiso   1.00
C292   C     0.86762   0.54519   0.91508   0.00000  Uiso   1.00
C293   C     0.87686   0.58280   0.98552   0.00000  Uiso   1.00
C294   C     0.69064   0.45188   0.82235   0.00000  Uiso   1.00
C295   C     0.68884   0.36992   0.80460   0.00000  Uiso   1.00
C296   C     0.61632   0.32737   0.82451   0.00000  Uiso   1.00
C297   C     0.72612   0.57857   0.75841   0.00000  Uiso   1.00
C298   C     0.75415   0.60313   0.68689   0.00000  Uiso   1.00
C299   C     0.71148   0.66722   0.65296   0.00000  Uiso   1.00
H300   H     0.58480   0.60966   0.90096   0.00000  Uiso   1.00
H301   H     0.67584   0.65230   0.01722   0.00000  Uiso   1.00
H302   H     0.49708   0.47706   0.90675   0.00000  Uiso   1.00
H303   H     0.56238   0.71023   0.78906   0.00000  Uiso   1.00
H304   H     0.80684   0.68275   0.13010   0.00000  Uiso   1.00
H305   H     0.42992   0.31325   0.89714   0.00000  Uiso   1.00
H306   H     0.56760   0.80493   0.64897   0.00000  Uiso   1.00
H307   H     0.81665   0.48015   0.77746   0.00000  Uiso   1.00
H308   H     0.92041   0.51570   0.88694   0.00000  Uiso   1.00
H309   H     0.74165   0.34045   0.77647   0.00000  Uiso   1.00
H310   H     0.80694   0.57362   0.65879   0.00000  Uiso   1.00
H311   H     0.00535   0.57187   0.02437   0.00000  Uiso   1.00
H312   H     0.62841   0.20237   0.79140   0.00000  Uiso   1.00
H313   H     0.76610   0.69405   0.54324   0.00000  Uiso   1.00
O314   O     0.97016   0.65300   0.15150   0.00000  Uiso   1.00
O315   O     0.47564   0.16824   0.84585   0.00000  Uiso   1.00
O316   O     0.65628   0.81331   0.52027   0.00000  Uiso   1.00
N317   N     0.83933   0.65179   0.09018   0.00000  Uiso   1.00
N318   N     0.48692   0.30633   0.87239   0.00000  Uiso   1.00
N319   N     0.61563   0.76599   0.64037   0.00000  Uiso   1.00
N320   N     0.94614   0.59213   0.03329   0.00000  Uiso   1.00
N321   N     0.59374   0.24667   0.81550   0.00000  Uiso   1.00
N322   N     0.72245   0.70633   0.58347   0.00000  Uiso   1.00
C323   C     0.13792   0.07999   0.87266   0.00000  Uiso   1.00
C324   C     0.21953   0.08521   0.91870   0.00000  Uiso   1.00
C325   C     0.22865   0.12282   0.98911   0.00000  Uiso   1.00
C326   C     0.30851   0.12097   0.02193   0.00000  Uiso   1.00
C327   C     0.42484   0.13484   0.09896   0.00000  Uiso   1.00
C328   C     0.12241   0.98999   0.85869   0.00000  Uiso   1.00
C329   C     0.04987   0.94755   0.87863   0.00000  Uiso   1.00
C330   C     0.04797   0.86555   0.86092   0.00000  Uiso   1.00
C331   C     0.01350   0.73160   0.84473   0.00000  Uiso   1.00
C332   C     0.15790   0.11668   0.79475   0.00000  Uiso   1.00
C333   C     0.11517   0.18075   0.76092   0.00000  Uiso   1.00
C334   C     0.14313   0.20540   0.68937   0.00000  Uiso   1.00
C335   C     0.16375   0.26816   0.57391   0.00000  Uiso   1.00
C336   C     0.26353   0.00983   0.80575   0.00000  Uiso   1.00
C337   C     0.28776   0.04710   0.88236   0.00000  Uiso   1.00
C338   C     0.36762   0.04519   0.91508   0.00000  Uiso   1.00
C339   C     0.37686   0.08280   0.98552   0.00000  Uiso   1.00
C340   C     0.19064   0.95188   0.82235   0.00000  Uiso   1.00
C341   C     0.18884   0.86992   0.80460   0.00000  Uiso   1.00
C342   C     0.11632   0.82737   0.82451   0.00000  Uiso   1.00
C343   C     0.22612   0.07857   0.75841   0.00000  Uiso   1.00
C344   C     0.25415   0.10313   0.68689   0.00000  Uiso   1.00
C345   C     0.21148   0.16722   0.65296   0.00000  Uiso   1.00
H346   H     0.08480   0.10966   0.90096   0.00000  Uiso   1.00
H347   H     0.17584   0.15230   0.01722   0.00000  Uiso   1.00
H348   H     0.99708   0.97706   0.90675   0.00000  Uiso   1.00
H349   H     0.06238   0.21023   0.78906   0.00000  Uiso   1.00
H350   H     0.30684   0.18275   0.13010   0.00000  Uiso   1.00
H351   H     0.92992   0.81325   0.89714   0.00000  Uiso   1.00
H352   H     0.06760   0.30493   0.64897   0.00000  Uiso   1.00
H353   H     0.31665   0.98015   0.77746   0.00000  Uiso   1.00
H354   H     0.42041   0.01570   0.88694   0.00000  Uiso   1.00
H355   H     0.24165   0.84045   0.77647   0.00000  Uiso   1.00
H356   H     0.30694   0.07362   0.65879   0.00000  Uiso   1.00
H357   H     0.50535   0.07187   0.02437   0.00000  Uiso   1.00
H358   H     0.12841   0.70237   0.79140   0.00000  Uiso   1.00
H359   H     0.26610   0.19405   0.54324   0.00000  Uiso   1.00
O360   O     0.47016   0.15300   0.15150   0.00000  Uiso   1.00
O361   O     0.97564   0.66824   0.84585   0.00000  Uiso   1.00
O362   O     0.15628   0.31331   0.52027   0.00000  Uiso   1.00
N363   N     0.33933   0.15179   0.09018   0.00000  Uiso   1.00
N364   N     0.98692   0.80633   0.87239   0.00000  Uiso   1.00
N365   N     0.11563   0.26599   0.64037   0.00000  Uiso   1.00
N366   N     0.44614   0.09213   0.03329   0.00000  Uiso   1.00
N367   N     0.09374   0.74667   0.81550   0.00000  Uiso   1.00
N368   N     0.22245   0.20633   0.58347   0.00000  Uiso   1.00
