data_job_06303
_audit_creation_date              2018-12-19
_audit_creation_method            'Materials Studio'
_symmetry_space_group_name_H-M    'P1'
_symmetry_Int_Tables_number       1
_symmetry_cell_setting            triclinic
loop_
_symmetry_equiv_pos_as_xyz
  x,y,z
_cell_length_a                    15.2124
_cell_length_b                    15.1067
_cell_length_c                    15.0395
_cell_angle_alpha                 94.9190
_cell_angle_beta                  94.9096
_cell_angle_gamma                 94.9969
loop_
_atom_site_label
_atom_site_type_symbol
_atom_site_fract_x
_atom_site_fract_y
_atom_site_fract_z
_atom_site_U_iso_or_equiv
_atom_site_adp_type
_atom_site_occupancy
C1     C     0.21109   0.52568   0.71114   0.00000  Uiso   1.00
C2     C     0.28011   0.59585   0.76112   0.00000  Uiso   1.00
C3     C     0.36883   0.60773   0.74574   0.00000  Uiso   1.00
C4     C     0.42119   0.67562   0.79858   0.00000  Uiso   1.00
C5     C     0.53372   0.77633   0.86621   0.00000  Uiso   1.00
C6     C     0.17203   0.47258   0.78260   0.00000  Uiso   1.00
C7     C     0.16989   0.38082   0.78527   0.00000  Uiso   1.00
C8     C     0.13126   0.34496   0.85620   0.00000  Uiso   1.00
C9     C     0.07595   0.25429   0.95713   0.00000  Uiso   1.00
C10    C     0.13671   0.57675   0.67276   0.00000  Uiso   1.00
C11    C     0.10485   0.57256   0.58308   0.00000  Uiso   1.00
C12    C     0.03646   0.62439   0.56154   0.00000  Uiso   1.00
C13    C     0.92631   0.69546   0.49193   0.00000  Uiso   1.00
C14    C     0.14628   0.62514   0.83234   0.00000  Uiso   1.00
C15    C     0.24491   0.64987   0.82695   0.00000  Uiso   1.00
C16    C     0.29714   0.71777   0.87983   0.00000  Uiso   1.00
C17    C     0.38593   0.72974   0.86453   0.00000  Uiso   1.00
C18    C     0.13684   0.52660   0.84843   0.00000  Uiso   1.00
C19    C     0.09819   0.49086   0.91936   0.00000  Uiso   1.00
C20    C     0.09599   0.39907   0.92215   0.00000  Uiso   1.00
C21    C     0.10151   0.63078   0.73859   0.00000  Uiso   1.00
C22    C     0.03316   0.68261   0.71718   0.00000  Uiso   1.00
C23    C     0.00120   0.67850   0.62749   0.00000  Uiso   1.00
H24    H     0.23849   0.48361   0.65989   0.00000  Uiso   1.00
H25    H     0.39605   0.56590   0.69479   0.00000  Uiso   1.00
H26    H     0.19712   0.33904   0.73432   0.00000  Uiso   1.00
H27    H     0.13210   0.53075   0.53216   0.00000  Uiso   1.00
H28    H     0.55522   0.68093   0.76254   0.00000  Uiso   1.00
H29    H     0.13575   0.20257   0.84586   0.00000  Uiso   1.00
H30    H     0.99863   0.60684   0.41958   0.00000  Uiso   1.00
H31    H     0.11888   0.66719   0.88359   0.00000  Uiso   1.00
H32    H     0.26988   0.75956   0.93077   0.00000  Uiso   1.00
H33    H     0.07096   0.53269   0.97029   0.00000  Uiso   1.00
H34    H     0.00593   0.72441   0.76814   0.00000  Uiso   1.00
H35    H     0.45282   0.83811   0.95407   0.00000  Uiso   1.00
H36    H     0.03335   0.35974   0.03739   0.00000  Uiso   1.00
H37    H     0.89623   0.76402   0.61111   0.00000  Uiso   1.00
O38    O     0.60552   0.81695   0.88533   0.00000  Uiso   1.00
O39    O     0.05518   0.18935   0.99463   0.00000  Uiso   1.00
O40    O     0.87528   0.71975   0.43535   0.00000  Uiso   1.00
N41    N     0.51040   0.70526   0.80113   0.00000  Uiso   1.00
N42    N     0.11823   0.25802   0.87904   0.00000  Uiso   1.00
N43    N     0.99001   0.63596   0.48050   0.00000  Uiso   1.00
N44    N     0.45530   0.78983   0.90419   0.00000  Uiso   1.00
N45    N     0.06313   0.34260   0.98210   0.00000  Uiso   1.00
N46    N     0.93491   0.72054   0.58356   0.00000  Uiso   1.00
C47    C     0.71086   0.21119   0.52562   0.00000  Uiso   1.00
C48    C     0.76045   0.28062   0.59603   0.00000  Uiso   1.00
C49    C     0.74543   0.36998   0.60795   0.00000  Uiso   1.00
C50    C     0.79782   0.42263   0.67607   0.00000  Uiso   1.00
C51    C     0.86496   0.53586   0.77712   0.00000  Uiso   1.00
C52    C     0.78139   0.17187   0.47222   0.00000  Uiso   1.00
C53    C     0.78395   0.16978   0.38005   0.00000  Uiso   1.00
C54    C     0.85397   0.13087   0.34396   0.00000  Uiso   1.00
C55    C     0.95356   0.07519   0.25280   0.00000  Uiso   1.00
C56    C     0.67283   0.13627   0.57699   0.00000  Uiso   1.00
C57    C     0.58412   0.10422   0.57289   0.00000  Uiso   1.00
C58    C     0.56274   0.03531   0.62499   0.00000  Uiso   1.00
C59    C     0.49378   0.92436   0.69649   0.00000  Uiso   1.00
C60    C     0.83063   0.14579   0.62541   0.00000  Uiso   1.00
C61    C     0.82551   0.24510   0.65023   0.00000  Uiso   1.00
C62    C     0.87793   0.29763   0.71836   0.00000  Uiso   1.00
C63    C     0.86299   0.38705   0.73037   0.00000  Uiso   1.00
C64    C     0.84644   0.13635   0.52642   0.00000  Uiso   1.00
C65    C     0.91646   0.09742   0.49046   0.00000  Uiso   1.00
C66    C     0.91913   0.09528   0.39826   0.00000  Uiso   1.00
C67    C     0.73788   0.10074   0.63120   0.00000  Uiso   1.00
C68    C     0.71663   0.03187   0.68331   0.00000  Uiso   1.00
C69    C     0.62791   0.99973   0.67929   0.00000  Uiso   1.00
H70    H     0.66022   0.23884   0.48342   0.00000  Uiso   1.00
H71    H     0.69509   0.39745   0.56598   0.00000  Uiso   1.00
H72    H     0.73360   0.19727   0.33812   0.00000  Uiso   1.00
H73    H     0.53380   0.13172   0.53094   0.00000  Uiso   1.00
H74    H     0.76245   0.55763   0.68140   0.00000  Uiso   1.00
H75    H     0.84364   0.13551   0.20094   0.00000  Uiso   1.00
H76    H     0.42232   0.99730   0.60753   0.00000  Uiso   1.00
H77    H     0.88127   0.11814   0.66761   0.00000  Uiso   1.00
H78    H     0.92827   0.27012   0.76029   0.00000  Uiso   1.00
H79    H     0.96678   0.06994   0.53243   0.00000  Uiso   1.00
H80    H     0.76698   0.00439   0.72524   0.00000  Uiso   1.00
H81    H     0.95171   0.45429   0.83910   0.00000  Uiso   1.00
H82    H     0.03290   0.03216   0.35865   0.00000  Uiso   1.00
H83    H     0.61159   0.89395   0.76524   0.00000  Uiso   1.00
O84    O     0.88402   0.60813   0.81787   0.00000  Uiso   1.00
O85    O     0.99053   0.05430   0.18753   0.00000  Uiso   1.00
O86    O     0.43778   0.87298   0.72097   0.00000  Uiso   1.00
N87    N     0.80053   0.51245   0.70581   0.00000  Uiso   1.00
N88    N     0.87645   0.11780   0.25661   0.00000  Uiso   1.00
N89    N     0.48256   0.98857   0.63672   0.00000  Uiso   1.00
N90    N     0.90237   0.45684   0.79067   0.00000  Uiso   1.00
N91    N     0.97829   0.06219   0.34147   0.00000  Uiso   1.00
N92    N     0.58440   0.93296   0.72158   0.00000  Uiso   1.00
C93    C     0.52563   0.71098   0.21122   0.00000  Uiso   1.00
C94    C     0.59537   0.76083   0.28087   0.00000  Uiso   1.00
C95    C     0.60720   0.74563   0.37062   0.00000  Uiso   1.00
C96    C     0.67468   0.79832   0.42342   0.00000  Uiso   1.00
C97    C     0.77478   0.86580   0.53701   0.00000  Uiso   1.00
C98    C     0.47294   0.78206   0.17176   0.00000  Uiso   1.00
C99    C     0.38183   0.78469   0.16976   0.00000  Uiso   1.00
C100   C     0.34626   0.85525   0.13069   0.00000  Uiso   1.00
C101   C     0.25628   0.95564   0.07482   0.00000  Uiso   1.00
C102   C     0.57628   0.67271   0.13592   0.00000  Uiso   1.00
C103   C     0.57203   0.58339   0.10376   0.00000  Uiso   1.00
C104   C     0.62344   0.56189   0.03450   0.00000  Uiso   1.00
C105   C     0.69390   0.49250   0.92299   0.00000  Uiso   1.00
C106   C     0.62444   0.83160   0.14538   0.00000  Uiso   1.00
C107   C     0.64904   0.82635   0.24511   0.00000  Uiso   1.00
C108   C     0.71653   0.87908   0.29778   0.00000  Uiso   1.00
C109   C     0.72845   0.86395   0.38759   0.00000  Uiso   1.00
C110   C     0.52661   0.84758   0.13600   0.00000  Uiso   1.00
C111   C     0.49116   0.91814   0.09691   0.00000  Uiso   1.00
C112   C     0.40003   0.92088   0.09486   0.00000  Uiso   1.00
C113   C     0.62995   0.73822   0.10015   0.00000  Uiso   1.00
C114   C     0.68137   0.71685   0.03092   0.00000  Uiso   1.00
C115   C     0.67721   0.62752   0.99867   0.00000  Uiso   1.00
H116   H     0.48384   0.65998   0.23906   0.00000  Uiso   1.00
H117   H     0.56564   0.69492   0.39827   0.00000  Uiso   1.00
H118   H     0.34032   0.73398   0.19743   0.00000  Uiso   1.00
H119   H     0.53049   0.53272   0.13145   0.00000  Uiso   1.00
H120   H     0.67998   0.76258   0.55903   0.00000  Uiso   1.00
H121   H     0.20487   0.84491   0.13551   0.00000  Uiso   1.00
H122   H     0.60588   0.42051   0.99638   0.00000  Uiso   1.00
H123   H     0.66623   0.88261   0.11754   0.00000  Uiso   1.00
H124   H     0.75805   0.92977   0.27008   0.00000  Uiso   1.00
H125   H     0.53272   0.96883   0.06924   0.00000  Uiso   1.00
H126   H     0.72290   0.76757   0.00326   0.00000  Uiso   1.00
H127   H     0.83615   0.95320   0.45499   0.00000  Uiso   1.00
H128   H     0.36103   0.03553   0.03146   0.00000  Uiso   1.00
H129   H     0.76205   0.61113   0.89234   0.00000  Uiso   1.00
O130   O     0.81516   0.88492   0.60956   0.00000  Uiso   1.00
O131   O     0.19183   0.99292   0.05390   0.00000  Uiso   1.00
O132   O     0.71795   0.43612   0.87137   0.00000  Uiso   1.00
N133   N     0.70415   0.80096   0.51360   0.00000  Uiso   1.00
N134   N     0.25995   0.87794   0.11765   0.00000  Uiso   1.00
N135   N     0.63484   0.48117   0.98756   0.00000  Uiso   1.00
N136   N     0.78818   0.90353   0.45762   0.00000  Uiso   1.00
N137   N     0.34398   0.98051   0.06167   0.00000  Uiso   1.00
N138   N     0.71887   0.58373   0.93157   0.00000  Uiso   1.00
C139   C     0.78891   0.47432   0.28886   0.00000  Uiso   1.00
C140   C     0.71989   0.40415   0.23888   0.00000  Uiso   1.00
C141   C     0.63117   0.39227   0.25426   0.00000  Uiso   1.00
C142   C     0.57881   0.32438   0.20142   0.00000  Uiso   1.00
C143   C     0.46628   0.22367   0.13379   0.00000  Uiso   1.00
C144   C     0.82797   0.52742   0.21740   0.00000  Uiso   1.00
C145   C     0.83011   0.61918   0.21473   0.00000  Uiso   1.00
C146   C     0.86874   0.65504   0.14380   0.00000  Uiso   1.00
C147   C     0.92405   0.74571   0.04287   0.00000  Uiso   1.00
C148   C     0.86329   0.42325   0.32724   0.00000  Uiso   1.00
C149   C     0.89515   0.42744   0.41692   0.00000  Uiso   1.00
C150   C     0.96354   0.37561   0.43846   0.00000  Uiso   1.00
C151   C     0.07369   0.30454   0.50807   0.00000  Uiso   1.00
C152   C     0.85372   0.37486   0.16766   0.00000  Uiso   1.00
C153   C     0.75509   0.35013   0.17305   0.00000  Uiso   1.00
C154   C     0.70286   0.28223   0.12017   0.00000  Uiso   1.00
C155   C     0.61407   0.27026   0.13547   0.00000  Uiso   1.00
C156   C     0.86316   0.47340   0.15157   0.00000  Uiso   1.00
C157   C     0.90181   0.50914   0.08064   0.00000  Uiso   1.00
C158   C     0.90401   0.60093   0.07785   0.00000  Uiso   1.00
C159   C     0.89849   0.36922   0.26141   0.00000  Uiso   1.00
C160   C     0.96684   0.31739   0.28282   0.00000  Uiso   1.00
C161   C     0.99880   0.32150   0.37251   0.00000  Uiso   1.00
H162   H     0.76151   0.51639   0.34011   0.00000  Uiso   1.00
H163   H     0.60395   0.43410   0.30521   0.00000  Uiso   1.00
H164   H     0.80288   0.66097   0.26568   0.00000  Uiso   1.00
H165   H     0.86790   0.46925   0.46784   0.00000  Uiso   1.00
H166   H     0.44478   0.31907   0.23746   0.00000  Uiso   1.00
H167   H     0.86425   0.79743   0.15414   0.00000  Uiso   1.00
H168   H     0.00137   0.39316   0.58042   0.00000  Uiso   1.00
H169   H     0.88112   0.33281   0.11641   0.00000  Uiso   1.00
H170   H     0.73012   0.24044   0.06923   0.00000  Uiso   1.00
H171   H     0.92904   0.46731   0.02971   0.00000  Uiso   1.00
H172   H     0.99406   0.27559   0.23186   0.00000  Uiso   1.00
H173   H     0.54718   0.16189   0.04593   0.00000  Uiso   1.00
H174   H     0.96665   0.64026   0.96261   0.00000  Uiso   1.00
H175   H     0.10377   0.23598   0.38889   0.00000  Uiso   1.00
O176   O     0.39448   0.18305   0.11467   0.00000  Uiso   1.00
O177   O     0.94482   0.81065   0.00537   0.00000  Uiso   1.00
O178   O     0.12472   0.28025   0.56465   0.00000  Uiso   1.00
N179   N     0.48960   0.29474   0.19887   0.00000  Uiso   1.00
N180   N     0.88177   0.74198   0.12096   0.00000  Uiso   1.00
N181   N     0.00999   0.36404   0.51950   0.00000  Uiso   1.00
N182   N     0.54471   0.21017   0.09581   0.00000  Uiso   1.00
N183   N     0.93687   0.65740   0.01790   0.00000  Uiso   1.00
N184   N     0.06509   0.27947   0.41644   0.00000  Uiso   1.00
C185   C     0.28914   0.78881   0.47438   0.00000  Uiso   1.00
C186   C     0.23955   0.71938   0.40397   0.00000  Uiso   1.00
C187   C     0.25457   0.63002   0.39205   0.00000  Uiso   1.00
C188   C     0.20218   0.57737   0.32393   0.00000  Uiso   1.00
C189   C     0.13504   0.46414   0.22288   0.00000  Uiso   1.00
C190   C     0.21861   0.82813   0.52778   0.00000  Uiso   1.00
C191   C     0.21605   0.83022   0.61995   0.00000  Uiso   1.00
C192   C     0.14603   0.86913   0.65604   0.00000  Uiso   1.00
C193   C     0.04644   0.92481   0.74720   0.00000  Uiso   1.00
C194   C     0.32717   0.86373   0.42301   0.00000  Uiso   1.00
C195   C     0.41588   0.89578   0.42711   0.00000  Uiso   1.00
C196   C     0.43726   0.96469   0.37501   0.00000  Uiso   1.00
C197   C     0.50621   0.07564   0.30351   0.00000  Uiso   1.00
C198   C     0.16937   0.85421   0.37459   0.00000  Uiso   1.00
C199   C     0.17449   0.75490   0.34977   0.00000  Uiso   1.00
C200   C     0.12207   0.70237   0.28165   0.00000  Uiso   1.00
C201   C     0.13701   0.61295   0.26963   0.00000  Uiso   1.00
C202   C     0.15356   0.86365   0.47358   0.00000  Uiso   1.00
C203   C     0.08354   0.90258   0.50954   0.00000  Uiso   1.00
C204   C     0.08087   0.90472   0.60174   0.00000  Uiso   1.00
C205   C     0.26212   0.89926   0.36880   0.00000  Uiso   1.00
C206   C     0.28337   0.96813   0.31669   0.00000  Uiso   1.00
C207   C     0.37209   0.00027   0.32071   0.00000  Uiso   1.00
H208   H     0.33978   0.76116   0.51658   0.00000  Uiso   1.00
H209   H     0.30491   0.60255   0.43402   0.00000  Uiso   1.00
H210   H     0.26640   0.80274   0.66188   0.00000  Uiso   1.00
H211   H     0.46620   0.86828   0.46906   0.00000  Uiso   1.00
H212   H     0.23755   0.44237   0.31860   0.00000  Uiso   1.00
H213   H     0.15636   0.86449   0.79906   0.00000  Uiso   1.00
H214   H     0.57768   0.00270   0.39247   0.00000  Uiso   1.00
H215   H     0.11873   0.88186   0.33239   0.00000  Uiso   1.00
H216   H     0.07173   0.72988   0.23971   0.00000  Uiso   1.00
H217   H     0.03322   0.93006   0.46757   0.00000  Uiso   1.00
H218   H     0.23302   0.99561   0.27476   0.00000  Uiso   1.00
H219   H     0.04829   0.54571   0.16090   0.00000  Uiso   1.00
H220   H     0.96710   0.96784   0.64135   0.00000  Uiso   1.00
H221   H     0.38841   0.10605   0.23476   0.00000  Uiso   1.00
O222   O     0.11598   0.39187   0.18213   0.00000  Uiso   1.00
O223   O     0.00947   0.94570   0.81247   0.00000  Uiso   1.00
O224   O     0.56222   0.12703   0.27903   0.00000  Uiso   1.00
N225   N     0.19947   0.48755   0.29419   0.00000  Uiso   1.00
N226   N     0.12355   0.88220   0.74339   0.00000  Uiso   1.00
N227   N     0.51744   0.01143   0.36328   0.00000  Uiso   1.00
N228   N     0.09763   0.54316   0.20933   0.00000  Uiso   1.00
N229   N     0.02171   0.93781   0.65853   0.00000  Uiso   1.00
N230   N     0.41560   0.06704   0.27842   0.00000  Uiso   1.00
C231   C     0.47437   0.28902   0.78878   0.00000  Uiso   1.00
C232   C     0.40463   0.23917   0.71913   0.00000  Uiso   1.00
C233   C     0.39280   0.25437   0.62938   0.00000  Uiso   1.00
C234   C     0.32532   0.20168   0.57659   0.00000  Uiso   1.00
C235   C     0.22522   0.13420   0.46299   0.00000  Uiso   1.00
C236   C     0.52706   0.21794   0.82824   0.00000  Uiso   1.00
C237   C     0.61817   0.21531   0.83024   0.00000  Uiso   1.00
C238   C     0.65374   0.14475   0.86931   0.00000  Uiso   1.00
C239   C     0.74372   0.04436   0.92518   0.00000  Uiso   1.00
C240   C     0.42372   0.32729   0.86408   0.00000  Uiso   1.00
C241   C     0.42797   0.41661   0.89624   0.00000  Uiso   1.00
C242   C     0.37656   0.43811   0.96550   0.00000  Uiso   1.00
C243   C     0.30610   0.50750   0.07701   0.00000  Uiso   1.00
C244   C     0.37556   0.16840   0.85462   0.00000  Uiso   1.00
C245   C     0.35096   0.17365   0.75489   0.00000  Uiso   1.00
C246   C     0.28347   0.12092   0.70222   0.00000  Uiso   1.00
C247   C     0.27155   0.13605   0.61241   0.00000  Uiso   1.00
C248   C     0.47339   0.15242   0.86400   0.00000  Uiso   1.00
C249   C     0.50884   0.08186   0.90309   0.00000  Uiso   1.00
C250   C     0.59997   0.07912   0.90514   0.00000  Uiso   1.00
C251   C     0.37005   0.26178   0.89985   0.00000  Uiso   1.00
C252   C     0.31863   0.28315   0.96908   0.00000  Uiso   1.00
C253   C     0.32279   0.37248   0.00133   0.00000  Uiso   1.00
H254   H     0.51616   0.34002   0.76094   0.00000  Uiso   1.00
H255   H     0.43436   0.30508   0.60173   0.00000  Uiso   1.00
H256   H     0.65968   0.26602   0.80257   0.00000  Uiso   1.00
H257   H     0.46951   0.46728   0.86855   0.00000  Uiso   1.00
H258   H     0.32002   0.23742   0.44097   0.00000  Uiso   1.00
H259   H     0.79513   0.15509   0.86449   0.00000  Uiso   1.00
H260   H     0.39412   0.57949   0.00362   0.00000  Uiso   1.00
H261   H     0.33377   0.11739   0.88246   0.00000  Uiso   1.00
H262   H     0.24195   0.07023   0.72992   0.00000  Uiso   1.00
H263   H     0.46728   0.03117   0.93076   0.00000  Uiso   1.00
H264   H     0.27710   0.23243   0.99674   0.00000  Uiso   1.00
H265   H     0.16385   0.04680   0.54502   0.00000  Uiso   1.00
H266   H     0.63897   0.96447   0.96854   0.00000  Uiso   1.00
H267   H     0.23795   0.38887   0.10767   0.00000  Uiso   1.00
O268   O     0.18484   0.11508   0.39044   0.00000  Uiso   1.00
O269   O     0.80817   0.00708   0.94610   0.00000  Uiso   1.00
O270   O     0.28205   0.56388   0.12863   0.00000  Uiso   1.00
N271   N     0.29585   0.19904   0.48640   0.00000  Uiso   1.00
N272   N     0.74005   0.12206   0.88235   0.00000  Uiso   1.00
N273   N     0.36516   0.51883   0.01244   0.00000  Uiso   1.00
N274   N     0.21182   0.09647   0.54238   0.00000  Uiso   1.00
N275   N     0.65602   0.01949   0.93833   0.00000  Uiso   1.00
N276   N     0.28113   0.41627   0.06843   0.00000  Uiso   1.00
