data_job_02381
_audit_creation_date              2018-12-19
_audit_creation_method            'Materials Studio'
_symmetry_space_group_name_H-M    'P1'
_symmetry_Int_Tables_number       1
_symmetry_cell_setting            triclinic
loop_
_symmetry_equiv_pos_as_xyz
  x,y,z
_cell_length_a                    27.8400
_cell_length_b                    21.6164
_cell_length_c                    12.2877
_cell_angle_alpha                 90.0000
_cell_angle_beta                  85.5070
_cell_angle_gamma                 90.0000
loop_
_atom_site_label
_atom_site_type_symbol
_atom_site_fract_x
_atom_site_fract_y
_atom_site_fract_z
_atom_site_U_iso_or_equiv
_atom_site_adp_type
_atom_site_occupancy
C1     C     0.14545   0.19916   0.34782   0.00000  Uiso   1.00
C2     C     0.19506   0.16899   0.34461   0.00000  Uiso   1.00
C3     C     0.23852   0.19770   0.31307   0.00000  Uiso   1.00
C4     C     0.27995   0.16216   0.31576   0.00000  Uiso   1.00
C5     C     0.35728   0.12475   0.30570   0.00000  Uiso   1.00
C6     C     0.11560   0.15919   0.27624   0.00000  Uiso   1.00
C7     C     0.09225   0.17966   0.18722   0.00000  Uiso   1.00
C8     C     0.06679   0.13587   0.13236   0.00000  Uiso   1.00
C9     C     0.02073   0.08325   0.01620   0.00000  Uiso   1.00
C10    C     0.12316   0.19106   0.46430   0.00000  Uiso   1.00
C11    C     0.10615   0.23832   0.53341   0.00000  Uiso   1.00
C12    C     0.08705   0.22136   0.63687   0.00000  Uiso   1.00
C13    C     0.05272   0.21821   0.81270   0.00000  Uiso   1.00
C14    C     0.14175   0.08499   0.40867   0.00000  Uiso   1.00
C15    C     0.19304   0.10698   0.37766   0.00000  Uiso   1.00
C16    C     0.23442   0.07139   0.38040   0.00000  Uiso   1.00
C17    C     0.27794   0.10004   0.34887   0.00000  Uiso   1.00
C18    C     0.11359   0.09718   0.30928   0.00000  Uiso   1.00
C19    C     0.08815   0.05335   0.25455   0.00000  Uiso   1.00
C20    C     0.06477   0.07375   0.16547   0.00000  Uiso   1.00
C21    C     0.12115   0.12905   0.49735   0.00000  Uiso   1.00
C22    C     0.10206   0.11201   0.60073   0.00000  Uiso   1.00
C23    C     0.08503   0.15924   0.66998   0.00000  Uiso   1.00
H24    H     0.14702   0.24743   0.32208   0.00000  Uiso   1.00
H25    H     0.24006   0.24569   0.28749   0.00000  Uiso   1.00
H26    H     0.09381   0.22765   0.16167   0.00000  Uiso   1.00
H27    H     0.10772   0.28630   0.50780   0.00000  Uiso   1.00
H28    H     0.34233   0.21640   0.26368   0.00000  Uiso   1.00
H29    H     0.03394   0.17837   0.99840   0.00000  Uiso   1.00
H30    H     0.06326   0.30205   0.72828   0.00000  Uiso   1.00
H31    H     0.14018   0.03672   0.43440   0.00000  Uiso   1.00
H32    H     0.23285   0.02341   0.40598   0.00000  Uiso   1.00
H33    H     0.08660   0.00537   0.28015   0.00000  Uiso   1.00
H34    H     0.10051   0.06402   0.62628   0.00000  Uiso   1.00
H35    H     0.33648   0.03599   0.35984   0.00000  Uiso   1.00
H36    H     0.02808   0.99796   0.09456   0.00000  Uiso   1.00
H37    H     0.05741   0.12163   0.82444   0.00000  Uiso   1.00
O38    O     0.40049   0.12124   0.29100   0.00000  Uiso   1.00
O39    O     0.99588   0.07135   0.94298   0.00000  Uiso   1.00
O40    O     0.03436   0.23360   0.90056   0.00000  Uiso   1.00
N41    N     0.32824   0.17577   0.29023   0.00000  Uiso   1.00
N42    N     0.03991   0.14022   0.04220   0.00000  Uiso   1.00
N43    N     0.06732   0.25584   0.72457   0.00000  Uiso   1.00
N44    N     0.32509   0.07869   0.34198   0.00000  Uiso   1.00
N45    N     0.03676   0.04314   0.09395   0.00000  Uiso   1.00
N46    N     0.06417   0.15876   0.77631   0.00000  Uiso   1.00
C47    C     0.64545   0.69916   0.34782   0.00000  Uiso   1.00
C48    C     0.69506   0.66899   0.34461   0.00000  Uiso   1.00
C49    C     0.73852   0.69770   0.31307   0.00000  Uiso   1.00
C50    C     0.77995   0.66216   0.31576   0.00000  Uiso   1.00
C51    C     0.85728   0.62475   0.30570   0.00000  Uiso   1.00
C52    C     0.61560   0.65919   0.27624   0.00000  Uiso   1.00
C53    C     0.59225   0.67966   0.18722   0.00000  Uiso   1.00
C54    C     0.56679   0.63587   0.13236   0.00000  Uiso   1.00
C55    C     0.52073   0.58325   0.01620   0.00000  Uiso   1.00
C56    C     0.62316   0.69106   0.46430   0.00000  Uiso   1.00
C57    C     0.60615   0.73832   0.53341   0.00000  Uiso   1.00
C58    C     0.58705   0.72136   0.63687   0.00000  Uiso   1.00
C59    C     0.55272   0.71821   0.81270   0.00000  Uiso   1.00
C60    C     0.64175   0.58499   0.40867   0.00000  Uiso   1.00
C61    C     0.69304   0.60698   0.37766   0.00000  Uiso   1.00
C62    C     0.73442   0.57139   0.38040   0.00000  Uiso   1.00
C63    C     0.77794   0.60004   0.34887   0.00000  Uiso   1.00
C64    C     0.61359   0.59718   0.30928   0.00000  Uiso   1.00
C65    C     0.58815   0.55335   0.25455   0.00000  Uiso   1.00
C66    C     0.56477   0.57375   0.16547   0.00000  Uiso   1.00
C67    C     0.62115   0.62905   0.49735   0.00000  Uiso   1.00
C68    C     0.60206   0.61201   0.60073   0.00000  Uiso   1.00
C69    C     0.58503   0.65924   0.66998   0.00000  Uiso   1.00
H70    H     0.64702   0.74743   0.32208   0.00000  Uiso   1.00
H71    H     0.74006   0.74569   0.28749   0.00000  Uiso   1.00
H72    H     0.59381   0.72765   0.16167   0.00000  Uiso   1.00
H73    H     0.60772   0.78630   0.50780   0.00000  Uiso   1.00
H74    H     0.84233   0.71640   0.26368   0.00000  Uiso   1.00
H75    H     0.53394   0.67837   0.99840   0.00000  Uiso   1.00
H76    H     0.56326   0.80205   0.72828   0.00000  Uiso   1.00
H77    H     0.64018   0.53672   0.43440   0.00000  Uiso   1.00
H78    H     0.73285   0.52341   0.40598   0.00000  Uiso   1.00
H79    H     0.58660   0.50537   0.28015   0.00000  Uiso   1.00
H80    H     0.60051   0.56402   0.62628   0.00000  Uiso   1.00
H81    H     0.83648   0.53599   0.35984   0.00000  Uiso   1.00
H82    H     0.52808   0.49796   0.09456   0.00000  Uiso   1.00
H83    H     0.55741   0.62163   0.82444   0.00000  Uiso   1.00
O84    O     0.90049   0.62124   0.29100   0.00000  Uiso   1.00
O85    O     0.49588   0.57135   0.94298   0.00000  Uiso   1.00
O86    O     0.53436   0.73360   0.90056   0.00000  Uiso   1.00
N87    N     0.82824   0.67577   0.29023   0.00000  Uiso   1.00
N88    N     0.53991   0.64022   0.04220   0.00000  Uiso   1.00
N89    N     0.56732   0.75584   0.72457   0.00000  Uiso   1.00
N90    N     0.82509   0.57869   0.34198   0.00000  Uiso   1.00
N91    N     0.53676   0.54314   0.09395   0.00000  Uiso   1.00
N92    N     0.56417   0.65876   0.77631   0.00000  Uiso   1.00
C93    C     0.85455   0.19916   0.15218   0.00000  Uiso   1.00
C94    C     0.80494   0.16899   0.15539   0.00000  Uiso   1.00
C95    C     0.76148   0.19770   0.18693   0.00000  Uiso   1.00
C96    C     0.72005   0.16216   0.18424   0.00000  Uiso   1.00
C97    C     0.64272   0.12475   0.19430   0.00000  Uiso   1.00
C98    C     0.88440   0.15919   0.22376   0.00000  Uiso   1.00
C99    C     0.90775   0.17966   0.31278   0.00000  Uiso   1.00
C100   C     0.93321   0.13587   0.36764   0.00000  Uiso   1.00
C101   C     0.97927   0.08325   0.48380   0.00000  Uiso   1.00
C102   C     0.87684   0.19106   0.03570   0.00000  Uiso   1.00
C103   C     0.89385   0.23832   0.96659   0.00000  Uiso   1.00
C104   C     0.91295   0.22136   0.86313   0.00000  Uiso   1.00
C105   C     0.94728   0.21821   0.68730   0.00000  Uiso   1.00
C106   C     0.85825   0.08499   0.09133   0.00000  Uiso   1.00
C107   C     0.80696   0.10698   0.12234   0.00000  Uiso   1.00
C108   C     0.76558   0.07139   0.11960   0.00000  Uiso   1.00
C109   C     0.72206   0.10004   0.15113   0.00000  Uiso   1.00
C110   C     0.88641   0.09718   0.19072   0.00000  Uiso   1.00
C111   C     0.91185   0.05335   0.24545   0.00000  Uiso   1.00
C112   C     0.93523   0.07375   0.33453   0.00000  Uiso   1.00
C113   C     0.87885   0.12905   0.00265   0.00000  Uiso   1.00
C114   C     0.89794   0.11201   0.89927   0.00000  Uiso   1.00
C115   C     0.91497   0.15924   0.83002   0.00000  Uiso   1.00
H116   H     0.85298   0.24743   0.17792   0.00000  Uiso   1.00
H117   H     0.75994   0.24569   0.21251   0.00000  Uiso   1.00
H118   H     0.90619   0.22765   0.33833   0.00000  Uiso   1.00
H119   H     0.89228   0.28630   0.99220   0.00000  Uiso   1.00
H120   H     0.65767   0.21640   0.23632   0.00000  Uiso   1.00
H121   H     0.96606   0.17837   0.50160   0.00000  Uiso   1.00
H122   H     0.93674   0.30205   0.77172   0.00000  Uiso   1.00
H123   H     0.85982   0.03672   0.06560   0.00000  Uiso   1.00
H124   H     0.76715   0.02341   0.09402   0.00000  Uiso   1.00
H125   H     0.91340   0.00537   0.21985   0.00000  Uiso   1.00
H126   H     0.89949   0.06402   0.87372   0.00000  Uiso   1.00
H127   H     0.66352   0.03599   0.14016   0.00000  Uiso   1.00
H128   H     0.97192   0.99796   0.40544   0.00000  Uiso   1.00
H129   H     0.94259   0.12163   0.67556   0.00000  Uiso   1.00
O130   O     0.59951   0.12124   0.20900   0.00000  Uiso   1.00
O131   O     0.00412   0.07135   0.55702   0.00000  Uiso   1.00
O132   O     0.96564   0.23360   0.59944   0.00000  Uiso   1.00
N133   N     0.67176   0.17577   0.20977   0.00000  Uiso   1.00
N134   N     0.96009   0.14022   0.45780   0.00000  Uiso   1.00
N135   N     0.93268   0.25584   0.77543   0.00000  Uiso   1.00
N136   N     0.67491   0.07869   0.15802   0.00000  Uiso   1.00
N137   N     0.96324   0.04314   0.40605   0.00000  Uiso   1.00
N138   N     0.93583   0.15876   0.72369   0.00000  Uiso   1.00
C139   C     0.35455   0.69916   0.15218   0.00000  Uiso   1.00
C140   C     0.30494   0.66899   0.15539   0.00000  Uiso   1.00
C141   C     0.26148   0.69770   0.18693   0.00000  Uiso   1.00
C142   C     0.22005   0.66216   0.18424   0.00000  Uiso   1.00
C143   C     0.14272   0.62475   0.19430   0.00000  Uiso   1.00
C144   C     0.38440   0.65919   0.22376   0.00000  Uiso   1.00
C145   C     0.40775   0.67966   0.31278   0.00000  Uiso   1.00
C146   C     0.43321   0.63587   0.36764   0.00000  Uiso   1.00
C147   C     0.47927   0.58325   0.48380   0.00000  Uiso   1.00
C148   C     0.37684   0.69106   0.03570   0.00000  Uiso   1.00
C149   C     0.39385   0.73832   0.96659   0.00000  Uiso   1.00
C150   C     0.41295   0.72136   0.86313   0.00000  Uiso   1.00
C151   C     0.44728   0.71821   0.68730   0.00000  Uiso   1.00
C152   C     0.35825   0.58499   0.09133   0.00000  Uiso   1.00
C153   C     0.30696   0.60698   0.12234   0.00000  Uiso   1.00
C154   C     0.26558   0.57139   0.11960   0.00000  Uiso   1.00
C155   C     0.22206   0.60004   0.15113   0.00000  Uiso   1.00
C156   C     0.38641   0.59718   0.19072   0.00000  Uiso   1.00
C157   C     0.41185   0.55335   0.24545   0.00000  Uiso   1.00
C158   C     0.43523   0.57375   0.33453   0.00000  Uiso   1.00
C159   C     0.37885   0.62905   0.00265   0.00000  Uiso   1.00
C160   C     0.39794   0.61201   0.89927   0.00000  Uiso   1.00
C161   C     0.41497   0.65924   0.83002   0.00000  Uiso   1.00
H162   H     0.35298   0.74743   0.17792   0.00000  Uiso   1.00
H163   H     0.25994   0.74569   0.21251   0.00000  Uiso   1.00
H164   H     0.40619   0.72765   0.33833   0.00000  Uiso   1.00
H165   H     0.39228   0.78630   0.99220   0.00000  Uiso   1.00
H166   H     0.15767   0.71640   0.23632   0.00000  Uiso   1.00
H167   H     0.46606   0.67837   0.50160   0.00000  Uiso   1.00
H168   H     0.43674   0.80205   0.77172   0.00000  Uiso   1.00
H169   H     0.35982   0.53672   0.06560   0.00000  Uiso   1.00
H170   H     0.26715   0.52341   0.09402   0.00000  Uiso   1.00
H171   H     0.41340   0.50537   0.21985   0.00000  Uiso   1.00
H172   H     0.39949   0.56402   0.87372   0.00000  Uiso   1.00
H173   H     0.16352   0.53599   0.14016   0.00000  Uiso   1.00
H174   H     0.47192   0.49796   0.40544   0.00000  Uiso   1.00
H175   H     0.44259   0.62163   0.67556   0.00000  Uiso   1.00
O176   O     0.09951   0.62124   0.20900   0.00000  Uiso   1.00
O177   O     0.50412   0.57135   0.55702   0.00000  Uiso   1.00
O178   O     0.46564   0.73360   0.59944   0.00000  Uiso   1.00
N179   N     0.17176   0.67577   0.20977   0.00000  Uiso   1.00
N180   N     0.46009   0.64022   0.45780   0.00000  Uiso   1.00
N181   N     0.43268   0.75584   0.77543   0.00000  Uiso   1.00
N182   N     0.17491   0.57869   0.15802   0.00000  Uiso   1.00
N183   N     0.46324   0.54314   0.40605   0.00000  Uiso   1.00
N184   N     0.43583   0.65876   0.72369   0.00000  Uiso   1.00
C185   C     0.85455   0.80084   0.65218   0.00000  Uiso   1.00
C186   C     0.80494   0.83101   0.65539   0.00000  Uiso   1.00
C187   C     0.76148   0.80230   0.68693   0.00000  Uiso   1.00
C188   C     0.72005   0.83784   0.68424   0.00000  Uiso   1.00
C189   C     0.64272   0.87525   0.69430   0.00000  Uiso   1.00
C190   C     0.88440   0.84081   0.72376   0.00000  Uiso   1.00
C191   C     0.90775   0.82034   0.81278   0.00000  Uiso   1.00
C192   C     0.93321   0.86413   0.86764   0.00000  Uiso   1.00
C193   C     0.97927   0.91675   0.98380   0.00000  Uiso   1.00
C194   C     0.87684   0.80894   0.53570   0.00000  Uiso   1.00
C195   C     0.89385   0.76168   0.46659   0.00000  Uiso   1.00
C196   C     0.91295   0.77864   0.36313   0.00000  Uiso   1.00
C197   C     0.94728   0.78179   0.18730   0.00000  Uiso   1.00
C198   C     0.85825   0.91501   0.59133   0.00000  Uiso   1.00
C199   C     0.80696   0.89302   0.62234   0.00000  Uiso   1.00
C200   C     0.76558   0.92861   0.61960   0.00000  Uiso   1.00
C201   C     0.72206   0.89996   0.65113   0.00000  Uiso   1.00
C202   C     0.88641   0.90282   0.69072   0.00000  Uiso   1.00
C203   C     0.91185   0.94665   0.74545   0.00000  Uiso   1.00
C204   C     0.93523   0.92625   0.83453   0.00000  Uiso   1.00
C205   C     0.87885   0.87095   0.50265   0.00000  Uiso   1.00
C206   C     0.89794   0.88799   0.39927   0.00000  Uiso   1.00
C207   C     0.91497   0.84076   0.33002   0.00000  Uiso   1.00
H208   H     0.85298   0.75257   0.67792   0.00000  Uiso   1.00
H209   H     0.75994   0.75431   0.71251   0.00000  Uiso   1.00
H210   H     0.90619   0.77235   0.83833   0.00000  Uiso   1.00
H211   H     0.89228   0.71370   0.49220   0.00000  Uiso   1.00
H212   H     0.65767   0.78360   0.73632   0.00000  Uiso   1.00
H213   H     0.96606   0.82163   0.00160   0.00000  Uiso   1.00
H214   H     0.93674   0.69795   0.27172   0.00000  Uiso   1.00
H215   H     0.85982   0.96328   0.56560   0.00000  Uiso   1.00
H216   H     0.76715   0.97659   0.59402   0.00000  Uiso   1.00
H217   H     0.91340   0.99463   0.71985   0.00000  Uiso   1.00
H218   H     0.89949   0.93598   0.37372   0.00000  Uiso   1.00
H219   H     0.66352   0.96401   0.64016   0.00000  Uiso   1.00
H220   H     0.97192   0.00204   0.90544   0.00000  Uiso   1.00
H221   H     0.94259   0.87837   0.17556   0.00000  Uiso   1.00
O222   O     0.59951   0.87876   0.70900   0.00000  Uiso   1.00
O223   O     0.00412   0.92865   0.05702   0.00000  Uiso   1.00
O224   O     0.96564   0.76640   0.09944   0.00000  Uiso   1.00
N225   N     0.67176   0.82423   0.70977   0.00000  Uiso   1.00
N226   N     0.96009   0.85978   0.95780   0.00000  Uiso   1.00
N227   N     0.93268   0.74416   0.27543   0.00000  Uiso   1.00
N228   N     0.67491   0.92131   0.65802   0.00000  Uiso   1.00
N229   N     0.96324   0.95686   0.90605   0.00000  Uiso   1.00
N230   N     0.93583   0.84124   0.22369   0.00000  Uiso   1.00
C231   C     0.35455   0.30084   0.65218   0.00000  Uiso   1.00
C232   C     0.30494   0.33101   0.65539   0.00000  Uiso   1.00
C233   C     0.26148   0.30230   0.68693   0.00000  Uiso   1.00
C234   C     0.22005   0.33784   0.68424   0.00000  Uiso   1.00
C235   C     0.14272   0.37525   0.69430   0.00000  Uiso   1.00
C236   C     0.38440   0.34081   0.72376   0.00000  Uiso   1.00
C237   C     0.40775   0.32034   0.81278   0.00000  Uiso   1.00
C238   C     0.43321   0.36413   0.86764   0.00000  Uiso   1.00
C239   C     0.47927   0.41675   0.98380   0.00000  Uiso   1.00
C240   C     0.37684   0.30894   0.53570   0.00000  Uiso   1.00
C241   C     0.39385   0.26168   0.46659   0.00000  Uiso   1.00
C242   C     0.41295   0.27864   0.36313   0.00000  Uiso   1.00
C243   C     0.44728   0.28179   0.18730   0.00000  Uiso   1.00
C244   C     0.35825   0.41501   0.59133   0.00000  Uiso   1.00
C245   C     0.30696   0.39302   0.62234   0.00000  Uiso   1.00
C246   C     0.26558   0.42861   0.61960   0.00000  Uiso   1.00
C247   C     0.22206   0.39996   0.65113   0.00000  Uiso   1.00
C248   C     0.38641   0.40282   0.69072   0.00000  Uiso   1.00
C249   C     0.41185   0.44665   0.74545   0.00000  Uiso   1.00
C250   C     0.43523   0.42625   0.83453   0.00000  Uiso   1.00
C251   C     0.37885   0.37095   0.50265   0.00000  Uiso   1.00
C252   C     0.39794   0.38799   0.39927   0.00000  Uiso   1.00
C253   C     0.41497   0.34076   0.33002   0.00000  Uiso   1.00
H254   H     0.35298   0.25257   0.67792   0.00000  Uiso   1.00
H255   H     0.25994   0.25431   0.71251   0.00000  Uiso   1.00
H256   H     0.40619   0.27235   0.83833   0.00000  Uiso   1.00
H257   H     0.39228   0.21370   0.49220   0.00000  Uiso   1.00
H258   H     0.15767   0.28360   0.73632   0.00000  Uiso   1.00
H259   H     0.46606   0.32163   0.00160   0.00000  Uiso   1.00
H260   H     0.43674   0.19795   0.27172   0.00000  Uiso   1.00
H261   H     0.35982   0.46328   0.56560   0.00000  Uiso   1.00
H262   H     0.26715   0.47659   0.59402   0.00000  Uiso   1.00
H263   H     0.41340   0.49463   0.71985   0.00000  Uiso   1.00
H264   H     0.39949   0.43598   0.37372   0.00000  Uiso   1.00
H265   H     0.16352   0.46401   0.64016   0.00000  Uiso   1.00
H266   H     0.47192   0.50204   0.90544   0.00000  Uiso   1.00
H267   H     0.44259   0.37837   0.17556   0.00000  Uiso   1.00
O268   O     0.09951   0.37876   0.70900   0.00000  Uiso   1.00
O269   O     0.50412   0.42865   0.05702   0.00000  Uiso   1.00
O270   O     0.46564   0.26640   0.09944   0.00000  Uiso   1.00
N271   N     0.17176   0.32423   0.70977   0.00000  Uiso   1.00
N272   N     0.46009   0.35978   0.95780   0.00000  Uiso   1.00
N273   N     0.43268   0.24416   0.27543   0.00000  Uiso   1.00
N274   N     0.17491   0.42131   0.65802   0.00000  Uiso   1.00
N275   N     0.46324   0.45686   0.90605   0.00000  Uiso   1.00
N276   N     0.43583   0.34124   0.22369   0.00000  Uiso   1.00
C277   C     0.14545   0.80084   0.84782   0.00000  Uiso   1.00
C278   C     0.19506   0.83101   0.84461   0.00000  Uiso   1.00
C279   C     0.23852   0.80230   0.81307   0.00000  Uiso   1.00
C280   C     0.27995   0.83784   0.81576   0.00000  Uiso   1.00
C281   C     0.35728   0.87525   0.80570   0.00000  Uiso   1.00
C282   C     0.11560   0.84081   0.77624   0.00000  Uiso   1.00
C283   C     0.09225   0.82034   0.68722   0.00000  Uiso   1.00
C284   C     0.06679   0.86413   0.63236   0.00000  Uiso   1.00
C285   C     0.02073   0.91675   0.51620   0.00000  Uiso   1.00
C286   C     0.12316   0.80894   0.96430   0.00000  Uiso   1.00
C287   C     0.10615   0.76168   0.03341   0.00000  Uiso   1.00
C288   C     0.08705   0.77864   0.13687   0.00000  Uiso   1.00
C289   C     0.05272   0.78179   0.31270   0.00000  Uiso   1.00
C290   C     0.14175   0.91501   0.90867   0.00000  Uiso   1.00
C291   C     0.19304   0.89302   0.87766   0.00000  Uiso   1.00
C292   C     0.23442   0.92861   0.88040   0.00000  Uiso   1.00
C293   C     0.27794   0.89996   0.84887   0.00000  Uiso   1.00
C294   C     0.11359   0.90282   0.80928   0.00000  Uiso   1.00
C295   C     0.08815   0.94665   0.75455   0.00000  Uiso   1.00
C296   C     0.06477   0.92625   0.66547   0.00000  Uiso   1.00
C297   C     0.12115   0.87095   0.99735   0.00000  Uiso   1.00
C298   C     0.10206   0.88799   0.10073   0.00000  Uiso   1.00
C299   C     0.08503   0.84076   0.16998   0.00000  Uiso   1.00
H300   H     0.14702   0.75257   0.82208   0.00000  Uiso   1.00
H301   H     0.24006   0.75431   0.78749   0.00000  Uiso   1.00
H302   H     0.09381   0.77235   0.66167   0.00000  Uiso   1.00
H303   H     0.10772   0.71370   0.00780   0.00000  Uiso   1.00
H304   H     0.34233   0.78360   0.76368   0.00000  Uiso   1.00
H305   H     0.03394   0.82163   0.49840   0.00000  Uiso   1.00
H306   H     0.06326   0.69795   0.22828   0.00000  Uiso   1.00
H307   H     0.14018   0.96328   0.93440   0.00000  Uiso   1.00
H308   H     0.23285   0.97659   0.90598   0.00000  Uiso   1.00
H309   H     0.08660   0.99463   0.78015   0.00000  Uiso   1.00
H310   H     0.10051   0.93598   0.12628   0.00000  Uiso   1.00
H311   H     0.33648   0.96401   0.85984   0.00000  Uiso   1.00
H312   H     0.02808   0.00204   0.59456   0.00000  Uiso   1.00
H313   H     0.05741   0.87837   0.32444   0.00000  Uiso   1.00
O314   O     0.40049   0.87876   0.79100   0.00000  Uiso   1.00
O315   O     0.99588   0.92865   0.44298   0.00000  Uiso   1.00
O316   O     0.03436   0.76640   0.40056   0.00000  Uiso   1.00
N317   N     0.32824   0.82423   0.79023   0.00000  Uiso   1.00
N318   N     0.03991   0.85978   0.54220   0.00000  Uiso   1.00
N319   N     0.06732   0.74416   0.22457   0.00000  Uiso   1.00
N320   N     0.32509   0.92131   0.84198   0.00000  Uiso   1.00
N321   N     0.03676   0.95686   0.59395   0.00000  Uiso   1.00
N322   N     0.06417   0.84124   0.27631   0.00000  Uiso   1.00
C323   C     0.64545   0.30084   0.84782   0.00000  Uiso   1.00
C324   C     0.69506   0.33101   0.84461   0.00000  Uiso   1.00
C325   C     0.73852   0.30230   0.81307   0.00000  Uiso   1.00
C326   C     0.77995   0.33784   0.81576   0.00000  Uiso   1.00
C327   C     0.85728   0.37525   0.80570   0.00000  Uiso   1.00
C328   C     0.61560   0.34081   0.77624   0.00000  Uiso   1.00
C329   C     0.59225   0.32034   0.68722   0.00000  Uiso   1.00
C330   C     0.56679   0.36413   0.63236   0.00000  Uiso   1.00
C331   C     0.52073   0.41675   0.51620   0.00000  Uiso   1.00
C332   C     0.62316   0.30894   0.96430   0.00000  Uiso   1.00
C333   C     0.60615   0.26168   0.03341   0.00000  Uiso   1.00
C334   C     0.58705   0.27864   0.13687   0.00000  Uiso   1.00
C335   C     0.55272   0.28179   0.31270   0.00000  Uiso   1.00
C336   C     0.64175   0.41501   0.90867   0.00000  Uiso   1.00
C337   C     0.69304   0.39302   0.87766   0.00000  Uiso   1.00
C338   C     0.73442   0.42861   0.88040   0.00000  Uiso   1.00
C339   C     0.77794   0.39996   0.84887   0.00000  Uiso   1.00
C340   C     0.61359   0.40282   0.80928   0.00000  Uiso   1.00
C341   C     0.58815   0.44665   0.75455   0.00000  Uiso   1.00
C342   C     0.56477   0.42625   0.66547   0.00000  Uiso   1.00
C343   C     0.62115   0.37095   0.99735   0.00000  Uiso   1.00
C344   C     0.60206   0.38799   0.10073   0.00000  Uiso   1.00
C345   C     0.58503   0.34076   0.16998   0.00000  Uiso   1.00
H346   H     0.64702   0.25257   0.82208   0.00000  Uiso   1.00
H347   H     0.74006   0.25431   0.78749   0.00000  Uiso   1.00
H348   H     0.59381   0.27235   0.66167   0.00000  Uiso   1.00
H349   H     0.60772   0.21370   0.00780   0.00000  Uiso   1.00
H350   H     0.84233   0.28360   0.76368   0.00000  Uiso   1.00
H351   H     0.53394   0.32163   0.49840   0.00000  Uiso   1.00
H352   H     0.56326   0.19795   0.22828   0.00000  Uiso   1.00
H353   H     0.64018   0.46328   0.93440   0.00000  Uiso   1.00
H354   H     0.73285   0.47659   0.90598   0.00000  Uiso   1.00
H355   H     0.58660   0.49463   0.78015   0.00000  Uiso   1.00
H356   H     0.60051   0.43598   0.12628   0.00000  Uiso   1.00
H357   H     0.83648   0.46401   0.85984   0.00000  Uiso   1.00
H358   H     0.52808   0.50204   0.59456   0.00000  Uiso   1.00
H359   H     0.55741   0.37837   0.32444   0.00000  Uiso   1.00
O360   O     0.90049   0.37876   0.79100   0.00000  Uiso   1.00
O361   O     0.49588   0.42865   0.44298   0.00000  Uiso   1.00
O362   O     0.53436   0.26640   0.40056   0.00000  Uiso   1.00
N363   N     0.82824   0.32423   0.79023   0.00000  Uiso   1.00
N364   N     0.53991   0.35978   0.54220   0.00000  Uiso   1.00
N365   N     0.56732   0.24416   0.22457   0.00000  Uiso   1.00
N366   N     0.82509   0.42131   0.84198   0.00000  Uiso   1.00
N367   N     0.53676   0.45686   0.59395   0.00000  Uiso   1.00
N368   N     0.56417   0.34124   0.27631   0.00000  Uiso   1.00
