data_job_01509
_audit_creation_date              2018-12-19
_audit_creation_method            'Materials Studio'
_symmetry_space_group_name_H-M    'P1'
_symmetry_Int_Tables_number       1
_symmetry_cell_setting            triclinic
loop_
_symmetry_equiv_pos_as_xyz
  x,y,z
_cell_length_a                    18.5213
_cell_length_b                    15.1873
_cell_length_c                    9.7053
_cell_angle_alpha                 90.0000
_cell_angle_beta                  90.0000
_cell_angle_gamma                 90.0000
loop_
_atom_site_label
_atom_site_type_symbol
_atom_site_fract_x
_atom_site_fract_y
_atom_site_fract_z
_atom_site_U_iso_or_equiv
_atom_site_adp_type
_atom_site_occupancy
C1     C     0.24376   0.97143   0.52316   0.00000  Uiso   1.00
C2     C     0.29835   0.00480   0.62856   0.00000  Uiso   1.00
C3     C     0.29047   0.00127   0.77065   0.00000  Uiso   1.00
C4     C     0.34650   0.03530   0.84936   0.00000  Uiso   1.00
C5     C     0.42186   0.08164   0.02235   0.00000  Uiso   1.00
C6     C     0.22651   0.04967   0.43035   0.00000  Uiso   1.00
C7     C     0.15822   0.08386   0.40578   0.00000  Uiso   1.00
C8     C     0.15377   0.15565   0.31763   0.00000  Uiso   1.00
C9     C     0.11759   0.27162   0.18282   0.00000  Uiso   1.00
C10    C     0.28423   0.90554   0.43320   0.00000  Uiso   1.00
C11    C     0.26446   0.81855   0.41098   0.00000  Uiso   1.00
C12    C     0.30861   0.76900   0.32519   0.00000  Uiso   1.00
C13    C     0.36205   0.66119   0.19480   0.00000  Uiso   1.00
C14    C     0.35729   0.03814   0.41027   0.00000  Uiso   1.00
C15    C     0.36001   0.04103   0.56724   0.00000  Uiso   1.00
C16    C     0.41607   0.07508   0.64575   0.00000  Uiso   1.00
C17    C     0.40827   0.07160   0.78794   0.00000  Uiso   1.00
C18    C     0.28816   0.08590   0.36904   0.00000  Uiso   1.00
C19    C     0.28382   0.15766   0.28089   0.00000  Uiso   1.00
C20    C     0.21554   0.19195   0.25620   0.00000  Uiso   1.00
C21    C     0.34589   0.94177   0.37188   0.00000  Uiso   1.00
C22    C     0.39007   0.89236   0.28609   0.00000  Uiso   1.00
C23    C     0.37038   0.80530   0.26376   0.00000  Uiso   1.00
H24    H     0.19576   0.94322   0.57089   0.00000  Uiso   1.00
H25    H     0.24274   0.97323   0.81806   0.00000  Uiso   1.00
H26    H     0.11051   0.05580   0.45324   0.00000  Uiso   1.00
H27    H     0.21675   0.79053   0.45845   0.00000  Uiso   1.00
H28    H     0.32201   0.02251   0.06505   0.00000  Uiso   1.00
H29    H     0.04319   0.19659   0.29578   0.00000  Uiso   1.00
H30    H     0.26721   0.63722   0.30675   0.00000  Uiso   1.00
H31    H     0.40529   0.06635   0.36253   0.00000  Uiso   1.00
H32    H     0.46378   0.10311   0.59827   0.00000  Uiso   1.00
H33    H     0.33154   0.18568   0.23345   0.00000  Uiso   1.00
H34    H     0.43778   0.92042   0.23866   0.00000  Uiso   1.00
H35    H     0.50141   0.12793   0.88667   0.00000  Uiso   1.00
H36    H     0.22259   0.30201   0.11738   0.00000  Uiso   1.00
H37    H     0.44661   0.74264   0.12837   0.00000  Uiso   1.00
O38    O     0.44639   0.09721   0.13470   0.00000  Uiso   1.00
O39    O     0.08059   0.32558   0.12542   0.00000  Uiso   1.00
O40    O     0.37449   0.59170   0.13983   0.00000  Uiso   1.00
N41    N     0.35621   0.04226   0.99072   0.00000  Uiso   1.00
N42    N     0.09554   0.20502   0.27151   0.00000  Uiso   1.00
N43    N     0.30496   0.68206   0.28174   0.00000  Uiso   1.00
N44    N     0.45275   0.09898   0.89473   0.00000  Uiso   1.00
N45    N     0.19207   0.26175   0.17552   0.00000  Uiso   1.00
N46    N     0.40149   0.73879   0.18575   0.00000  Uiso   1.00
C47    C     0.75624   0.02857   0.52316   0.00000  Uiso   1.00
C48    C     0.70165   0.99520   0.62856   0.00000  Uiso   1.00
C49    C     0.70953   0.99873   0.77065   0.00000  Uiso   1.00
C50    C     0.65350   0.96470   0.84936   0.00000  Uiso   1.00
C51    C     0.57814   0.91836   0.02235   0.00000  Uiso   1.00
C52    C     0.77349   0.95033   0.43035   0.00000  Uiso   1.00
C53    C     0.84178   0.91614   0.40578   0.00000  Uiso   1.00
C54    C     0.84623   0.84435   0.31763   0.00000  Uiso   1.00
C55    C     0.88241   0.72838   0.18282   0.00000  Uiso   1.00
C56    C     0.71577   0.09446   0.43320   0.00000  Uiso   1.00
C57    C     0.73554   0.18145   0.41098   0.00000  Uiso   1.00
C58    C     0.69139   0.23100   0.32519   0.00000  Uiso   1.00
C59    C     0.63795   0.33881   0.19480   0.00000  Uiso   1.00
C60    C     0.64271   0.96186   0.41027   0.00000  Uiso   1.00
C61    C     0.63999   0.95897   0.56724   0.00000  Uiso   1.00
C62    C     0.58393   0.92492   0.64575   0.00000  Uiso   1.00
C63    C     0.59173   0.92840   0.78794   0.00000  Uiso   1.00
C64    C     0.71184   0.91410   0.36904   0.00000  Uiso   1.00
C65    C     0.71618   0.84234   0.28089   0.00000  Uiso   1.00
C66    C     0.78446   0.80805   0.25620   0.00000  Uiso   1.00
C67    C     0.65411   0.05823   0.37188   0.00000  Uiso   1.00
C68    C     0.60993   0.10764   0.28609   0.00000  Uiso   1.00
C69    C     0.62962   0.19470   0.26376   0.00000  Uiso   1.00
H70    H     0.80424   0.05678   0.57089   0.00000  Uiso   1.00
H71    H     0.75726   0.02677   0.81806   0.00000  Uiso   1.00
H72    H     0.88949   0.94420   0.45324   0.00000  Uiso   1.00
H73    H     0.78325   0.20947   0.45845   0.00000  Uiso   1.00
H74    H     0.67799   0.97749   0.06505   0.00000  Uiso   1.00
H75    H     0.95681   0.80341   0.29578   0.00000  Uiso   1.00
H76    H     0.73279   0.36278   0.30675   0.00000  Uiso   1.00
H77    H     0.59471   0.93365   0.36253   0.00000  Uiso   1.00
H78    H     0.53622   0.89689   0.59827   0.00000  Uiso   1.00
H79    H     0.66846   0.81432   0.23345   0.00000  Uiso   1.00
H80    H     0.56222   0.07958   0.23866   0.00000  Uiso   1.00
H81    H     0.49859   0.87207   0.88667   0.00000  Uiso   1.00
H82    H     0.77741   0.69799   0.11738   0.00000  Uiso   1.00
H83    H     0.55339   0.25736   0.12837   0.00000  Uiso   1.00
O84    O     0.55361   0.90279   0.13470   0.00000  Uiso   1.00
O85    O     0.91941   0.67442   0.12542   0.00000  Uiso   1.00
O86    O     0.62551   0.40830   0.13983   0.00000  Uiso   1.00
N87    N     0.64379   0.95774   0.99072   0.00000  Uiso   1.00
N88    N     0.90446   0.79498   0.27151   0.00000  Uiso   1.00
N89    N     0.69504   0.31794   0.28174   0.00000  Uiso   1.00
N90    N     0.54725   0.90102   0.89473   0.00000  Uiso   1.00
N91    N     0.80793   0.73825   0.17552   0.00000  Uiso   1.00
N92    N     0.59851   0.26121   0.18575   0.00000  Uiso   1.00
C93    C     0.25624   0.47143   0.47684   0.00000  Uiso   1.00
C94    C     0.20165   0.50480   0.37144   0.00000  Uiso   1.00
C95    C     0.20953   0.50127   0.22935   0.00000  Uiso   1.00
C96    C     0.15350   0.53530   0.15064   0.00000  Uiso   1.00
C97    C     0.07814   0.58164   0.97765   0.00000  Uiso   1.00
C98    C     0.27349   0.54967   0.56965   0.00000  Uiso   1.00
C99    C     0.34178   0.58386   0.59422   0.00000  Uiso   1.00
C100   C     0.34623   0.65565   0.68237   0.00000  Uiso   1.00
C101   C     0.38241   0.77162   0.81718   0.00000  Uiso   1.00
C102   C     0.21577   0.40554   0.56680   0.00000  Uiso   1.00
C103   C     0.23554   0.31855   0.58902   0.00000  Uiso   1.00
C104   C     0.19139   0.26900   0.67481   0.00000  Uiso   1.00
C105   C     0.13795   0.16119   0.80520   0.00000  Uiso   1.00
C106   C     0.14271   0.53814   0.58973   0.00000  Uiso   1.00
C107   C     0.13999   0.54103   0.43276   0.00000  Uiso   1.00
C108   C     0.08393   0.57508   0.35425   0.00000  Uiso   1.00
C109   C     0.09173   0.57160   0.21206   0.00000  Uiso   1.00
C110   C     0.21184   0.58590   0.63096   0.00000  Uiso   1.00
C111   C     0.21618   0.65766   0.71911   0.00000  Uiso   1.00
C112   C     0.28446   0.69195   0.74380   0.00000  Uiso   1.00
C113   C     0.15411   0.44177   0.62812   0.00000  Uiso   1.00
C114   C     0.10993   0.39236   0.71391   0.00000  Uiso   1.00
C115   C     0.12962   0.30530   0.73624   0.00000  Uiso   1.00
H116   H     0.30424   0.44322   0.42911   0.00000  Uiso   1.00
H117   H     0.25726   0.47323   0.18194   0.00000  Uiso   1.00
H118   H     0.38949   0.55580   0.54676   0.00000  Uiso   1.00
H119   H     0.28325   0.29053   0.54155   0.00000  Uiso   1.00
H120   H     0.17799   0.52251   0.93495   0.00000  Uiso   1.00
H121   H     0.45681   0.69659   0.70422   0.00000  Uiso   1.00
H122   H     0.23279   0.13722   0.69325   0.00000  Uiso   1.00
H123   H     0.09471   0.56635   0.63747   0.00000  Uiso   1.00
H124   H     0.03622   0.60311   0.40173   0.00000  Uiso   1.00
H125   H     0.16846   0.68568   0.76655   0.00000  Uiso   1.00
H126   H     0.06222   0.42042   0.76134   0.00000  Uiso   1.00
H127   H     0.99859   0.62793   0.11333   0.00000  Uiso   1.00
H128   H     0.27741   0.80201   0.88262   0.00000  Uiso   1.00
H129   H     0.05339   0.24264   0.87163   0.00000  Uiso   1.00
O130   O     0.05361   0.59721   0.86530   0.00000  Uiso   1.00
O131   O     0.41941   0.82558   0.87458   0.00000  Uiso   1.00
O132   O     0.12551   0.09170   0.86017   0.00000  Uiso   1.00
N133   N     0.14379   0.54226   0.00928   0.00000  Uiso   1.00
N134   N     0.40446   0.70502   0.72849   0.00000  Uiso   1.00
N135   N     0.19504   0.18206   0.71826   0.00000  Uiso   1.00
N136   N     0.04725   0.59898   0.10527   0.00000  Uiso   1.00
N137   N     0.30793   0.76175   0.82448   0.00000  Uiso   1.00
N138   N     0.09851   0.23879   0.81425   0.00000  Uiso   1.00
C139   C     0.74376   0.52857   0.47684   0.00000  Uiso   1.00
C140   C     0.79835   0.49520   0.37144   0.00000  Uiso   1.00
C141   C     0.79047   0.49873   0.22935   0.00000  Uiso   1.00
C142   C     0.84650   0.46470   0.15064   0.00000  Uiso   1.00
C143   C     0.92186   0.41836   0.97765   0.00000  Uiso   1.00
C144   C     0.72651   0.45033   0.56965   0.00000  Uiso   1.00
C145   C     0.65822   0.41614   0.59422   0.00000  Uiso   1.00
C146   C     0.65377   0.34435   0.68237   0.00000  Uiso   1.00
C147   C     0.61759   0.22838   0.81718   0.00000  Uiso   1.00
C148   C     0.78423   0.59446   0.56680   0.00000  Uiso   1.00
C149   C     0.76446   0.68145   0.58902   0.00000  Uiso   1.00
C150   C     0.80861   0.73100   0.67481   0.00000  Uiso   1.00
C151   C     0.86205   0.83881   0.80520   0.00000  Uiso   1.00
C152   C     0.85729   0.46186   0.58973   0.00000  Uiso   1.00
C153   C     0.86001   0.45897   0.43276   0.00000  Uiso   1.00
C154   C     0.91607   0.42492   0.35425   0.00000  Uiso   1.00
C155   C     0.90827   0.42840   0.21206   0.00000  Uiso   1.00
C156   C     0.78816   0.41410   0.63096   0.00000  Uiso   1.00
C157   C     0.78382   0.34234   0.71911   0.00000  Uiso   1.00
C158   C     0.71554   0.30805   0.74380   0.00000  Uiso   1.00
C159   C     0.84589   0.55823   0.62812   0.00000  Uiso   1.00
C160   C     0.89007   0.60764   0.71391   0.00000  Uiso   1.00
C161   C     0.87038   0.69470   0.73624   0.00000  Uiso   1.00
H162   H     0.69576   0.55678   0.42911   0.00000  Uiso   1.00
H163   H     0.74274   0.52677   0.18194   0.00000  Uiso   1.00
H164   H     0.61051   0.44420   0.54676   0.00000  Uiso   1.00
H165   H     0.71675   0.70947   0.54155   0.00000  Uiso   1.00
H166   H     0.82201   0.47749   0.93495   0.00000  Uiso   1.00
H167   H     0.54319   0.30341   0.70422   0.00000  Uiso   1.00
H168   H     0.76721   0.86278   0.69325   0.00000  Uiso   1.00
H169   H     0.90529   0.43365   0.63747   0.00000  Uiso   1.00
H170   H     0.96378   0.39689   0.40173   0.00000  Uiso   1.00
H171   H     0.83154   0.31432   0.76655   0.00000  Uiso   1.00
H172   H     0.93778   0.57958   0.76134   0.00000  Uiso   1.00
H173   H     0.00141   0.37207   0.11333   0.00000  Uiso   1.00
H174   H     0.72259   0.19799   0.88262   0.00000  Uiso   1.00
H175   H     0.94661   0.75736   0.87163   0.00000  Uiso   1.00
O176   O     0.94639   0.40279   0.86530   0.00000  Uiso   1.00
O177   O     0.58059   0.17442   0.87458   0.00000  Uiso   1.00
O178   O     0.87449   0.90830   0.86017   0.00000  Uiso   1.00
N179   N     0.85621   0.45774   0.00928   0.00000  Uiso   1.00
N180   N     0.59554   0.29498   0.72849   0.00000  Uiso   1.00
N181   N     0.80496   0.81794   0.71826   0.00000  Uiso   1.00
N182   N     0.95275   0.40102   0.10527   0.00000  Uiso   1.00
N183   N     0.69207   0.23825   0.82448   0.00000  Uiso   1.00
N184   N     0.90149   0.76121   0.81425   0.00000  Uiso   1.00
