data_job_05689
_audit_creation_date              2018-12-19
_audit_creation_method            'Materials Studio'
_symmetry_space_group_name_H-M    'P1'
_symmetry_Int_Tables_number       1
_symmetry_cell_setting            triclinic
loop_
_symmetry_equiv_pos_as_xyz
  x,y,z
_cell_length_a                    41.4024
_cell_length_b                    7.7128
_cell_length_c                    17.2597
_cell_angle_alpha                 90.0000
_cell_angle_beta                  90.0000
_cell_angle_gamma                 90.0000
loop_
_atom_site_label
_atom_site_type_symbol
_atom_site_fract_x
_atom_site_fract_y
_atom_site_fract_z
_atom_site_U_iso_or_equiv
_atom_site_adp_type
_atom_site_occupancy
C1     C     0.90112   0.39171   0.02405   0.00000  Uiso   1.00
C2     C     0.90107   0.23763   0.07941   0.00000  Uiso   1.00
C3     C     0.90225   0.24716   0.15965   0.00000  Uiso   1.00
C4     C     0.90198   0.09137   0.19995   0.00000  Uiso   1.00
C5     C     0.90213   0.87638   0.29179   0.00000  Uiso   1.00
C6     C     0.92965   0.36356   0.96962   0.00000  Uiso   1.00
C7     C     0.95487   0.47899   0.95754   0.00000  Uiso   1.00
C8     C     0.97866   0.42921   0.90540   0.00000  Uiso   1.00
C9     C     0.02318   0.40979   0.82674   0.00000  Uiso   1.00
C10    C     0.87087   0.37271   0.97437   0.00000  Uiso   1.00
C11    C     0.84666   0.49586   0.96626   0.00000  Uiso   1.00
C12    C     0.82097   0.45380   0.91810   0.00000  Uiso   1.00
C13    C     0.77421   0.44860   0.84682   0.00000  Uiso   1.00
C14    C     0.89853   0.09807   0.95292   0.00000  Uiso   1.00
C15    C     0.89966   0.07814   0.04077   0.00000  Uiso   1.00
C16    C     0.89939   0.92229   0.08096   0.00000  Uiso   1.00
C17    C     0.90057   0.93159   0.16125   0.00000  Uiso   1.00
C18    C     0.92825   0.20407   0.93098   0.00000  Uiso   1.00
C19    C     0.95201   0.15412   0.87884   0.00000  Uiso   1.00
C20    C     0.97726   0.26943   0.86669   0.00000  Uiso   1.00
C21    C     0.86946   0.21322   0.93573   0.00000  Uiso   1.00
C22    C     0.84380   0.17098   0.88757   0.00000  Uiso   1.00
C23    C     0.81956   0.29403   0.87940   0.00000  Uiso   1.00
H24    H     0.90221   0.51588   0.05412   0.00000  Uiso   1.00
H25    H     0.90334   0.37062   0.18953   0.00000  Uiso   1.00
H26    H     0.95595   0.60241   0.98744   0.00000  Uiso   1.00
H27    H     0.84776   0.61926   0.99617   0.00000  Uiso   1.00
H28    H     0.90398   0.13923   0.32262   0.00000  Uiso   1.00
H29    H     0.01490   0.62800   0.89648   0.00000  Uiso   1.00
H30    H     0.78676   0.66356   0.91488   0.00000  Uiso   1.00
H31    H     0.89744   0.97390   0.92283   0.00000  Uiso   1.00
H32    H     0.89830   0.79889   0.05104   0.00000  Uiso   1.00
H33    H     0.95091   0.03069   0.84895   0.00000  Uiso   1.00
H34    H     0.84272   0.04755   0.85768   0.00000  Uiso   1.00
H35    H     0.89990   0.67519   0.21022   0.00000  Uiso   1.00
H36    H     0.01082   0.16398   0.78407   0.00000  Uiso   1.00
H37    H     0.78268   0.19952   0.80248   0.00000  Uiso   1.00
O38    O     0.90260   0.80186   0.35312   0.00000  Uiso   1.00
O39    O     0.04813   0.44313   0.79403   0.00000  Uiso   1.00
O40    O     0.74881   0.48977   0.81818   0.00000  Uiso   1.00
N41    N     0.90289   0.05403   0.27857   0.00000  Uiso   1.00
N42    N     0.00660   0.51100   0.88016   0.00000  Uiso   1.00
N43    N     0.79332   0.54426   0.89735   0.00000  Uiso   1.00
N44    N     0.90070   0.80434   0.21809   0.00000  Uiso   1.00
N45    N     0.00441   0.26131   0.81968   0.00000  Uiso   1.00
N46    N     0.79112   0.29457   0.83687   0.00000  Uiso   1.00
C47    C     0.59888   0.10829   0.02405   0.00000  Uiso   1.00
C48    C     0.59893   0.26237   0.07941   0.00000  Uiso   1.00
C49    C     0.59775   0.25284   0.15965   0.00000  Uiso   1.00
C50    C     0.59802   0.40863   0.19995   0.00000  Uiso   1.00
C51    C     0.59787   0.62362   0.29179   0.00000  Uiso   1.00
C52    C     0.57035   0.13644   0.96962   0.00000  Uiso   1.00
C53    C     0.54513   0.02101   0.95754   0.00000  Uiso   1.00
C54    C     0.52134   0.07079   0.90540   0.00000  Uiso   1.00
C55    C     0.47682   0.09021   0.82674   0.00000  Uiso   1.00
C56    C     0.62913   0.12729   0.97437   0.00000  Uiso   1.00
C57    C     0.65334   0.00414   0.96626   0.00000  Uiso   1.00
C58    C     0.67903   0.04620   0.91810   0.00000  Uiso   1.00
C59    C     0.72579   0.05140   0.84682   0.00000  Uiso   1.00
C60    C     0.60147   0.40193   0.95292   0.00000  Uiso   1.00
C61    C     0.60034   0.42186   0.04077   0.00000  Uiso   1.00
C62    C     0.60061   0.57771   0.08096   0.00000  Uiso   1.00
C63    C     0.59943   0.56841   0.16125   0.00000  Uiso   1.00
C64    C     0.57175   0.29593   0.93098   0.00000  Uiso   1.00
C65    C     0.54799   0.34588   0.87884   0.00000  Uiso   1.00
C66    C     0.52274   0.23057   0.86669   0.00000  Uiso   1.00
C67    C     0.63054   0.28678   0.93573   0.00000  Uiso   1.00
C68    C     0.65620   0.32902   0.88757   0.00000  Uiso   1.00
C69    C     0.68044   0.20597   0.87940   0.00000  Uiso   1.00
H70    H     0.59779   0.98412   0.05412   0.00000  Uiso   1.00
H71    H     0.59666   0.12938   0.18953   0.00000  Uiso   1.00
H72    H     0.54405   0.89759   0.98744   0.00000  Uiso   1.00
H73    H     0.65224   0.88074   0.99617   0.00000  Uiso   1.00
H74    H     0.59602   0.36077   0.32262   0.00000  Uiso   1.00
H75    H     0.48510   0.87200   0.89648   0.00000  Uiso   1.00
H76    H     0.71324   0.83644   0.91488   0.00000  Uiso   1.00
H77    H     0.60256   0.52610   0.92283   0.00000  Uiso   1.00
H78    H     0.60170   0.70111   0.05104   0.00000  Uiso   1.00
H79    H     0.54909   0.46931   0.84895   0.00000  Uiso   1.00
H80    H     0.65728   0.45245   0.85768   0.00000  Uiso   1.00
H81    H     0.60010   0.82481   0.21022   0.00000  Uiso   1.00
H82    H     0.48918   0.33602   0.78407   0.00000  Uiso   1.00
H83    H     0.71732   0.30048   0.80248   0.00000  Uiso   1.00
O84    O     0.59740   0.69814   0.35312   0.00000  Uiso   1.00
O85    O     0.45187   0.05687   0.79403   0.00000  Uiso   1.00
O86    O     0.75119   0.01023   0.81818   0.00000  Uiso   1.00
N87    N     0.59711   0.44597   0.27857   0.00000  Uiso   1.00
N88    N     0.49340   0.98900   0.88016   0.00000  Uiso   1.00
N89    N     0.70668   0.95574   0.89735   0.00000  Uiso   1.00
N90    N     0.59930   0.69566   0.21809   0.00000  Uiso   1.00
N91    N     0.49559   0.23869   0.81968   0.00000  Uiso   1.00
N92    N     0.70888   0.20543   0.83687   0.00000  Uiso   1.00
C93    C     0.09888   0.89171   0.47595   0.00000  Uiso   1.00
C94    C     0.09893   0.73763   0.42059   0.00000  Uiso   1.00
C95    C     0.09775   0.74716   0.34035   0.00000  Uiso   1.00
C96    C     0.09802   0.59137   0.30005   0.00000  Uiso   1.00
C97    C     0.09787   0.37638   0.20821   0.00000  Uiso   1.00
C98    C     0.07035   0.86356   0.53038   0.00000  Uiso   1.00
C99    C     0.04513   0.97899   0.54246   0.00000  Uiso   1.00
C100   C     0.02134   0.92921   0.59460   0.00000  Uiso   1.00
C101   C     0.97682   0.90979   0.67326   0.00000  Uiso   1.00
C102   C     0.12913   0.87271   0.52563   0.00000  Uiso   1.00
C103   C     0.15334   0.99586   0.53374   0.00000  Uiso   1.00
C104   C     0.17903   0.95380   0.58190   0.00000  Uiso   1.00
C105   C     0.22579   0.94860   0.65318   0.00000  Uiso   1.00
C106   C     0.10147   0.59807   0.54708   0.00000  Uiso   1.00
C107   C     0.10034   0.57814   0.45923   0.00000  Uiso   1.00
C108   C     0.10061   0.42229   0.41904   0.00000  Uiso   1.00
C109   C     0.09943   0.43159   0.33875   0.00000  Uiso   1.00
C110   C     0.07175   0.70407   0.56902   0.00000  Uiso   1.00
C111   C     0.04799   0.65412   0.62116   0.00000  Uiso   1.00
C112   C     0.02274   0.76943   0.63331   0.00000  Uiso   1.00
C113   C     0.13054   0.71322   0.56427   0.00000  Uiso   1.00
C114   C     0.15620   0.67098   0.61243   0.00000  Uiso   1.00
C115   C     0.18044   0.79403   0.62060   0.00000  Uiso   1.00
H116   H     0.09779   0.01588   0.44588   0.00000  Uiso   1.00
H117   H     0.09666   0.87062   0.31047   0.00000  Uiso   1.00
H118   H     0.04405   0.10241   0.51256   0.00000  Uiso   1.00
H119   H     0.15224   0.11926   0.50383   0.00000  Uiso   1.00
H120   H     0.09602   0.63923   0.17738   0.00000  Uiso   1.00
H121   H     0.98510   0.12800   0.60352   0.00000  Uiso   1.00
H122   H     0.21324   0.16356   0.58512   0.00000  Uiso   1.00
H123   H     0.10256   0.47390   0.57717   0.00000  Uiso   1.00
H124   H     0.10170   0.29889   0.44896   0.00000  Uiso   1.00
H125   H     0.04909   0.53069   0.65105   0.00000  Uiso   1.00
H126   H     0.15728   0.54755   0.64232   0.00000  Uiso   1.00
H127   H     0.10010   0.17519   0.28978   0.00000  Uiso   1.00
H128   H     0.98918   0.66398   0.71593   0.00000  Uiso   1.00
H129   H     0.21732   0.69952   0.69752   0.00000  Uiso   1.00
O130   O     0.09740   0.30186   0.14688   0.00000  Uiso   1.00
O131   O     0.95187   0.94313   0.70597   0.00000  Uiso   1.00
O132   O     0.25119   0.98977   0.68182   0.00000  Uiso   1.00
N133   N     0.09711   0.55403   0.22143   0.00000  Uiso   1.00
N134   N     0.99340   0.01100   0.61984   0.00000  Uiso   1.00
N135   N     0.20668   0.04426   0.60265   0.00000  Uiso   1.00
N136   N     0.09930   0.30434   0.28191   0.00000  Uiso   1.00
N137   N     0.99559   0.76131   0.68032   0.00000  Uiso   1.00
N138   N     0.20888   0.79457   0.66313   0.00000  Uiso   1.00
C139   C     0.40112   0.60829   0.47595   0.00000  Uiso   1.00
C140   C     0.40107   0.76237   0.42059   0.00000  Uiso   1.00
C141   C     0.40225   0.75284   0.34035   0.00000  Uiso   1.00
C142   C     0.40198   0.90863   0.30005   0.00000  Uiso   1.00
C143   C     0.40213   0.12362   0.20821   0.00000  Uiso   1.00
C144   C     0.42965   0.63644   0.53038   0.00000  Uiso   1.00
C145   C     0.45487   0.52101   0.54246   0.00000  Uiso   1.00
C146   C     0.47866   0.57079   0.59460   0.00000  Uiso   1.00
C147   C     0.52318   0.59021   0.67326   0.00000  Uiso   1.00
C148   C     0.37087   0.62729   0.52563   0.00000  Uiso   1.00
C149   C     0.34666   0.50414   0.53374   0.00000  Uiso   1.00
C150   C     0.32097   0.54620   0.58190   0.00000  Uiso   1.00
C151   C     0.27421   0.55140   0.65318   0.00000  Uiso   1.00
C152   C     0.39853   0.90193   0.54708   0.00000  Uiso   1.00
C153   C     0.39966   0.92186   0.45923   0.00000  Uiso   1.00
C154   C     0.39939   0.07771   0.41904   0.00000  Uiso   1.00
C155   C     0.40057   0.06841   0.33875   0.00000  Uiso   1.00
C156   C     0.42825   0.79593   0.56902   0.00000  Uiso   1.00
C157   C     0.45201   0.84588   0.62116   0.00000  Uiso   1.00
C158   C     0.47726   0.73057   0.63331   0.00000  Uiso   1.00
C159   C     0.36946   0.78678   0.56427   0.00000  Uiso   1.00
C160   C     0.34380   0.82902   0.61243   0.00000  Uiso   1.00
C161   C     0.31956   0.70597   0.62060   0.00000  Uiso   1.00
H162   H     0.40221   0.48412   0.44588   0.00000  Uiso   1.00
H163   H     0.40334   0.62938   0.31047   0.00000  Uiso   1.00
H164   H     0.45595   0.39759   0.51256   0.00000  Uiso   1.00
H165   H     0.34776   0.38074   0.50383   0.00000  Uiso   1.00
H166   H     0.40398   0.86077   0.17738   0.00000  Uiso   1.00
H167   H     0.51490   0.37200   0.60352   0.00000  Uiso   1.00
H168   H     0.28676   0.33644   0.58512   0.00000  Uiso   1.00
H169   H     0.39744   0.02610   0.57717   0.00000  Uiso   1.00
H170   H     0.39830   0.20111   0.44896   0.00000  Uiso   1.00
H171   H     0.45091   0.96931   0.65105   0.00000  Uiso   1.00
H172   H     0.34272   0.95245   0.64232   0.00000  Uiso   1.00
H173   H     0.39990   0.32481   0.28978   0.00000  Uiso   1.00
H174   H     0.51082   0.83602   0.71593   0.00000  Uiso   1.00
H175   H     0.28268   0.80048   0.69752   0.00000  Uiso   1.00
O176   O     0.40260   0.19814   0.14688   0.00000  Uiso   1.00
O177   O     0.54813   0.55687   0.70597   0.00000  Uiso   1.00
O178   O     0.24881   0.51023   0.68182   0.00000  Uiso   1.00
N179   N     0.40289   0.94597   0.22143   0.00000  Uiso   1.00
N180   N     0.50660   0.48900   0.61984   0.00000  Uiso   1.00
N181   N     0.29332   0.45574   0.60265   0.00000  Uiso   1.00
N182   N     0.40070   0.19566   0.28191   0.00000  Uiso   1.00
N183   N     0.50441   0.73869   0.68032   0.00000  Uiso   1.00
N184   N     0.29112   0.70543   0.66313   0.00000  Uiso   1.00
C185   C     0.09888   0.60829   0.97595   0.00000  Uiso   1.00
C186   C     0.09893   0.76237   0.92059   0.00000  Uiso   1.00
C187   C     0.09775   0.75284   0.84035   0.00000  Uiso   1.00
C188   C     0.09802   0.90863   0.80005   0.00000  Uiso   1.00
C189   C     0.09787   0.12362   0.70821   0.00000  Uiso   1.00
C190   C     0.07035   0.63644   0.03038   0.00000  Uiso   1.00
C191   C     0.04513   0.52101   0.04246   0.00000  Uiso   1.00
C192   C     0.02134   0.57079   0.09460   0.00000  Uiso   1.00
C193   C     0.97682   0.59021   0.17326   0.00000  Uiso   1.00
C194   C     0.12913   0.62729   0.02563   0.00000  Uiso   1.00
C195   C     0.15334   0.50414   0.03374   0.00000  Uiso   1.00
C196   C     0.17903   0.54620   0.08190   0.00000  Uiso   1.00
C197   C     0.22579   0.55140   0.15318   0.00000  Uiso   1.00
C198   C     0.10147   0.90193   0.04708   0.00000  Uiso   1.00
C199   C     0.10034   0.92186   0.95923   0.00000  Uiso   1.00
C200   C     0.10061   0.07771   0.91904   0.00000  Uiso   1.00
C201   C     0.09943   0.06841   0.83875   0.00000  Uiso   1.00
C202   C     0.07175   0.79593   0.06902   0.00000  Uiso   1.00
C203   C     0.04799   0.84588   0.12116   0.00000  Uiso   1.00
C204   C     0.02274   0.73057   0.13331   0.00000  Uiso   1.00
C205   C     0.13054   0.78678   0.06427   0.00000  Uiso   1.00
C206   C     0.15620   0.82902   0.11243   0.00000  Uiso   1.00
C207   C     0.18044   0.70597   0.12060   0.00000  Uiso   1.00
H208   H     0.09779   0.48412   0.94588   0.00000  Uiso   1.00
H209   H     0.09666   0.62938   0.81047   0.00000  Uiso   1.00
H210   H     0.04405   0.39759   0.01256   0.00000  Uiso   1.00
H211   H     0.15224   0.38074   0.00383   0.00000  Uiso   1.00
H212   H     0.09602   0.86077   0.67738   0.00000  Uiso   1.00
H213   H     0.98510   0.37200   0.10352   0.00000  Uiso   1.00
H214   H     0.21324   0.33644   0.08512   0.00000  Uiso   1.00
H215   H     0.10256   0.02610   0.07717   0.00000  Uiso   1.00
H216   H     0.10170   0.20111   0.94896   0.00000  Uiso   1.00
H217   H     0.04909   0.96931   0.15105   0.00000  Uiso   1.00
H218   H     0.15728   0.95245   0.14232   0.00000  Uiso   1.00
H219   H     0.10010   0.32481   0.78978   0.00000  Uiso   1.00
H220   H     0.98918   0.83602   0.21593   0.00000  Uiso   1.00
H221   H     0.21732   0.80048   0.19752   0.00000  Uiso   1.00
O222   O     0.09740   0.19814   0.64688   0.00000  Uiso   1.00
O223   O     0.95187   0.55687   0.20597   0.00000  Uiso   1.00
O224   O     0.25119   0.51023   0.18182   0.00000  Uiso   1.00
N225   N     0.09711   0.94597   0.72143   0.00000  Uiso   1.00
N226   N     0.99340   0.48900   0.11984   0.00000  Uiso   1.00
N227   N     0.20668   0.45574   0.10265   0.00000  Uiso   1.00
N228   N     0.09930   0.19566   0.78191   0.00000  Uiso   1.00
N229   N     0.99559   0.73869   0.18032   0.00000  Uiso   1.00
N230   N     0.20888   0.70543   0.16313   0.00000  Uiso   1.00
C231   C     0.40112   0.89171   0.97595   0.00000  Uiso   1.00
C232   C     0.40107   0.73763   0.92059   0.00000  Uiso   1.00
C233   C     0.40225   0.74716   0.84035   0.00000  Uiso   1.00
C234   C     0.40198   0.59137   0.80005   0.00000  Uiso   1.00
C235   C     0.40213   0.37638   0.70821   0.00000  Uiso   1.00
C236   C     0.42965   0.86356   0.03038   0.00000  Uiso   1.00
C237   C     0.45487   0.97899   0.04246   0.00000  Uiso   1.00
C238   C     0.47866   0.92921   0.09460   0.00000  Uiso   1.00
C239   C     0.52318   0.90979   0.17326   0.00000  Uiso   1.00
C240   C     0.37087   0.87271   0.02563   0.00000  Uiso   1.00
C241   C     0.34666   0.99586   0.03374   0.00000  Uiso   1.00
C242   C     0.32097   0.95380   0.08190   0.00000  Uiso   1.00
C243   C     0.27421   0.94860   0.15318   0.00000  Uiso   1.00
C244   C     0.39853   0.59807   0.04708   0.00000  Uiso   1.00
C245   C     0.39966   0.57814   0.95923   0.00000  Uiso   1.00
C246   C     0.39939   0.42229   0.91904   0.00000  Uiso   1.00
C247   C     0.40057   0.43159   0.83875   0.00000  Uiso   1.00
C248   C     0.42825   0.70407   0.06902   0.00000  Uiso   1.00
C249   C     0.45201   0.65412   0.12116   0.00000  Uiso   1.00
C250   C     0.47726   0.76943   0.13331   0.00000  Uiso   1.00
C251   C     0.36946   0.71322   0.06427   0.00000  Uiso   1.00
C252   C     0.34380   0.67098   0.11243   0.00000  Uiso   1.00
C253   C     0.31956   0.79403   0.12060   0.00000  Uiso   1.00
H254   H     0.40221   0.01588   0.94588   0.00000  Uiso   1.00
H255   H     0.40334   0.87062   0.81047   0.00000  Uiso   1.00
H256   H     0.45595   0.10241   0.01256   0.00000  Uiso   1.00
H257   H     0.34776   0.11926   0.00383   0.00000  Uiso   1.00
H258   H     0.40398   0.63923   0.67738   0.00000  Uiso   1.00
H259   H     0.51490   0.12800   0.10352   0.00000  Uiso   1.00
H260   H     0.28676   0.16356   0.08512   0.00000  Uiso   1.00
H261   H     0.39744   0.47390   0.07717   0.00000  Uiso   1.00
H262   H     0.39830   0.29889   0.94896   0.00000  Uiso   1.00
H263   H     0.45091   0.53069   0.15105   0.00000  Uiso   1.00
H264   H     0.34272   0.54755   0.14232   0.00000  Uiso   1.00
H265   H     0.39990   0.17519   0.78978   0.00000  Uiso   1.00
H266   H     0.51082   0.66398   0.21593   0.00000  Uiso   1.00
H267   H     0.28268   0.69952   0.19752   0.00000  Uiso   1.00
O268   O     0.40260   0.30186   0.64688   0.00000  Uiso   1.00
O269   O     0.54813   0.94313   0.20597   0.00000  Uiso   1.00
O270   O     0.24881   0.98977   0.18182   0.00000  Uiso   1.00
N271   N     0.40289   0.55403   0.72143   0.00000  Uiso   1.00
N272   N     0.50660   0.01100   0.11984   0.00000  Uiso   1.00
N273   N     0.29332   0.04426   0.10265   0.00000  Uiso   1.00
N274   N     0.40070   0.30434   0.78191   0.00000  Uiso   1.00
N275   N     0.50441   0.76131   0.18032   0.00000  Uiso   1.00
N276   N     0.29112   0.79457   0.16313   0.00000  Uiso   1.00
C277   C     0.90112   0.10829   0.52405   0.00000  Uiso   1.00
C278   C     0.90107   0.26237   0.57941   0.00000  Uiso   1.00
C279   C     0.90225   0.25284   0.65965   0.00000  Uiso   1.00
C280   C     0.90198   0.40863   0.69995   0.00000  Uiso   1.00
C281   C     0.90213   0.62362   0.79179   0.00000  Uiso   1.00
C282   C     0.92965   0.13644   0.46962   0.00000  Uiso   1.00
C283   C     0.95487   0.02101   0.45754   0.00000  Uiso   1.00
C284   C     0.97866   0.07079   0.40540   0.00000  Uiso   1.00
C285   C     0.02318   0.09021   0.32674   0.00000  Uiso   1.00
C286   C     0.87087   0.12729   0.47437   0.00000  Uiso   1.00
C287   C     0.84666   0.00414   0.46626   0.00000  Uiso   1.00
C288   C     0.82097   0.04620   0.41810   0.00000  Uiso   1.00
C289   C     0.77421   0.05140   0.34682   0.00000  Uiso   1.00
C290   C     0.89853   0.40193   0.45292   0.00000  Uiso   1.00
C291   C     0.89966   0.42186   0.54077   0.00000  Uiso   1.00
C292   C     0.89939   0.57771   0.58096   0.00000  Uiso   1.00
C293   C     0.90057   0.56841   0.66125   0.00000  Uiso   1.00
C294   C     0.92825   0.29593   0.43098   0.00000  Uiso   1.00
C295   C     0.95201   0.34588   0.37884   0.00000  Uiso   1.00
C296   C     0.97726   0.23057   0.36669   0.00000  Uiso   1.00
C297   C     0.86946   0.28678   0.43573   0.00000  Uiso   1.00
C298   C     0.84380   0.32902   0.38757   0.00000  Uiso   1.00
C299   C     0.81956   0.20597   0.37940   0.00000  Uiso   1.00
H300   H     0.90221   0.98412   0.55412   0.00000  Uiso   1.00
H301   H     0.90334   0.12938   0.68953   0.00000  Uiso   1.00
H302   H     0.95595   0.89759   0.48744   0.00000  Uiso   1.00
H303   H     0.84776   0.88074   0.49617   0.00000  Uiso   1.00
H304   H     0.90398   0.36077   0.82262   0.00000  Uiso   1.00
H305   H     0.01490   0.87200   0.39648   0.00000  Uiso   1.00
H306   H     0.78676   0.83644   0.41488   0.00000  Uiso   1.00
H307   H     0.89744   0.52610   0.42283   0.00000  Uiso   1.00
H308   H     0.89830   0.70111   0.55104   0.00000  Uiso   1.00
H309   H     0.95091   0.46931   0.34895   0.00000  Uiso   1.00
H310   H     0.84272   0.45245   0.35768   0.00000  Uiso   1.00
H311   H     0.89990   0.82481   0.71022   0.00000  Uiso   1.00
H312   H     0.01082   0.33602   0.28407   0.00000  Uiso   1.00
H313   H     0.78268   0.30048   0.30248   0.00000  Uiso   1.00
O314   O     0.90260   0.69814   0.85312   0.00000  Uiso   1.00
O315   O     0.04813   0.05687   0.29403   0.00000  Uiso   1.00
O316   O     0.74881   0.01023   0.31818   0.00000  Uiso   1.00
N317   N     0.90289   0.44597   0.77857   0.00000  Uiso   1.00
N318   N     0.00660   0.98900   0.38016   0.00000  Uiso   1.00
N319   N     0.79332   0.95574   0.39735   0.00000  Uiso   1.00
N320   N     0.90070   0.69566   0.71809   0.00000  Uiso   1.00
N321   N     0.00441   0.23869   0.31968   0.00000  Uiso   1.00
N322   N     0.79112   0.20543   0.33687   0.00000  Uiso   1.00
C323   C     0.59888   0.39171   0.52405   0.00000  Uiso   1.00
C324   C     0.59893   0.23763   0.57941   0.00000  Uiso   1.00
C325   C     0.59775   0.24716   0.65965   0.00000  Uiso   1.00
C326   C     0.59802   0.09137   0.69995   0.00000  Uiso   1.00
C327   C     0.59787   0.87638   0.79179   0.00000  Uiso   1.00
C328   C     0.57035   0.36356   0.46962   0.00000  Uiso   1.00
C329   C     0.54513   0.47899   0.45754   0.00000  Uiso   1.00
C330   C     0.52134   0.42921   0.40540   0.00000  Uiso   1.00
C331   C     0.47682   0.40979   0.32674   0.00000  Uiso   1.00
C332   C     0.62913   0.37271   0.47437   0.00000  Uiso   1.00
C333   C     0.65334   0.49586   0.46626   0.00000  Uiso   1.00
C334   C     0.67903   0.45380   0.41810   0.00000  Uiso   1.00
C335   C     0.72579   0.44860   0.34682   0.00000  Uiso   1.00
C336   C     0.60147   0.09807   0.45292   0.00000  Uiso   1.00
C337   C     0.60034   0.07814   0.54077   0.00000  Uiso   1.00
C338   C     0.60061   0.92229   0.58096   0.00000  Uiso   1.00
C339   C     0.59943   0.93159   0.66125   0.00000  Uiso   1.00
C340   C     0.57175   0.20407   0.43098   0.00000  Uiso   1.00
C341   C     0.54799   0.15412   0.37884   0.00000  Uiso   1.00
C342   C     0.52274   0.26943   0.36669   0.00000  Uiso   1.00
C343   C     0.63054   0.21322   0.43573   0.00000  Uiso   1.00
C344   C     0.65620   0.17098   0.38757   0.00000  Uiso   1.00
C345   C     0.68044   0.29403   0.37940   0.00000  Uiso   1.00
H346   H     0.59779   0.51588   0.55412   0.00000  Uiso   1.00
H347   H     0.59666   0.37062   0.68953   0.00000  Uiso   1.00
H348   H     0.54405   0.60241   0.48744   0.00000  Uiso   1.00
H349   H     0.65224   0.61926   0.49617   0.00000  Uiso   1.00
H350   H     0.59602   0.13923   0.82262   0.00000  Uiso   1.00
H351   H     0.48510   0.62800   0.39648   0.00000  Uiso   1.00
H352   H     0.71324   0.66356   0.41488   0.00000  Uiso   1.00
H353   H     0.60256   0.97390   0.42283   0.00000  Uiso   1.00
H354   H     0.60170   0.79889   0.55104   0.00000  Uiso   1.00
H355   H     0.54909   0.03069   0.34895   0.00000  Uiso   1.00
H356   H     0.65728   0.04755   0.35768   0.00000  Uiso   1.00
H357   H     0.60010   0.67519   0.71022   0.00000  Uiso   1.00
H358   H     0.48918   0.16398   0.28407   0.00000  Uiso   1.00
H359   H     0.71732   0.19952   0.30248   0.00000  Uiso   1.00
O360   O     0.59740   0.80186   0.85312   0.00000  Uiso   1.00
O361   O     0.45187   0.44313   0.29403   0.00000  Uiso   1.00
O362   O     0.75119   0.48977   0.31818   0.00000  Uiso   1.00
N363   N     0.59711   0.05403   0.77857   0.00000  Uiso   1.00
N364   N     0.49340   0.51100   0.38016   0.00000  Uiso   1.00
N365   N     0.70668   0.54426   0.39735   0.00000  Uiso   1.00
N366   N     0.59930   0.80434   0.71809   0.00000  Uiso   1.00
N367   N     0.49559   0.26131   0.31968   0.00000  Uiso   1.00
N368   N     0.70888   0.29457   0.33687   0.00000  Uiso   1.00
