data_job_06229
_audit_creation_date              2018-12-19
_audit_creation_method            'Materials Studio'
_symmetry_space_group_name_H-M    'P1'
_symmetry_Int_Tables_number       1
_symmetry_cell_setting            triclinic
loop_
_symmetry_equiv_pos_as_xyz
  x,y,z
_cell_length_a                    16.4453
_cell_length_b                    16.3812
_cell_length_c                    16.3127
_cell_angle_alpha                 106.6160
_cell_angle_beta                  106.6320
_cell_angle_gamma                 106.6350
loop_
_atom_site_label
_atom_site_type_symbol
_atom_site_fract_x
_atom_site_fract_y
_atom_site_fract_z
_atom_site_U_iso_or_equiv
_atom_site_adp_type
_atom_site_occupancy
C1     C     0.16406   0.85122   0.40772   0.00000  Uiso   1.00
C2     C     0.19489   0.95626   0.43977   0.00000  Uiso   1.00
C3     C     0.17922   0.01323   0.50938   0.00000  Uiso   1.00
C4     C     0.21296   0.10754   0.52835   0.00000  Uiso   1.00
C5     C     0.25354   0.26516   0.58553   0.00000  Uiso   1.00
C6     C     0.10583   0.80982   0.30297   0.00000  Uiso   1.00
C7     C     0.01528   0.74365   0.25756   0.00000  Uiso   1.00
C8     C     0.97405   0.71468   0.16137   0.00000  Uiso   1.00
C9     C     0.87638   0.64490   0.00616   0.00000  Uiso   1.00
C10    C     0.25161   0.83292   0.41868   0.00000  Uiso   1.00
C11    C     0.28363   0.78616   0.47054   0.00000  Uiso   1.00
C12    C     0.36513   0.77661   0.47175   0.00000  Uiso   1.00
C13    C     0.49381   0.74271   0.49619   0.00000  Uiso   1.00
C14    C     0.25185   0.91738   0.31764   0.00000  Uiso   1.00
C15    C     0.24257   0.99219   0.39084   0.00000  Uiso   1.00
C16    C     0.27635   0.08644   0.40972   0.00000  Uiso   1.00
C17    C     0.26073   0.14354   0.47934   0.00000  Uiso   1.00
C18    C     0.15351   0.84575   0.25404   0.00000  Uiso   1.00
C19    C     0.11241   0.81686   0.15790   0.00000  Uiso   1.00
C20    C     0.02182   0.75068   0.11236   0.00000  Uiso   1.00
C21    C     0.29930   0.86886   0.36976   0.00000  Uiso   1.00
C22    C     0.38076   0.85937   0.37088   0.00000  Uiso   1.00
C23    C     0.41290   0.81261   0.42273   0.00000  Uiso   1.00
H24    H     0.12693   0.82323   0.44580   0.00000  Uiso   1.00
H25    H     0.14231   0.98539   0.54722   0.00000  Uiso   1.00
H26    H     0.97840   0.71585   0.29544   0.00000  Uiso   1.00
H27    H     0.24671   0.75836   0.50839   0.00000  Uiso   1.00
H28    H     0.18036   0.18102   0.63806   0.00000  Uiso   1.00
H29    H     0.83476   0.61265   0.10716   0.00000  Uiso   1.00
H30    H     0.40054   0.70228   0.55620   0.00000  Uiso   1.00
H31    H     0.28897   0.94536   0.27955   0.00000  Uiso   1.00
H32    H     0.31325   0.11423   0.37185   0.00000  Uiso   1.00
H33    H     0.14933   0.84469   0.12006   0.00000  Uiso   1.00
H34    H     0.41764   0.88719   0.33301   0.00000  Uiso   1.00
H35    H     0.31909   0.28559   0.49571   0.00000  Uiso   1.00
H36    H     0.97349   0.71722   0.96481   0.00000  Uiso   1.00
H37    H     0.53927   0.80685   0.41386   0.00000  Uiso   1.00
O38    O     0.26274   0.34218   0.63058   0.00000  Uiso   1.00
O39    O     0.80933   0.59649   0.93406   0.00000  Uiso   1.00
O40    O     0.55162   0.71409   0.52320   0.00000  Uiso   1.00
N41    N     0.20969   0.18246   0.59191   0.00000  Uiso   1.00
N42    N     0.88657   0.65108   0.09555   0.00000  Uiso   1.00
N43    N     0.41552   0.73485   0.51534   0.00000  Uiso   1.00
N44    N     0.28435   0.23872   0.51531   0.00000  Uiso   1.00
N45    N     0.96122   0.70735   0.01895   0.00000  Uiso   1.00
N46    N     0.49017   0.79112   0.43875   0.00000  Uiso   1.00
C47    C     0.40784   0.16383   0.85085   0.00000  Uiso   1.00
C48    C     0.43976   0.19478   0.95634   0.00000  Uiso   1.00
C49    C     0.50880   0.17896   0.01348   0.00000  Uiso   1.00
C50    C     0.52775   0.21285   0.10821   0.00000  Uiso   1.00
C51    C     0.58463   0.25357   0.26650   0.00000  Uiso   1.00
C52    C     0.30392   0.10547   0.80937   0.00000  Uiso   1.00
C53    C     0.25875   0.01458   0.74294   0.00000  Uiso   1.00
C54    C     0.16333   0.97329   0.71394   0.00000  Uiso   1.00
C55    C     0.00931   0.87539   0.64401   0.00000  Uiso   1.00
C56    C     0.41877   0.25173   0.83247   0.00000  Uiso   1.00
C57    C     0.47015   0.28380   0.78543   0.00000  Uiso   1.00
C58    C     0.47142   0.36564   0.77586   0.00000  Uiso   1.00
C59    C     0.49573   0.49483   0.74179   0.00000  Uiso   1.00
C60    C     0.31871   0.25212   0.91744   0.00000  Uiso   1.00
C61    C     0.39134   0.24273   0.99251   0.00000  Uiso   1.00
C62    C     0.41019   0.27665   0.08717   0.00000  Uiso   1.00
C63    C     0.47925   0.26089   0.14445   0.00000  Uiso   1.00
C64    C     0.25550   0.15342   0.84554   0.00000  Uiso   1.00
C65    C     0.16013   0.11227   0.81662   0.00000  Uiso   1.00
C66    C     0.11483   0.02133   0.75018   0.00000  Uiso   1.00
C67    C     0.37036   0.29969   0.86864   0.00000  Uiso   1.00
C68    C     0.37154   0.38149   0.85913   0.00000  Uiso   1.00
C69    C     0.42291   0.41369   0.81210   0.00000  Uiso   1.00
H70    H     0.44553   0.12648   0.82268   0.00000  Uiso   1.00
H71    H     0.54625   0.14184   0.98546   0.00000  Uiso   1.00
H72    H     0.29623   0.97749   0.71495   0.00000  Uiso   1.00
H73    H     0.50760   0.24667   0.75745   0.00000  Uiso   1.00
H74    H     0.63654   0.17998   0.18188   0.00000  Uiso   1.00
H75    H     0.10936   0.83345   0.61148   0.00000  Uiso   1.00
H76    H     0.55508   0.40107   0.70109   0.00000  Uiso   1.00
H77    H     0.28102   0.28946   0.94560   0.00000  Uiso   1.00
H78    H     0.37271   0.31376   0.11514   0.00000  Uiso   1.00
H79    H     0.12269   0.14940   0.84463   0.00000  Uiso   1.00
H80    H     0.33407   0.41858   0.88713   0.00000  Uiso   1.00
H81    H     0.49569   0.31952   0.28714   0.00000  Uiso   1.00
H82    H     0.96850   0.97298   0.71673   0.00000  Uiso   1.00
H83    H     0.41423   0.54060   0.80634   0.00000  Uiso   1.00
O84    O     0.62938   0.26277   0.34381   0.00000  Uiso   1.00
O85    O     0.93773   0.80813   0.59545   0.00000  Uiso   1.00
O86    O     0.52252   0.55284   0.71302   0.00000  Uiso   1.00
N87    N     0.59082   0.20950   0.18339   0.00000  Uiso   1.00
N88    N     0.09793   0.88551   0.65011   0.00000  Uiso   1.00
N89    N     0.51463   0.41617   0.73386   0.00000  Uiso   1.00
N90    N     0.51503   0.28459   0.24003   0.00000  Uiso   1.00
N91    N     0.02214   0.96059   0.70674   0.00000  Uiso   1.00
N92    N     0.43884   0.49126   0.79050   0.00000  Uiso   1.00
C93    C     0.85149   0.40779   0.16364   0.00000  Uiso   1.00
C94    C     0.95612   0.43971   0.19461   0.00000  Uiso   1.00
C95    C     0.01281   0.50897   0.17867   0.00000  Uiso   1.00
C96    C     0.10676   0.52788   0.21260   0.00000  Uiso   1.00
C97    C     0.26376   0.58482   0.25333   0.00000  Uiso   1.00
C98    C     0.81022   0.30346   0.10505   0.00000  Uiso   1.00
C99    C     0.74423   0.25816   0.01381   0.00000  Uiso   1.00
C100   C     0.71535   0.16237   0.97235   0.00000  Uiso   1.00
C101   C     0.64578   0.00776   0.87405   0.00000  Uiso   1.00
C102   C     0.83338   0.41881   0.25197   0.00000  Uiso   1.00
C103   C     0.78684   0.47048   0.28426   0.00000  Uiso   1.00
C104   C     0.77744   0.47178   0.36649   0.00000  Uiso   1.00
C105   C     0.74384   0.49627   0.49631   0.00000  Uiso   1.00
C106   C     0.91752   0.31822   0.25224   0.00000  Uiso   1.00
C107   C     0.99198   0.39106   0.24273   0.00000  Uiso   1.00
C108   C     0.08586   0.40987   0.27670   0.00000  Uiso   1.00
C109   C     0.14269   0.47915   0.26081   0.00000  Uiso   1.00
C110   C     0.84608   0.25481   0.15317   0.00000  Uiso   1.00
C111   C     0.81728   0.15906   0.11184   0.00000  Uiso   1.00
C112   C     0.75127   0.11362   0.02056   0.00000  Uiso   1.00
C113   C     0.86924   0.37016   0.30010   0.00000  Uiso   1.00
C114   C     0.85990   0.37138   0.38229   0.00000  Uiso   1.00
C115   C     0.81337   0.42304   0.41470   0.00000  Uiso   1.00
H116   H     0.82356   0.44566   0.12617   0.00000  Uiso   1.00
H117   H     0.98503   0.54660   0.14142   0.00000  Uiso   1.00
H118   H     0.71648   0.29582   0.97659   0.00000  Uiso   1.00
H119   H     0.75910   0.50811   0.24700   0.00000  Uiso   1.00
H120   H     0.17985   0.63703   0.17952   0.00000  Uiso   1.00
H121   H     0.61359   0.10825   0.83197   0.00000  Uiso   1.00
H122   H     0.70344   0.55591   0.40218   0.00000  Uiso   1.00
H123   H     0.94544   0.28034   0.28971   0.00000  Uiso   1.00
H124   H     0.11360   0.37221   0.31394   0.00000  Uiso   1.00
H125   H     0.84505   0.12143   0.14910   0.00000  Uiso   1.00
H126   H     0.88766   0.33372   0.41951   0.00000  Uiso   1.00
H127   H     0.28420   0.49549   0.31954   0.00000  Uiso   1.00
H128   H     0.71793   0.96671   0.97199   0.00000  Uiso   1.00
H129   H     0.80779   0.41436   0.54220   0.00000  Uiso   1.00
O130   O     0.34045   0.62965   0.26249   0.00000  Uiso   1.00
O131   O     0.59751   0.93592   0.80653   0.00000  Uiso   1.00
O132   O     0.71541   0.52323   0.55463   0.00000  Uiso   1.00
N133   N     0.18134   0.59112   0.20916   0.00000  Uiso   1.00
N134   N     0.65192   0.09675   0.88422   0.00000  Uiso   1.00
N135   N     0.73591   0.51525   0.41731   0.00000  Uiso   1.00
N136   N     0.23749   0.51496   0.28451   0.00000  Uiso   1.00
N137   N     0.70807   0.02059   0.95957   0.00000  Uiso   1.00
N138   N     0.79206   0.43908   0.49265   0.00000  Uiso   1.00
C139   C     0.83594   0.14878   0.59228   0.00000  Uiso   1.00
C140   C     0.80511   0.04374   0.56023   0.00000  Uiso   1.00
C141   C     0.82078   0.98677   0.49062   0.00000  Uiso   1.00
C142   C     0.78704   0.89246   0.47165   0.00000  Uiso   1.00
C143   C     0.74646   0.73484   0.41447   0.00000  Uiso   1.00
C144   C     0.89417   0.19018   0.69703   0.00000  Uiso   1.00
C145   C     0.98472   0.25635   0.74244   0.00000  Uiso   1.00
C146   C     0.02595   0.28532   0.83863   0.00000  Uiso   1.00
C147   C     0.12362   0.35510   0.99384   0.00000  Uiso   1.00
C148   C     0.74839   0.16708   0.58132   0.00000  Uiso   1.00
C149   C     0.71637   0.21384   0.52946   0.00000  Uiso   1.00
C150   C     0.63487   0.22339   0.52825   0.00000  Uiso   1.00
C151   C     0.50619   0.25729   0.50381   0.00000  Uiso   1.00
C152   C     0.74815   0.08262   0.68236   0.00000  Uiso   1.00
C153   C     0.75743   0.00781   0.60916   0.00000  Uiso   1.00
C154   C     0.72365   0.91356   0.59028   0.00000  Uiso   1.00
C155   C     0.73927   0.85646   0.52066   0.00000  Uiso   1.00
C156   C     0.84649   0.15425   0.74595   0.00000  Uiso   1.00
C157   C     0.88759   0.18314   0.84210   0.00000  Uiso   1.00
C158   C     0.97818   0.24932   0.88764   0.00000  Uiso   1.00
C159   C     0.70070   0.13114   0.63024   0.00000  Uiso   1.00
C160   C     0.61924   0.14063   0.62912   0.00000  Uiso   1.00
C161   C     0.58710   0.18739   0.57727   0.00000  Uiso   1.00
H162   H     0.87307   0.17677   0.55420   0.00000  Uiso   1.00
H163   H     0.85769   0.01461   0.45278   0.00000  Uiso   1.00
H164   H     0.02160   0.28415   0.70456   0.00000  Uiso   1.00
H165   H     0.75329   0.24164   0.49161   0.00000  Uiso   1.00
H166   H     0.81964   0.81898   0.36194   0.00000  Uiso   1.00
H167   H     0.16524   0.38735   0.89284   0.00000  Uiso   1.00
H168   H     0.59946   0.29772   0.44380   0.00000  Uiso   1.00
H169   H     0.71103   0.05464   0.72045   0.00000  Uiso   1.00
H170   H     0.68675   0.88577   0.62815   0.00000  Uiso   1.00
H171   H     0.85067   0.15531   0.87994   0.00000  Uiso   1.00
H172   H     0.58236   0.11281   0.66699   0.00000  Uiso   1.00
H173   H     0.68091   0.71441   0.50429   0.00000  Uiso   1.00
H174   H     0.02651   0.28278   0.03519   0.00000  Uiso   1.00
H175   H     0.46073   0.19315   0.58614   0.00000  Uiso   1.00
O176   O     0.73726   0.65782   0.36942   0.00000  Uiso   1.00
O177   O     0.19067   0.40351   0.06594   0.00000  Uiso   1.00
O178   O     0.44838   0.28591   0.47680   0.00000  Uiso   1.00
N179   N     0.79031   0.81754   0.40809   0.00000  Uiso   1.00
N180   N     0.11343   0.34892   0.90445   0.00000  Uiso   1.00
N181   N     0.58448   0.26515   0.48466   0.00000  Uiso   1.00
N182   N     0.71565   0.76127   0.48469   0.00000  Uiso   1.00
N183   N     0.03878   0.29265   0.98105   0.00000  Uiso   1.00
N184   N     0.50983   0.20888   0.56125   0.00000  Uiso   1.00
C185   C     0.59215   0.83617   0.14915   0.00000  Uiso   1.00
C186   C     0.56024   0.80522   0.04366   0.00000  Uiso   1.00
C187   C     0.49120   0.82103   0.98652   0.00000  Uiso   1.00
C188   C     0.47225   0.78715   0.89179   0.00000  Uiso   1.00
C189   C     0.41537   0.74643   0.73350   0.00000  Uiso   1.00
C190   C     0.69608   0.89453   0.19063   0.00000  Uiso   1.00
C191   C     0.74125   0.98542   0.25706   0.00000  Uiso   1.00
C192   C     0.83667   0.02671   0.28606   0.00000  Uiso   1.00
C193   C     0.99069   0.12461   0.35599   0.00000  Uiso   1.00
C194   C     0.58123   0.74827   0.16753   0.00000  Uiso   1.00
C195   C     0.52985   0.71620   0.21457   0.00000  Uiso   1.00
C196   C     0.52858   0.63436   0.22414   0.00000  Uiso   1.00
C197   C     0.50427   0.50517   0.25821   0.00000  Uiso   1.00
C198   C     0.68129   0.74788   0.08256   0.00000  Uiso   1.00
C199   C     0.60866   0.75727   0.00749   0.00000  Uiso   1.00
C200   C     0.58981   0.72335   0.91283   0.00000  Uiso   1.00
C201   C     0.52075   0.73911   0.85555   0.00000  Uiso   1.00
C202   C     0.74450   0.84657   0.15446   0.00000  Uiso   1.00
C203   C     0.83987   0.88773   0.18338   0.00000  Uiso   1.00
C204   C     0.88517   0.97867   0.24982   0.00000  Uiso   1.00
C205   C     0.62964   0.70031   0.13136   0.00000  Uiso   1.00
C206   C     0.62846   0.61851   0.14087   0.00000  Uiso   1.00
C207   C     0.57708   0.58631   0.18790   0.00000  Uiso   1.00
H208   H     0.55447   0.87351   0.17732   0.00000  Uiso   1.00
H209   H     0.45375   0.85816   0.01454   0.00000  Uiso   1.00
H210   H     0.70377   0.02251   0.28505   0.00000  Uiso   1.00
H211   H     0.49240   0.75333   0.24255   0.00000  Uiso   1.00
H212   H     0.36346   0.82002   0.81812   0.00000  Uiso   1.00
H213   H     0.89064   0.16655   0.38852   0.00000  Uiso   1.00
H214   H     0.44492   0.59893   0.29891   0.00000  Uiso   1.00
H215   H     0.71898   0.71054   0.05440   0.00000  Uiso   1.00
H216   H     0.62729   0.68624   0.88486   0.00000  Uiso   1.00
H217   H     0.87731   0.85060   0.15537   0.00000  Uiso   1.00
H218   H     0.66593   0.58142   0.11287   0.00000  Uiso   1.00
H219   H     0.50431   0.68048   0.71286   0.00000  Uiso   1.00
H220   H     0.03150   0.02702   0.28327   0.00000  Uiso   1.00
H221   H     0.58577   0.45940   0.19366   0.00000  Uiso   1.00
O222   O     0.37062   0.73723   0.65619   0.00000  Uiso   1.00
O223   O     0.06227   0.19187   0.40455   0.00000  Uiso   1.00
O224   O     0.47748   0.44716   0.28698   0.00000  Uiso   1.00
N225   N     0.40918   0.79049   0.81661   0.00000  Uiso   1.00
N226   N     0.90207   0.11449   0.34989   0.00000  Uiso   1.00
N227   N     0.48537   0.58383   0.26614   0.00000  Uiso   1.00
N228   N     0.48497   0.71541   0.75997   0.00000  Uiso   1.00
N229   N     0.97786   0.03941   0.29326   0.00000  Uiso   1.00
N230   N     0.56116   0.50874   0.20950   0.00000  Uiso   1.00
C231   C     0.14851   0.59221   0.83636   0.00000  Uiso   1.00
C232   C     0.04388   0.56029   0.80539   0.00000  Uiso   1.00
C233   C     0.98719   0.49103   0.82133   0.00000  Uiso   1.00
C234   C     0.89324   0.47212   0.78740   0.00000  Uiso   1.00
C235   C     0.73624   0.41518   0.74667   0.00000  Uiso   1.00
C236   C     0.18978   0.69654   0.89495   0.00000  Uiso   1.00
C237   C     0.25577   0.74184   0.98619   0.00000  Uiso   1.00
C238   C     0.28465   0.83763   0.02765   0.00000  Uiso   1.00
C239   C     0.35422   0.99224   0.12595   0.00000  Uiso   1.00
C240   C     0.16662   0.58119   0.74803   0.00000  Uiso   1.00
C241   C     0.21316   0.52952   0.71574   0.00000  Uiso   1.00
C242   C     0.22256   0.52822   0.63351   0.00000  Uiso   1.00
C243   C     0.25616   0.50373   0.50369   0.00000  Uiso   1.00
C244   C     0.08248   0.68178   0.74776   0.00000  Uiso   1.00
C245   C     0.00802   0.60894   0.75727   0.00000  Uiso   1.00
C246   C     0.91414   0.59013   0.72330   0.00000  Uiso   1.00
C247   C     0.85731   0.52085   0.73918   0.00000  Uiso   1.00
C248   C     0.15392   0.74519   0.84683   0.00000  Uiso   1.00
C249   C     0.18272   0.84094   0.88816   0.00000  Uiso   1.00
C250   C     0.24873   0.88638   0.97944   0.00000  Uiso   1.00
C251   C     0.13076   0.62984   0.69990   0.00000  Uiso   1.00
C252   C     0.14010   0.62862   0.61771   0.00000  Uiso   1.00
C253   C     0.18663   0.57696   0.58530   0.00000  Uiso   1.00
H254   H     0.17644   0.55434   0.87383   0.00000  Uiso   1.00
H255   H     0.01497   0.45340   0.85858   0.00000  Uiso   1.00
H256   H     0.28352   0.70417   0.02341   0.00000  Uiso   1.00
H257   H     0.24090   0.49189   0.75300   0.00000  Uiso   1.00
H258   H     0.82015   0.36297   0.82048   0.00000  Uiso   1.00
H259   H     0.38641   0.89175   0.16803   0.00000  Uiso   1.00
H260   H     0.29656   0.44409   0.59782   0.00000  Uiso   1.00
H261   H     0.05456   0.71966   0.71029   0.00000  Uiso   1.00
H262   H     0.88640   0.62779   0.68606   0.00000  Uiso   1.00
H263   H     0.15495   0.87857   0.85090   0.00000  Uiso   1.00
H264   H     0.11234   0.66628   0.58049   0.00000  Uiso   1.00
H265   H     0.71580   0.50451   0.68046   0.00000  Uiso   1.00
H266   H     0.28207   0.03329   0.02801   0.00000  Uiso   1.00
H267   H     0.19221   0.58564   0.45780   0.00000  Uiso   1.00
O268   O     0.65955   0.37035   0.73751   0.00000  Uiso   1.00
O269   O     0.40249   0.06408   0.19347   0.00000  Uiso   1.00
O270   O     0.28459   0.47677   0.44537   0.00000  Uiso   1.00
N271   N     0.81866   0.40888   0.79084   0.00000  Uiso   1.00
N272   N     0.34808   0.90325   0.11578   0.00000  Uiso   1.00
N273   N     0.26409   0.48475   0.58269   0.00000  Uiso   1.00
N274   N     0.76251   0.48504   0.71549   0.00000  Uiso   1.00
N275   N     0.29193   0.97941   0.04043   0.00000  Uiso   1.00
N276   N     0.20794   0.56092   0.50735   0.00000  Uiso   1.00
