data_job_02751
_audit_creation_date              2018-12-19
_audit_creation_method            'Materials Studio'
_symmetry_space_group_name_H-M    'P1'
_symmetry_Int_Tables_number       1
_symmetry_cell_setting            triclinic
loop_
_symmetry_equiv_pos_as_xyz
  x,y,z
_cell_length_a                    13.9381
_cell_length_b                    17.1648
_cell_length_c                    14.9723
_cell_angle_alpha                 90.0000
_cell_angle_beta                  119.0501
_cell_angle_gamma                 90.0000
loop_
_atom_site_label
_atom_site_type_symbol
_atom_site_fract_x
_atom_site_fract_y
_atom_site_fract_z
_atom_site_U_iso_or_equiv
_atom_site_adp_type
_atom_site_occupancy
C1     C     0.78192   0.82345   0.90394   0.00000  Uiso   1.00
C2     C     0.78377   0.84614   0.80631   0.00000  Uiso   1.00
C3     C     0.78163   0.92162   0.77219   0.00000  Uiso   1.00
C4     C     0.78386   0.93015   0.68100   0.00000  Uiso   1.00
C5     C     0.78604   0.97522   0.53775   0.00000  Uiso   1.00
C6     C     0.68374   0.76927   0.87103   0.00000  Uiso   1.00
C7     C     0.59751   0.78012   0.89133   0.00000  Uiso   1.00
C8     C     0.51555   0.72393   0.85462   0.00000  Uiso   1.00
C9     C     0.36247   0.64962   0.81191   0.00000  Uiso   1.00
C10    C     0.88355   0.77333   0.96507   0.00000  Uiso   1.00
C11    C     0.96531   0.78758   0.06447   0.00000  Uiso   1.00
C12    C     0.05155   0.73480   0.10696   0.00000  Uiso   1.00
C13    C     0.20871   0.66681   0.21027   0.00000  Uiso   1.00
C14    C     0.78967   0.70436   0.80268   0.00000  Uiso   1.00
C15    C     0.78798   0.78145   0.75131   0.00000  Uiso   1.00
C16    C     0.79021   0.78987   0.66015   0.00000  Uiso   1.00
C17    C     0.78809   0.86535   0.62590   0.00000  Uiso   1.00
C18    C     0.68795   0.70459   0.81603   0.00000  Uiso   1.00
C19    C     0.60610   0.64836   0.77929   0.00000  Uiso   1.00
C20    C     0.51977   0.65913   0.79952   0.00000  Uiso   1.00
C21    C     0.88776   0.70865   0.91008   0.00000  Uiso   1.00
C22    C     0.97389   0.65583   0.95243   0.00000  Uiso   1.00
C23    C     0.05577   0.67000   0.05186   0.00000  Uiso   1.00
H24    H     0.77863   0.87380   0.94676   0.00000  Uiso   1.00
H25    H     0.77836   0.97166   0.81477   0.00000  Uiso   1.00
H26    H     0.59428   0.83017   0.93390   0.00000  Uiso   1.00
H27    H     0.96202   0.83764   0.10700   0.00000  Uiso   1.00
H28    H     0.77988   0.05163   0.64416   0.00000  Uiso   1.00
H29    H     0.39176   0.75328   0.89538   0.00000  Uiso   1.00
H30    H     0.16721   0.76903   0.26041   0.00000  Uiso   1.00
H31    H     0.79295   0.65400   0.75986   0.00000  Uiso   1.00
H32    H     0.79347   0.73980   0.61761   0.00000  Uiso   1.00
H33    H     0.60939   0.59831   0.73674   0.00000  Uiso   1.00
H34    H     0.97713   0.60578   0.90984   0.00000  Uiso   1.00
H35    H     0.79214   0.86345   0.48413   0.00000  Uiso   1.00
H36    H     0.40401   0.56509   0.73536   0.00000  Uiso   1.00
H37    H     0.17946   0.58084   0.10039   0.00000  Uiso   1.00
O38    O     0.78606   0.01795   0.47392   0.00000  Uiso   1.00
O39    O     0.27686   0.62651   0.80354   0.00000  Uiso   1.00
O40    O     0.29424   0.64718   0.28244   0.00000  Uiso   1.00
N41    N     0.78272   0.99557   0.62603   0.00000  Uiso   1.00
N42    N     0.41983   0.71663   0.86089   0.00000  Uiso   1.00
N43    N     0.14480   0.73135   0.20218   0.00000  Uiso   1.00
N44    N     0.78932   0.89431   0.53992   0.00000  Uiso   1.00
N45    N     0.42643   0.61537   0.77478   0.00000  Uiso   1.00
N46    N     0.15140   0.63009   0.11607   0.00000  Uiso   1.00
C47    C     0.21808   0.32345   0.59606   0.00000  Uiso   1.00
C48    C     0.21623   0.34614   0.69369   0.00000  Uiso   1.00
C49    C     0.21837   0.42162   0.72781   0.00000  Uiso   1.00
C50    C     0.21614   0.43015   0.81900   0.00000  Uiso   1.00
C51    C     0.21396   0.47522   0.96225   0.00000  Uiso   1.00
C52    C     0.31626   0.26927   0.62897   0.00000  Uiso   1.00
C53    C     0.40249   0.28012   0.60867   0.00000  Uiso   1.00
C54    C     0.48445   0.22393   0.64538   0.00000  Uiso   1.00
C55    C     0.63753   0.14962   0.68809   0.00000  Uiso   1.00
C56    C     0.11645   0.27333   0.53493   0.00000  Uiso   1.00
C57    C     0.03469   0.28758   0.43553   0.00000  Uiso   1.00
C58    C     0.94845   0.23480   0.39304   0.00000  Uiso   1.00
C59    C     0.79129   0.16681   0.28973   0.00000  Uiso   1.00
C60    C     0.21033   0.20436   0.69732   0.00000  Uiso   1.00
C61    C     0.21202   0.28145   0.74869   0.00000  Uiso   1.00
C62    C     0.20979   0.28987   0.83985   0.00000  Uiso   1.00
C63    C     0.21191   0.36535   0.87410   0.00000  Uiso   1.00
C64    C     0.31205   0.20459   0.68397   0.00000  Uiso   1.00
C65    C     0.39390   0.14836   0.72071   0.00000  Uiso   1.00
C66    C     0.48023   0.15913   0.70048   0.00000  Uiso   1.00
C67    C     0.11224   0.20865   0.58992   0.00000  Uiso   1.00
C68    C     0.02611   0.15583   0.54757   0.00000  Uiso   1.00
C69    C     0.94423   0.17000   0.44814   0.00000  Uiso   1.00
H70    H     0.22137   0.37380   0.55324   0.00000  Uiso   1.00
H71    H     0.22164   0.47166   0.68523   0.00000  Uiso   1.00
H72    H     0.40572   0.33017   0.56610   0.00000  Uiso   1.00
H73    H     0.03798   0.33764   0.39300   0.00000  Uiso   1.00
H74    H     0.22012   0.55163   0.85584   0.00000  Uiso   1.00
H75    H     0.60824   0.25328   0.60462   0.00000  Uiso   1.00
H76    H     0.83279   0.26903   0.23959   0.00000  Uiso   1.00
H77    H     0.20705   0.15400   0.74014   0.00000  Uiso   1.00
H78    H     0.20653   0.23980   0.88239   0.00000  Uiso   1.00
H79    H     0.39061   0.09831   0.76326   0.00000  Uiso   1.00
H80    H     0.02287   0.10578   0.59016   0.00000  Uiso   1.00
H81    H     0.20786   0.36345   0.01587   0.00000  Uiso   1.00
H82    H     0.59599   0.06509   0.76464   0.00000  Uiso   1.00
H83    H     0.82054   0.08084   0.39961   0.00000  Uiso   1.00
O84    O     0.21394   0.51795   0.02608   0.00000  Uiso   1.00
O85    O     0.72314   0.12651   0.69646   0.00000  Uiso   1.00
O86    O     0.70576   0.14718   0.21756   0.00000  Uiso   1.00
N87    N     0.21728   0.49557   0.87397   0.00000  Uiso   1.00
N88    N     0.58017   0.21663   0.63911   0.00000  Uiso   1.00
N89    N     0.85520   0.23135   0.29782   0.00000  Uiso   1.00
N90    N     0.21068   0.39431   0.96008   0.00000  Uiso   1.00
N91    N     0.57357   0.11537   0.72522   0.00000  Uiso   1.00
N92    N     0.84860   0.13009   0.38393   0.00000  Uiso   1.00
C93    C     0.21808   0.17655   0.09606   0.00000  Uiso   1.00
C94    C     0.21623   0.15386   0.19369   0.00000  Uiso   1.00
C95    C     0.21837   0.07838   0.22781   0.00000  Uiso   1.00
C96    C     0.21614   0.06985   0.31900   0.00000  Uiso   1.00
C97    C     0.21396   0.02478   0.46225   0.00000  Uiso   1.00
C98    C     0.31626   0.23073   0.12897   0.00000  Uiso   1.00
C99    C     0.40249   0.21988   0.10867   0.00000  Uiso   1.00
C100   C     0.48445   0.27607   0.14538   0.00000  Uiso   1.00
C101   C     0.63753   0.35038   0.18809   0.00000  Uiso   1.00
C102   C     0.11645   0.22667   0.03493   0.00000  Uiso   1.00
C103   C     0.03469   0.21242   0.93553   0.00000  Uiso   1.00
C104   C     0.94845   0.26520   0.89304   0.00000  Uiso   1.00
C105   C     0.79129   0.33319   0.78973   0.00000  Uiso   1.00
C106   C     0.21033   0.29564   0.19732   0.00000  Uiso   1.00
C107   C     0.21202   0.21855   0.24869   0.00000  Uiso   1.00
C108   C     0.20979   0.21013   0.33985   0.00000  Uiso   1.00
C109   C     0.21191   0.13465   0.37410   0.00000  Uiso   1.00
C110   C     0.31205   0.29541   0.18397   0.00000  Uiso   1.00
C111   C     0.39390   0.35164   0.22071   0.00000  Uiso   1.00
C112   C     0.48023   0.34087   0.20048   0.00000  Uiso   1.00
C113   C     0.11224   0.29135   0.08992   0.00000  Uiso   1.00
C114   C     0.02611   0.34417   0.04757   0.00000  Uiso   1.00
C115   C     0.94423   0.33000   0.94814   0.00000  Uiso   1.00
H116   H     0.22137   0.12620   0.05324   0.00000  Uiso   1.00
H117   H     0.22164   0.02834   0.18523   0.00000  Uiso   1.00
H118   H     0.40572   0.16983   0.06610   0.00000  Uiso   1.00
H119   H     0.03798   0.16236   0.89300   0.00000  Uiso   1.00
H120   H     0.22012   0.94837   0.35584   0.00000  Uiso   1.00
H121   H     0.60824   0.24672   0.10462   0.00000  Uiso   1.00
H122   H     0.83279   0.23097   0.73959   0.00000  Uiso   1.00
H123   H     0.20705   0.34600   0.24014   0.00000  Uiso   1.00
H124   H     0.20653   0.26020   0.38239   0.00000  Uiso   1.00
H125   H     0.39061   0.40169   0.26326   0.00000  Uiso   1.00
H126   H     0.02287   0.39422   0.09016   0.00000  Uiso   1.00
H127   H     0.20786   0.13655   0.51587   0.00000  Uiso   1.00
H128   H     0.59599   0.43491   0.26464   0.00000  Uiso   1.00
H129   H     0.82054   0.41916   0.89961   0.00000  Uiso   1.00
O130   O     0.21394   0.98205   0.52608   0.00000  Uiso   1.00
O131   O     0.72314   0.37349   0.19646   0.00000  Uiso   1.00
O132   O     0.70576   0.35282   0.71756   0.00000  Uiso   1.00
N133   N     0.21728   0.00443   0.37397   0.00000  Uiso   1.00
N134   N     0.58017   0.28337   0.13911   0.00000  Uiso   1.00
N135   N     0.85520   0.26865   0.79782   0.00000  Uiso   1.00
N136   N     0.21068   0.10569   0.46008   0.00000  Uiso   1.00
N137   N     0.57357   0.38463   0.22522   0.00000  Uiso   1.00
N138   N     0.84860   0.36991   0.88393   0.00000  Uiso   1.00
C139   C     0.78192   0.67655   0.40394   0.00000  Uiso   1.00
C140   C     0.78377   0.65386   0.30631   0.00000  Uiso   1.00
C141   C     0.78163   0.57838   0.27219   0.00000  Uiso   1.00
C142   C     0.78386   0.56985   0.18100   0.00000  Uiso   1.00
C143   C     0.78604   0.52478   0.03775   0.00000  Uiso   1.00
C144   C     0.68374   0.73073   0.37103   0.00000  Uiso   1.00
C145   C     0.59751   0.71988   0.39133   0.00000  Uiso   1.00
C146   C     0.51555   0.77607   0.35462   0.00000  Uiso   1.00
C147   C     0.36247   0.85038   0.31191   0.00000  Uiso   1.00
C148   C     0.88355   0.72667   0.46507   0.00000  Uiso   1.00
C149   C     0.96531   0.71242   0.56447   0.00000  Uiso   1.00
C150   C     0.05155   0.76520   0.60696   0.00000  Uiso   1.00
C151   C     0.20871   0.83319   0.71027   0.00000  Uiso   1.00
C152   C     0.78967   0.79564   0.30268   0.00000  Uiso   1.00
C153   C     0.78798   0.71855   0.25131   0.00000  Uiso   1.00
C154   C     0.79021   0.71013   0.16015   0.00000  Uiso   1.00
C155   C     0.78809   0.63465   0.12590   0.00000  Uiso   1.00
C156   C     0.68795   0.79541   0.31603   0.00000  Uiso   1.00
C157   C     0.60610   0.85164   0.27929   0.00000  Uiso   1.00
C158   C     0.51977   0.84087   0.29952   0.00000  Uiso   1.00
C159   C     0.88776   0.79135   0.41008   0.00000  Uiso   1.00
C160   C     0.97389   0.84417   0.45243   0.00000  Uiso   1.00
C161   C     0.05577   0.83000   0.55186   0.00000  Uiso   1.00
H162   H     0.77863   0.62620   0.44676   0.00000  Uiso   1.00
H163   H     0.77836   0.52834   0.31477   0.00000  Uiso   1.00
H164   H     0.59428   0.66983   0.43390   0.00000  Uiso   1.00
H165   H     0.96202   0.66236   0.60700   0.00000  Uiso   1.00
H166   H     0.77988   0.44837   0.14416   0.00000  Uiso   1.00
H167   H     0.39176   0.74672   0.39538   0.00000  Uiso   1.00
H168   H     0.16721   0.73097   0.76041   0.00000  Uiso   1.00
H169   H     0.79295   0.84600   0.25986   0.00000  Uiso   1.00
H170   H     0.79347   0.76020   0.11761   0.00000  Uiso   1.00
H171   H     0.60939   0.90169   0.23674   0.00000  Uiso   1.00
H172   H     0.97713   0.89422   0.40984   0.00000  Uiso   1.00
H173   H     0.79214   0.63655   0.98413   0.00000  Uiso   1.00
H174   H     0.40401   0.93491   0.23536   0.00000  Uiso   1.00
H175   H     0.17946   0.91916   0.60039   0.00000  Uiso   1.00
O176   O     0.78606   0.48205   0.97392   0.00000  Uiso   1.00
O177   O     0.27686   0.87349   0.30354   0.00000  Uiso   1.00
O178   O     0.29424   0.85282   0.78244   0.00000  Uiso   1.00
N179   N     0.78272   0.50443   0.12603   0.00000  Uiso   1.00
N180   N     0.41983   0.78337   0.36089   0.00000  Uiso   1.00
N181   N     0.14480   0.76865   0.70218   0.00000  Uiso   1.00
N182   N     0.78932   0.60569   0.03992   0.00000  Uiso   1.00
N183   N     0.42643   0.88463   0.27478   0.00000  Uiso   1.00
N184   N     0.15140   0.86991   0.61607   0.00000  Uiso   1.00
