data_job_01685
_audit_creation_date              2018-12-19
_audit_creation_method            'Materials Studio'
_symmetry_space_group_name_H-M    'P1'
_symmetry_Int_Tables_number       1
_symmetry_cell_setting            triclinic
loop_
_symmetry_equiv_pos_as_xyz
  x,y,z
_cell_length_a                    25.1250
_cell_length_b                    25.1250
_cell_length_c                    8.8343
_cell_angle_alpha                 90.0000
_cell_angle_beta                  90.0000
_cell_angle_gamma                 90.0000
loop_
_atom_site_label
_atom_site_type_symbol
_atom_site_fract_x
_atom_site_fract_y
_atom_site_fract_z
_atom_site_U_iso_or_equiv
_atom_site_adp_type
_atom_site_occupancy
C1     C     0.00957   0.24591   0.91948   0.00000  Uiso   1.00
C2     C     0.04716   0.23862   0.05340   0.00000  Uiso   1.00
C3     C     0.10130   0.24958   0.05357   0.00000  Uiso   1.00
C4     C     0.12872   0.24022   0.18739   0.00000  Uiso   1.00
C5     C     0.19103   0.23185   0.37570   0.00000  Uiso   1.00
C6     C     0.98369   0.19181   0.89294   0.00000  Uiso   1.00
C7     C     0.98446   0.16343   0.75819   0.00000  Uiso   1.00
C8     C     0.95845   0.11467   0.75692   0.00000  Uiso   1.00
C9     C     0.92218   0.03365   0.69608   0.00000  Uiso   1.00
C10    C     0.96526   0.28256   0.97475   0.00000  Uiso   1.00
C11    C     0.95052   0.33047   0.90876   0.00000  Uiso   1.00
C12    C     0.90899   0.35811   0.97635   0.00000  Uiso   1.00
C13    C     0.84411   0.41799   0.04253   0.00000  Uiso   1.00
C14    C     0.96201   0.20980   0.15683   0.00000  Uiso   1.00
C15    C     0.02133   0.21900   0.18232   0.00000  Uiso   1.00
C16    C     0.04868   0.20962   0.31617   0.00000  Uiso   1.00
C17    C     0.10285   0.22057   0.31654   0.00000  Uiso   1.00
C18    C     0.95786   0.17220   0.02185   0.00000  Uiso   1.00
C19    C     0.93184   0.12347   0.02078   0.00000  Uiso   1.00
C20    C     0.93257   0.09502   0.88607   0.00000  Uiso   1.00
C21    C     0.93943   0.26294   0.10367   0.00000  Uiso   1.00
C22    C     0.89791   0.29051   0.17137   0.00000  Uiso   1.00
C23    C     0.88311   0.33846   0.10550   0.00000  Uiso   1.00
H24    H     0.02968   0.26118   0.81911   0.00000  Uiso   1.00
H25    H     0.12128   0.26475   0.95378   0.00000  Uiso   1.00
H26    H     0.00445   0.17862   0.65844   0.00000  Uiso   1.00
H27    H     0.97052   0.34564   0.80900   0.00000  Uiso   1.00
H28    H     0.21144   0.26004   0.15992   0.00000  Uiso   1.00
H29    H     0.96508   0.07844   0.53716   0.00000  Uiso   1.00
H30    H     0.89355   0.43062   0.85464   0.00000  Uiso   1.00
H31    H     0.94190   0.19453   0.25720   0.00000  Uiso   1.00
H32    H     0.02868   0.19444   0.41591   0.00000  Uiso   1.00
H33    H     0.91185   0.10831   0.12056   0.00000  Uiso   1.00
H34    H     0.87793   0.27532   0.27113   0.00000  Uiso   1.00
H35    H     0.13628   0.20297   0.53500   0.00000  Uiso   1.00
H36    H     0.88993   0.02137   0.91223   0.00000  Uiso   1.00
H37    H     0.81839   0.37355   0.22972   0.00000  Uiso   1.00
O38    O     0.23254   0.23264   0.44395   0.00000  Uiso   1.00
O39    O     0.90932   0.99438   0.62690   0.00000  Uiso   1.00
O40    O     0.81547   0.45644   0.04344   0.00000  Uiso   1.00
N41    N     0.18184   0.24663   0.22642   0.00000  Uiso   1.00
N42    N     0.95152   0.07684   0.64418   0.00000  Uiso   1.00
N43    N     0.88463   0.40610   0.94098   0.00000  Uiso   1.00
N44    N     0.14140   0.21593   0.42825   0.00000  Uiso   1.00
N45    N     0.91108   0.04613   0.84601   0.00000  Uiso   1.00
N46    N     0.84419   0.37539   0.14281   0.00000  Uiso   1.00
C47    C     0.99043   0.75409   0.91948   0.00000  Uiso   1.00
C48    C     0.95284   0.76138   0.05340   0.00000  Uiso   1.00
C49    C     0.89870   0.75042   0.05357   0.00000  Uiso   1.00
C50    C     0.87128   0.75978   0.18739   0.00000  Uiso   1.00
C51    C     0.80897   0.76815   0.37570   0.00000  Uiso   1.00
C52    C     0.01631   0.80819   0.89294   0.00000  Uiso   1.00
C53    C     0.01554   0.83657   0.75819   0.00000  Uiso   1.00
C54    C     0.04155   0.88533   0.75692   0.00000  Uiso   1.00
C55    C     0.07782   0.96635   0.69608   0.00000  Uiso   1.00
C56    C     0.03474   0.71744   0.97475   0.00000  Uiso   1.00
C57    C     0.04948   0.66953   0.90876   0.00000  Uiso   1.00
C58    C     0.09101   0.64189   0.97635   0.00000  Uiso   1.00
C59    C     0.15589   0.58201   0.04253   0.00000  Uiso   1.00
C60    C     0.03799   0.79020   0.15683   0.00000  Uiso   1.00
C61    C     0.97867   0.78100   0.18232   0.00000  Uiso   1.00
C62    C     0.95132   0.79038   0.31617   0.00000  Uiso   1.00
C63    C     0.89715   0.77943   0.31654   0.00000  Uiso   1.00
C64    C     0.04214   0.82780   0.02185   0.00000  Uiso   1.00
C65    C     0.06816   0.87653   0.02078   0.00000  Uiso   1.00
C66    C     0.06743   0.90498   0.88607   0.00000  Uiso   1.00
C67    C     0.06057   0.73706   0.10367   0.00000  Uiso   1.00
C68    C     0.10209   0.70949   0.17137   0.00000  Uiso   1.00
C69    C     0.11689   0.66154   0.10550   0.00000  Uiso   1.00
H70    H     0.97032   0.73882   0.81911   0.00000  Uiso   1.00
H71    H     0.87872   0.73525   0.95378   0.00000  Uiso   1.00
H72    H     0.99555   0.82138   0.65844   0.00000  Uiso   1.00
H73    H     0.02948   0.65436   0.80900   0.00000  Uiso   1.00
H74    H     0.78856   0.73996   0.15992   0.00000  Uiso   1.00
H75    H     0.03492   0.92156   0.53716   0.00000  Uiso   1.00
H76    H     0.10645   0.56938   0.85464   0.00000  Uiso   1.00
H77    H     0.05810   0.80547   0.25720   0.00000  Uiso   1.00
H78    H     0.97132   0.80556   0.41591   0.00000  Uiso   1.00
H79    H     0.08815   0.89169   0.12056   0.00000  Uiso   1.00
H80    H     0.12207   0.72468   0.27113   0.00000  Uiso   1.00
H81    H     0.86372   0.79703   0.53500   0.00000  Uiso   1.00
H82    H     0.11007   0.97863   0.91223   0.00000  Uiso   1.00
H83    H     0.18161   0.62645   0.22972   0.00000  Uiso   1.00
O84    O     0.76746   0.76736   0.44395   0.00000  Uiso   1.00
O85    O     0.09068   0.00562   0.62690   0.00000  Uiso   1.00
O86    O     0.18453   0.54356   0.04344   0.00000  Uiso   1.00
N87    N     0.81816   0.75337   0.22642   0.00000  Uiso   1.00
N88    N     0.04848   0.92316   0.64418   0.00000  Uiso   1.00
N89    N     0.11537   0.59390   0.94098   0.00000  Uiso   1.00
N90    N     0.85860   0.78407   0.42825   0.00000  Uiso   1.00
N91    N     0.08892   0.95387   0.84601   0.00000  Uiso   1.00
N92    N     0.15581   0.62461   0.14281   0.00000  Uiso   1.00
C93    C     0.25409   0.50957   0.41948   0.00000  Uiso   1.00
C94    C     0.26138   0.54716   0.55340   0.00000  Uiso   1.00
C95    C     0.25042   0.60130   0.55357   0.00000  Uiso   1.00
C96    C     0.25978   0.62872   0.68739   0.00000  Uiso   1.00
C97    C     0.26815   0.69103   0.87570   0.00000  Uiso   1.00
C98    C     0.30819   0.48369   0.39294   0.00000  Uiso   1.00
C99    C     0.33657   0.48446   0.25819   0.00000  Uiso   1.00
C100   C     0.38533   0.45845   0.25692   0.00000  Uiso   1.00
C101   C     0.46635   0.42218   0.19608   0.00000  Uiso   1.00
C102   C     0.21744   0.46526   0.47475   0.00000  Uiso   1.00
C103   C     0.16953   0.45052   0.40876   0.00000  Uiso   1.00
C104   C     0.14189   0.40899   0.47635   0.00000  Uiso   1.00
C105   C     0.08201   0.34411   0.54253   0.00000  Uiso   1.00
C106   C     0.29020   0.46201   0.65683   0.00000  Uiso   1.00
C107   C     0.28100   0.52133   0.68232   0.00000  Uiso   1.00
C108   C     0.29038   0.54868   0.81617   0.00000  Uiso   1.00
C109   C     0.27943   0.60285   0.81654   0.00000  Uiso   1.00
C110   C     0.32780   0.45786   0.52185   0.00000  Uiso   1.00
C111   C     0.37653   0.43184   0.52078   0.00000  Uiso   1.00
C112   C     0.40498   0.43257   0.38607   0.00000  Uiso   1.00
C113   C     0.23706   0.43943   0.60367   0.00000  Uiso   1.00
C114   C     0.20949   0.39791   0.67137   0.00000  Uiso   1.00
C115   C     0.16154   0.38311   0.60550   0.00000  Uiso   1.00
H116   H     0.23882   0.52968   0.31911   0.00000  Uiso   1.00
H117   H     0.23525   0.62128   0.45378   0.00000  Uiso   1.00
H118   H     0.32138   0.50445   0.15844   0.00000  Uiso   1.00
H119   H     0.15436   0.47052   0.30900   0.00000  Uiso   1.00
H120   H     0.23996   0.71144   0.65992   0.00000  Uiso   1.00
H121   H     0.42156   0.46508   0.03716   0.00000  Uiso   1.00
H122   H     0.06938   0.39355   0.35464   0.00000  Uiso   1.00
H123   H     0.30547   0.44190   0.75720   0.00000  Uiso   1.00
H124   H     0.30556   0.52868   0.91591   0.00000  Uiso   1.00
H125   H     0.39169   0.41185   0.62056   0.00000  Uiso   1.00
H126   H     0.22468   0.37793   0.77113   0.00000  Uiso   1.00
H127   H     0.29703   0.63628   0.03500   0.00000  Uiso   1.00
H128   H     0.47863   0.38993   0.41223   0.00000  Uiso   1.00
H129   H     0.12645   0.31839   0.72972   0.00000  Uiso   1.00
O130   O     0.26736   0.73254   0.94395   0.00000  Uiso   1.00
O131   O     0.50562   0.40932   0.12690   0.00000  Uiso   1.00
O132   O     0.04356   0.31547   0.54344   0.00000  Uiso   1.00
N133   N     0.25337   0.68184   0.72642   0.00000  Uiso   1.00
N134   N     0.42316   0.45152   0.14418   0.00000  Uiso   1.00
N135   N     0.09390   0.38463   0.44098   0.00000  Uiso   1.00
N136   N     0.28407   0.64140   0.92825   0.00000  Uiso   1.00
N137   N     0.45387   0.41108   0.34601   0.00000  Uiso   1.00
N138   N     0.12461   0.34419   0.64281   0.00000  Uiso   1.00
C139   C     0.74591   0.49043   0.41948   0.00000  Uiso   1.00
C140   C     0.73862   0.45284   0.55340   0.00000  Uiso   1.00
C141   C     0.74958   0.39870   0.55357   0.00000  Uiso   1.00
C142   C     0.74022   0.37128   0.68739   0.00000  Uiso   1.00
C143   C     0.73185   0.30897   0.87570   0.00000  Uiso   1.00
C144   C     0.69181   0.51631   0.39294   0.00000  Uiso   1.00
C145   C     0.66343   0.51554   0.25819   0.00000  Uiso   1.00
C146   C     0.61467   0.54155   0.25692   0.00000  Uiso   1.00
C147   C     0.53365   0.57782   0.19608   0.00000  Uiso   1.00
C148   C     0.78256   0.53474   0.47475   0.00000  Uiso   1.00
C149   C     0.83047   0.54948   0.40876   0.00000  Uiso   1.00
C150   C     0.85811   0.59101   0.47635   0.00000  Uiso   1.00
C151   C     0.91799   0.65589   0.54253   0.00000  Uiso   1.00
C152   C     0.70980   0.53799   0.65683   0.00000  Uiso   1.00
C153   C     0.71900   0.47867   0.68232   0.00000  Uiso   1.00
C154   C     0.70962   0.45132   0.81617   0.00000  Uiso   1.00
C155   C     0.72057   0.39715   0.81654   0.00000  Uiso   1.00
C156   C     0.67220   0.54214   0.52185   0.00000  Uiso   1.00
C157   C     0.62347   0.56816   0.52078   0.00000  Uiso   1.00
C158   C     0.59502   0.56743   0.38607   0.00000  Uiso   1.00
C159   C     0.76294   0.56057   0.60367   0.00000  Uiso   1.00
C160   C     0.79051   0.60209   0.67137   0.00000  Uiso   1.00
C161   C     0.83846   0.61689   0.60550   0.00000  Uiso   1.00
H162   H     0.76118   0.47032   0.31911   0.00000  Uiso   1.00
H163   H     0.76475   0.37872   0.45378   0.00000  Uiso   1.00
H164   H     0.67862   0.49555   0.15844   0.00000  Uiso   1.00
H165   H     0.84564   0.52948   0.30900   0.00000  Uiso   1.00
H166   H     0.76004   0.28856   0.65992   0.00000  Uiso   1.00
H167   H     0.57844   0.53492   0.03716   0.00000  Uiso   1.00
H168   H     0.93062   0.60645   0.35464   0.00000  Uiso   1.00
H169   H     0.69453   0.55810   0.75720   0.00000  Uiso   1.00
H170   H     0.69444   0.47132   0.91591   0.00000  Uiso   1.00
H171   H     0.60831   0.58815   0.62056   0.00000  Uiso   1.00
H172   H     0.77532   0.62207   0.77113   0.00000  Uiso   1.00
H173   H     0.70297   0.36372   0.03500   0.00000  Uiso   1.00
H174   H     0.52137   0.61007   0.41223   0.00000  Uiso   1.00
H175   H     0.87355   0.68161   0.72972   0.00000  Uiso   1.00
O176   O     0.73264   0.26746   0.94395   0.00000  Uiso   1.00
O177   O     0.49438   0.59068   0.12690   0.00000  Uiso   1.00
O178   O     0.95644   0.68453   0.54344   0.00000  Uiso   1.00
N179   N     0.74663   0.31816   0.72642   0.00000  Uiso   1.00
N180   N     0.57684   0.54848   0.14418   0.00000  Uiso   1.00
N181   N     0.90610   0.61537   0.44098   0.00000  Uiso   1.00
N182   N     0.71593   0.35860   0.92825   0.00000  Uiso   1.00
N183   N     0.54613   0.58892   0.34601   0.00000  Uiso   1.00
N184   N     0.87539   0.65581   0.64281   0.00000  Uiso   1.00
C185   C     0.49043   0.25409   0.58052   0.00000  Uiso   1.00
C186   C     0.45284   0.26138   0.44660   0.00000  Uiso   1.00
C187   C     0.39870   0.25042   0.44643   0.00000  Uiso   1.00
C188   C     0.37128   0.25978   0.31261   0.00000  Uiso   1.00
C189   C     0.30897   0.26815   0.12430   0.00000  Uiso   1.00
C190   C     0.51631   0.30819   0.60706   0.00000  Uiso   1.00
C191   C     0.51554   0.33657   0.74181   0.00000  Uiso   1.00
C192   C     0.54155   0.38533   0.74308   0.00000  Uiso   1.00
C193   C     0.57782   0.46635   0.80392   0.00000  Uiso   1.00
C194   C     0.53474   0.21744   0.52525   0.00000  Uiso   1.00
C195   C     0.54948   0.16953   0.59124   0.00000  Uiso   1.00
C196   C     0.59101   0.14189   0.52365   0.00000  Uiso   1.00
C197   C     0.65589   0.08201   0.45747   0.00000  Uiso   1.00
C198   C     0.53799   0.29020   0.34317   0.00000  Uiso   1.00
C199   C     0.47867   0.28100   0.31768   0.00000  Uiso   1.00
C200   C     0.45132   0.29038   0.18383   0.00000  Uiso   1.00
C201   C     0.39715   0.27943   0.18346   0.00000  Uiso   1.00
C202   C     0.54214   0.32780   0.47815   0.00000  Uiso   1.00
C203   C     0.56816   0.37653   0.47922   0.00000  Uiso   1.00
C204   C     0.56743   0.40498   0.61393   0.00000  Uiso   1.00
C205   C     0.56057   0.23706   0.39633   0.00000  Uiso   1.00
C206   C     0.60209   0.20949   0.32863   0.00000  Uiso   1.00
C207   C     0.61689   0.16154   0.39450   0.00000  Uiso   1.00
H208   H     0.47032   0.23882   0.68089   0.00000  Uiso   1.00
H209   H     0.37872   0.23525   0.54622   0.00000  Uiso   1.00
H210   H     0.49555   0.32138   0.84156   0.00000  Uiso   1.00
H211   H     0.52948   0.15436   0.69100   0.00000  Uiso   1.00
H212   H     0.28856   0.23996   0.34008   0.00000  Uiso   1.00
H213   H     0.53492   0.42156   0.96284   0.00000  Uiso   1.00
H214   H     0.60645   0.06938   0.64536   0.00000  Uiso   1.00
H215   H     0.55810   0.30547   0.24280   0.00000  Uiso   1.00
H216   H     0.47132   0.30556   0.08409   0.00000  Uiso   1.00
H217   H     0.58815   0.39169   0.37944   0.00000  Uiso   1.00
H218   H     0.62207   0.22468   0.22887   0.00000  Uiso   1.00
H219   H     0.36372   0.29703   0.96500   0.00000  Uiso   1.00
H220   H     0.61007   0.47863   0.58777   0.00000  Uiso   1.00
H221   H     0.68161   0.12645   0.27028   0.00000  Uiso   1.00
O222   O     0.26746   0.26736   0.05605   0.00000  Uiso   1.00
O223   O     0.59068   0.50562   0.87310   0.00000  Uiso   1.00
O224   O     0.68453   0.04356   0.45656   0.00000  Uiso   1.00
N225   N     0.31816   0.25337   0.27358   0.00000  Uiso   1.00
N226   N     0.54848   0.42316   0.85582   0.00000  Uiso   1.00
N227   N     0.61537   0.09390   0.55902   0.00000  Uiso   1.00
N228   N     0.35860   0.28407   0.07175   0.00000  Uiso   1.00
N229   N     0.58892   0.45387   0.65399   0.00000  Uiso   1.00
N230   N     0.65581   0.12461   0.35719   0.00000  Uiso   1.00
C231   C     0.50957   0.74591   0.58052   0.00000  Uiso   1.00
C232   C     0.54716   0.73862   0.44660   0.00000  Uiso   1.00
C233   C     0.60130   0.74958   0.44643   0.00000  Uiso   1.00
C234   C     0.62872   0.74022   0.31261   0.00000  Uiso   1.00
C235   C     0.69103   0.73185   0.12430   0.00000  Uiso   1.00
C236   C     0.48369   0.69181   0.60706   0.00000  Uiso   1.00
C237   C     0.48446   0.66343   0.74181   0.00000  Uiso   1.00
C238   C     0.45845   0.61467   0.74308   0.00000  Uiso   1.00
C239   C     0.42218   0.53365   0.80392   0.00000  Uiso   1.00
C240   C     0.46526   0.78256   0.52525   0.00000  Uiso   1.00
C241   C     0.45052   0.83047   0.59124   0.00000  Uiso   1.00
C242   C     0.40899   0.85811   0.52365   0.00000  Uiso   1.00
C243   C     0.34411   0.91799   0.45747   0.00000  Uiso   1.00
C244   C     0.46201   0.70980   0.34317   0.00000  Uiso   1.00
C245   C     0.52133   0.71900   0.31768   0.00000  Uiso   1.00
C246   C     0.54868   0.70962   0.18383   0.00000  Uiso   1.00
C247   C     0.60285   0.72057   0.18346   0.00000  Uiso   1.00
C248   C     0.45786   0.67220   0.47815   0.00000  Uiso   1.00
C249   C     0.43184   0.62347   0.47922   0.00000  Uiso   1.00
C250   C     0.43257   0.59502   0.61393   0.00000  Uiso   1.00
C251   C     0.43943   0.76294   0.39633   0.00000  Uiso   1.00
C252   C     0.39791   0.79051   0.32863   0.00000  Uiso   1.00
C253   C     0.38311   0.83846   0.39450   0.00000  Uiso   1.00
H254   H     0.52968   0.76118   0.68089   0.00000  Uiso   1.00
H255   H     0.62128   0.76475   0.54622   0.00000  Uiso   1.00
H256   H     0.50445   0.67862   0.84156   0.00000  Uiso   1.00
H257   H     0.47052   0.84564   0.69100   0.00000  Uiso   1.00
H258   H     0.71144   0.76004   0.34008   0.00000  Uiso   1.00
H259   H     0.46508   0.57844   0.96284   0.00000  Uiso   1.00
H260   H     0.39355   0.93062   0.64536   0.00000  Uiso   1.00
H261   H     0.44190   0.69453   0.24280   0.00000  Uiso   1.00
H262   H     0.52868   0.69444   0.08409   0.00000  Uiso   1.00
H263   H     0.41185   0.60831   0.37944   0.00000  Uiso   1.00
H264   H     0.37793   0.77532   0.22887   0.00000  Uiso   1.00
H265   H     0.63628   0.70297   0.96500   0.00000  Uiso   1.00
H266   H     0.38993   0.52137   0.58777   0.00000  Uiso   1.00
H267   H     0.31839   0.87355   0.27028   0.00000  Uiso   1.00
O268   O     0.73254   0.73264   0.05605   0.00000  Uiso   1.00
O269   O     0.40932   0.49438   0.87310   0.00000  Uiso   1.00
O270   O     0.31547   0.95644   0.45656   0.00000  Uiso   1.00
N271   N     0.68184   0.74663   0.27358   0.00000  Uiso   1.00
N272   N     0.45152   0.57684   0.85582   0.00000  Uiso   1.00
N273   N     0.38463   0.90610   0.55902   0.00000  Uiso   1.00
N274   N     0.64140   0.71593   0.07175   0.00000  Uiso   1.00
N275   N     0.41108   0.54613   0.65399   0.00000  Uiso   1.00
N276   N     0.34419   0.87539   0.35719   0.00000  Uiso   1.00
C277   C     0.24591   0.99043   0.08052   0.00000  Uiso   1.00
C278   C     0.23862   0.95284   0.94660   0.00000  Uiso   1.00
C279   C     0.24958   0.89870   0.94643   0.00000  Uiso   1.00
C280   C     0.24022   0.87128   0.81261   0.00000  Uiso   1.00
C281   C     0.23185   0.80897   0.62430   0.00000  Uiso   1.00
C282   C     0.19181   0.01631   0.10706   0.00000  Uiso   1.00
C283   C     0.16343   0.01554   0.24181   0.00000  Uiso   1.00
C284   C     0.11467   0.04155   0.24308   0.00000  Uiso   1.00
C285   C     0.03365   0.07782   0.30392   0.00000  Uiso   1.00
C286   C     0.28256   0.03474   0.02525   0.00000  Uiso   1.00
C287   C     0.33047   0.04948   0.09124   0.00000  Uiso   1.00
C288   C     0.35811   0.09101   0.02365   0.00000  Uiso   1.00
C289   C     0.41799   0.15589   0.95747   0.00000  Uiso   1.00
C290   C     0.20980   0.03799   0.84317   0.00000  Uiso   1.00
C291   C     0.21900   0.97867   0.81768   0.00000  Uiso   1.00
C292   C     0.20962   0.95132   0.68383   0.00000  Uiso   1.00
C293   C     0.22057   0.89715   0.68346   0.00000  Uiso   1.00
C294   C     0.17220   0.04214   0.97815   0.00000  Uiso   1.00
C295   C     0.12347   0.06816   0.97922   0.00000  Uiso   1.00
C296   C     0.09502   0.06743   0.11393   0.00000  Uiso   1.00
C297   C     0.26294   0.06057   0.89633   0.00000  Uiso   1.00
C298   C     0.29051   0.10209   0.82863   0.00000  Uiso   1.00
C299   C     0.33846   0.11689   0.89450   0.00000  Uiso   1.00
H300   H     0.26118   0.97032   0.18089   0.00000  Uiso   1.00
H301   H     0.26475   0.87872   0.04622   0.00000  Uiso   1.00
H302   H     0.17862   0.99555   0.34156   0.00000  Uiso   1.00
H303   H     0.34564   0.02948   0.19100   0.00000  Uiso   1.00
H304   H     0.26004   0.78856   0.84008   0.00000  Uiso   1.00
H305   H     0.07844   0.03492   0.46284   0.00000  Uiso   1.00
H306   H     0.43062   0.10645   0.14536   0.00000  Uiso   1.00
H307   H     0.19453   0.05810   0.74280   0.00000  Uiso   1.00
H308   H     0.19444   0.97132   0.58409   0.00000  Uiso   1.00
H309   H     0.10831   0.08815   0.87944   0.00000  Uiso   1.00
H310   H     0.27532   0.12207   0.72887   0.00000  Uiso   1.00
H311   H     0.20297   0.86372   0.46500   0.00000  Uiso   1.00
H312   H     0.02137   0.11007   0.08777   0.00000  Uiso   1.00
H313   H     0.37355   0.18161   0.77028   0.00000  Uiso   1.00
O314   O     0.23264   0.76746   0.55605   0.00000  Uiso   1.00
O315   O     0.99438   0.09068   0.37310   0.00000  Uiso   1.00
O316   O     0.45644   0.18453   0.95656   0.00000  Uiso   1.00
N317   N     0.24663   0.81816   0.77358   0.00000  Uiso   1.00
N318   N     0.07684   0.04848   0.35582   0.00000  Uiso   1.00
N319   N     0.40610   0.11537   0.05902   0.00000  Uiso   1.00
N320   N     0.21593   0.85860   0.57175   0.00000  Uiso   1.00
N321   N     0.04613   0.08892   0.15399   0.00000  Uiso   1.00
N322   N     0.37539   0.15581   0.85719   0.00000  Uiso   1.00
C323   C     0.75409   0.00957   0.08052   0.00000  Uiso   1.00
C324   C     0.76138   0.04716   0.94660   0.00000  Uiso   1.00
C325   C     0.75042   0.10130   0.94643   0.00000  Uiso   1.00
C326   C     0.75978   0.12872   0.81261   0.00000  Uiso   1.00
C327   C     0.76815   0.19103   0.62430   0.00000  Uiso   1.00
C328   C     0.80819   0.98369   0.10706   0.00000  Uiso   1.00
C329   C     0.83657   0.98446   0.24181   0.00000  Uiso   1.00
C330   C     0.88533   0.95845   0.24308   0.00000  Uiso   1.00
C331   C     0.96635   0.92218   0.30392   0.00000  Uiso   1.00
C332   C     0.71744   0.96526   0.02525   0.00000  Uiso   1.00
C333   C     0.66953   0.95052   0.09124   0.00000  Uiso   1.00
C334   C     0.64189   0.90899   0.02365   0.00000  Uiso   1.00
C335   C     0.58201   0.84411   0.95747   0.00000  Uiso   1.00
C336   C     0.79020   0.96201   0.84317   0.00000  Uiso   1.00
C337   C     0.78100   0.02133   0.81768   0.00000  Uiso   1.00
C338   C     0.79038   0.04868   0.68383   0.00000  Uiso   1.00
C339   C     0.77943   0.10285   0.68346   0.00000  Uiso   1.00
C340   C     0.82780   0.95786   0.97815   0.00000  Uiso   1.00
C341   C     0.87653   0.93184   0.97922   0.00000  Uiso   1.00
C342   C     0.90498   0.93257   0.11393   0.00000  Uiso   1.00
C343   C     0.73706   0.93943   0.89633   0.00000  Uiso   1.00
C344   C     0.70949   0.89791   0.82863   0.00000  Uiso   1.00
C345   C     0.66154   0.88311   0.89450   0.00000  Uiso   1.00
H346   H     0.73882   0.02968   0.18089   0.00000  Uiso   1.00
H347   H     0.73525   0.12128   0.04622   0.00000  Uiso   1.00
H348   H     0.82138   0.00445   0.34156   0.00000  Uiso   1.00
H349   H     0.65436   0.97052   0.19100   0.00000  Uiso   1.00
H350   H     0.73996   0.21144   0.84008   0.00000  Uiso   1.00
H351   H     0.92156   0.96508   0.46284   0.00000  Uiso   1.00
H352   H     0.56938   0.89355   0.14536   0.00000  Uiso   1.00
H353   H     0.80547   0.94190   0.74280   0.00000  Uiso   1.00
H354   H     0.80556   0.02868   0.58409   0.00000  Uiso   1.00
H355   H     0.89169   0.91185   0.87944   0.00000  Uiso   1.00
H356   H     0.72468   0.87793   0.72887   0.00000  Uiso   1.00
H357   H     0.79703   0.13628   0.46500   0.00000  Uiso   1.00
H358   H     0.97863   0.88993   0.08777   0.00000  Uiso   1.00
H359   H     0.62645   0.81839   0.77028   0.00000  Uiso   1.00
O360   O     0.76736   0.23254   0.55605   0.00000  Uiso   1.00
O361   O     0.00562   0.90932   0.37310   0.00000  Uiso   1.00
O362   O     0.54356   0.81547   0.95656   0.00000  Uiso   1.00
N363   N     0.75337   0.18184   0.77358   0.00000  Uiso   1.00
N364   N     0.92316   0.95152   0.35582   0.00000  Uiso   1.00
N365   N     0.59390   0.88463   0.05902   0.00000  Uiso   1.00
N366   N     0.78407   0.14140   0.57175   0.00000  Uiso   1.00
N367   N     0.95387   0.91108   0.15399   0.00000  Uiso   1.00
N368   N     0.62461   0.84419   0.85719   0.00000  Uiso   1.00
