data_job_02675
_audit_creation_date              2018-12-19
_audit_creation_method            'Materials Studio'
_symmetry_space_group_name_H-M    'P1'
_symmetry_Int_Tables_number       1
_symmetry_cell_setting            triclinic
loop_
_symmetry_equiv_pos_as_xyz
  x,y,z
_cell_length_a                    12.3438
_cell_length_b                    12.3438
_cell_length_c                    15.3403
_cell_angle_alpha                 90.0000
_cell_angle_beta                  90.0000
_cell_angle_gamma                 120.0000
loop_
_atom_site_label
_atom_site_type_symbol
_atom_site_fract_x
_atom_site_fract_y
_atom_site_fract_z
_atom_site_U_iso_or_equiv
_atom_site_adp_type
_atom_site_occupancy
C1     C     0.04429   0.57470   0.87520   0.00000  Uiso   1.00
C2     C     0.13840   0.64647   0.80319   0.00000  Uiso   1.00
C3     C     0.20611   0.77563   0.79440   0.00000  Uiso   1.00
C4     C     0.28746   0.82315   0.72407   0.00000  Uiso   1.00
C5     C     0.43157   0.94659   0.62127   0.00000  Uiso   1.00
C6     C     0.92202   0.48546   0.82925   0.00000  Uiso   1.00
C7     C     0.80780   0.47923   0.84239   0.00000  Uiso   1.00
C8     C     0.70700   0.39119   0.79400   0.00000  Uiso   1.00
C9     C     0.51515   0.26460   0.73170   0.00000  Uiso   1.00
C10    C     0.08894   0.49262   0.91826   0.00000  Uiso   1.00
C11    C     0.11502   0.49238   0.00624   0.00000  Uiso   1.00
C12    C     0.15473   0.41035   0.03279   0.00000  Uiso   1.00
C13    C     0.22204   0.29487   0.10870   0.00000  Uiso   1.00
C14    C     0.06839   0.42943   0.76592   0.00000  Uiso   1.00
C15    C     0.15149   0.56756   0.74384   0.00000  Uiso   1.00
C16    C     0.23277   0.61490   0.67350   0.00000  Uiso   1.00
C17    C     0.30059   0.74410   0.66461   0.00000  Uiso   1.00
C18    C     0.93511   0.40655   0.76990   0.00000  Uiso   1.00
C19    C     0.83446   0.31850   0.72149   0.00000  Uiso   1.00
C20    C     0.72012   0.31214   0.73454   0.00000  Uiso   1.00
C21    C     0.10203   0.41371   0.85891   0.00000  Uiso   1.00
C22    C     0.14170   0.33166   0.88534   0.00000  Uiso   1.00
C23    C     0.16784   0.33130   0.97333   0.00000  Uiso   1.00
H24    H     0.03409   0.63613   0.92141   0.00000  Uiso   1.00
H25    H     0.19594   0.83666   0.84034   0.00000  Uiso   1.00
H26    H     0.79769   0.54030   0.88833   0.00000  Uiso   1.00
H27    H     0.10488   0.55345   0.05215   0.00000  Uiso   1.00
H28    H     0.38112   0.02418   0.72428   0.00000  Uiso   1.00
H29    H     0.54139   0.39926   0.82548   0.00000  Uiso   1.00
H30    H     0.18915   0.42700   0.17093   0.00000  Uiso   1.00
H31    H     0.07858   0.36799   0.71971   0.00000  Uiso   1.00
H32    H     0.24288   0.55381   0.62758   0.00000  Uiso   1.00
H33    H     0.84463   0.25745   0.67557   0.00000  Uiso   1.00
H34    H     0.15181   0.27061   0.83939   0.00000  Uiso   1.00
H35    H     0.41922   0.79461   0.55159   0.00000  Uiso   1.00
H36    H     0.57948   0.16968   0.65279   0.00000  Uiso   1.00
H37    H     0.22724   0.19743   0.99824   0.00000  Uiso   1.00
O38    O     0.50742   0.03647   0.58095   0.00000  Uiso   1.00
O39    O     0.40572   0.21658   0.71373   0.00000  Uiso   1.00
O40    O     0.25557   0.25298   0.16695   0.00000  Uiso   1.00
N41    N     0.36756   0.94465   0.69629   0.00000  Uiso   1.00
N42    N     0.58246   0.36040   0.79089   0.00000  Uiso   1.00
N43    N     0.18803   0.38631   0.11387   0.00000  Uiso   1.00
N44    N     0.38806   0.82112   0.60337   0.00000  Uiso   1.00
N45    N     0.60296   0.23687   0.69797   0.00000  Uiso   1.00
N46    N     0.20853   0.26278   0.02095   0.00000  Uiso   1.00
C47    C     0.42530   0.46958   0.54186   0.00000  Uiso   1.00
C48    C     0.35353   0.49193   0.46986   0.00000  Uiso   1.00
C49    C     0.22437   0.43048   0.46107   0.00000  Uiso   1.00
C50    C     0.17685   0.46432   0.39074   0.00000  Uiso   1.00
C51    C     0.05341   0.48498   0.28793   0.00000  Uiso   1.00
C52    C     0.51454   0.43656   0.49592   0.00000  Uiso   1.00
C53    C     0.52077   0.32857   0.50905   0.00000  Uiso   1.00
C54    C     0.60881   0.31581   0.46067   0.00000  Uiso   1.00
C55    C     0.73540   0.25055   0.39837   0.00000  Uiso   1.00
C56    C     0.50738   0.59632   0.58493   0.00000  Uiso   1.00
C57    C     0.50762   0.62264   0.67290   0.00000  Uiso   1.00
C58    C     0.58965   0.74439   0.69946   0.00000  Uiso   1.00
C59    C     0.70513   0.92717   0.77536   0.00000  Uiso   1.00
C60    C     0.57057   0.63896   0.43259   0.00000  Uiso   1.00
C61    C     0.43244   0.58393   0.41051   0.00000  Uiso   1.00
C62    C     0.38510   0.61787   0.34017   0.00000  Uiso   1.00
C63    C     0.25590   0.55648   0.33128   0.00000  Uiso   1.00
C64    C     0.59345   0.52856   0.43657   0.00000  Uiso   1.00
C65    C     0.68150   0.51596   0.38815   0.00000  Uiso   1.00
C66    C     0.68786   0.40797   0.40121   0.00000  Uiso   1.00
C67    C     0.58629   0.68832   0.52557   0.00000  Uiso   1.00
C68    C     0.66834   0.81004   0.55200   0.00000  Uiso   1.00
C69    C     0.66870   0.83655   0.64000   0.00000  Uiso   1.00
H70    H     0.36387   0.39796   0.58807   0.00000  Uiso   1.00
H71    H     0.16334   0.35928   0.50701   0.00000  Uiso   1.00
H72    H     0.45970   0.25740   0.55499   0.00000  Uiso   1.00
H73    H     0.44655   0.55143   0.71881   0.00000  Uiso   1.00
H74    H     0.97582   0.35694   0.39095   0.00000  Uiso   1.00
H75    H     0.60074   0.14213   0.49214   0.00000  Uiso   1.00
H76    H     0.57300   0.76215   0.83760   0.00000  Uiso   1.00
H77    H     0.63201   0.71059   0.38638   0.00000  Uiso   1.00
H78    H     0.44619   0.68907   0.29425   0.00000  Uiso   1.00
H79    H     0.74255   0.58718   0.34223   0.00000  Uiso   1.00
H80    H     0.72939   0.88121   0.50605   0.00000  Uiso   1.00
H81    H     0.20539   0.62460   0.21826   0.00000  Uiso   1.00
H82    H     0.83032   0.40979   0.31946   0.00000  Uiso   1.00
H83    H     0.80257   0.02981   0.66491   0.00000  Uiso   1.00
O84    O     0.96353   0.47095   0.24762   0.00000  Uiso   1.00
O85    O     0.78342   0.18913   0.38040   0.00000  Uiso   1.00
O86    O     0.74702   0.00259   0.83362   0.00000  Uiso   1.00
N87    N     0.05535   0.42291   0.36296   0.00000  Uiso   1.00
N88    N     0.63960   0.22206   0.45756   0.00000  Uiso   1.00
N89    N     0.61369   0.80172   0.78053   0.00000  Uiso   1.00
N90    N     0.17888   0.56693   0.27004   0.00000  Uiso   1.00
N91    N     0.76313   0.36609   0.36464   0.00000  Uiso   1.00
N92    N     0.73722   0.94575   0.68761   0.00000  Uiso   1.00
C93    C     0.53042   0.95571   0.20853   0.00000  Uiso   1.00
C94    C     0.50807   0.86160   0.13653   0.00000  Uiso   1.00
C95    C     0.56952   0.79389   0.12774   0.00000  Uiso   1.00
C96    C     0.53568   0.71254   0.05740   0.00000  Uiso   1.00
C97    C     0.51502   0.56843   0.95460   0.00000  Uiso   1.00
C98    C     0.56344   0.07798   0.16259   0.00000  Uiso   1.00
C99    C     0.67143   0.19220   0.17572   0.00000  Uiso   1.00
C100   C     0.68419   0.29300   0.12733   0.00000  Uiso   1.00
C101   C     0.74945   0.48485   0.06504   0.00000  Uiso   1.00
C102   C     0.40368   0.91106   0.25159   0.00000  Uiso   1.00
C103   C     0.37736   0.88498   0.33957   0.00000  Uiso   1.00
C104   C     0.25561   0.84527   0.36613   0.00000  Uiso   1.00
C105   C     0.07283   0.77796   0.44203   0.00000  Uiso   1.00
C106   C     0.36104   0.93161   0.09926   0.00000  Uiso   1.00
C107   C     0.41607   0.84851   0.07717   0.00000  Uiso   1.00
C108   C     0.38213   0.76723   0.00684   0.00000  Uiso   1.00
C109   C     0.44352   0.69941   0.99795   0.00000  Uiso   1.00
C110   C     0.47144   0.06489   0.10323   0.00000  Uiso   1.00
C111   C     0.48404   0.16554   0.05482   0.00000  Uiso   1.00
C112   C     0.59203   0.27988   0.06787   0.00000  Uiso   1.00
C113   C     0.31168   0.89797   0.19224   0.00000  Uiso   1.00
C114   C     0.18996   0.85830   0.21867   0.00000  Uiso   1.00
C115   C     0.16345   0.83216   0.30667   0.00000  Uiso   1.00
H116   H     0.60204   0.96591   0.25474   0.00000  Uiso   1.00
H117   H     0.64072   0.80406   0.17368   0.00000  Uiso   1.00
H118   H     0.74260   0.20231   0.22166   0.00000  Uiso   1.00
H119   H     0.44857   0.89512   0.38548   0.00000  Uiso   1.00
H120   H     0.64306   0.61888   0.05761   0.00000  Uiso   1.00
H121   H     0.85787   0.45861   0.15881   0.00000  Uiso   1.00
H122   H     0.23785   0.81085   0.50426   0.00000  Uiso   1.00
H123   H     0.28941   0.92142   0.05305   0.00000  Uiso   1.00
H124   H     0.31093   0.75712   0.96092   0.00000  Uiso   1.00
H125   H     0.41282   0.15537   0.00890   0.00000  Uiso   1.00
H126   H     0.11879   0.84819   0.17272   0.00000  Uiso   1.00
H127   H     0.37540   0.58078   0.88493   0.00000  Uiso   1.00
H128   H     0.59021   0.42052   0.98613   0.00000  Uiso   1.00
H129   H     0.97019   0.77276   0.33158   0.00000  Uiso   1.00
O130   O     0.52905   0.49258   0.91429   0.00000  Uiso   1.00
O131   O     0.81087   0.59428   0.04707   0.00000  Uiso   1.00
O132   O     0.99741   0.74443   0.50029   0.00000  Uiso   1.00
N133   N     0.57709   0.63244   0.02962   0.00000  Uiso   1.00
N134   N     0.77794   0.41754   0.12423   0.00000  Uiso   1.00
N135   N     0.19828   0.81197   0.44720   0.00000  Uiso   1.00
N136   N     0.43307   0.61194   0.93670   0.00000  Uiso   1.00
N137   N     0.63391   0.39704   0.03131   0.00000  Uiso   1.00
N138   N     0.05425   0.79147   0.35428   0.00000  Uiso   1.00
