data_job_04565
_audit_creation_date              2018-12-19
_audit_creation_method            'Materials Studio'
_symmetry_space_group_name_H-M    'P1'
_symmetry_Int_Tables_number       1
_symmetry_cell_setting            triclinic
loop_
_symmetry_equiv_pos_as_xyz
  x,y,z
_cell_length_a                    18.2255
_cell_length_b                    10.6990
_cell_length_c                    24.6625
_cell_angle_alpha                 90.0000
_cell_angle_beta                  90.0000
_cell_angle_gamma                 90.0000
loop_
_atom_site_label
_atom_site_type_symbol
_atom_site_fract_x
_atom_site_fract_y
_atom_site_fract_z
_atom_site_U_iso_or_equiv
_atom_site_adp_type
_atom_site_occupancy
C1     C     0.72198   0.79994   0.80017   0.00000  Uiso   1.00
C2     C     0.73728   0.87480   0.85155   0.00000  Uiso   1.00
C3     C     0.79890   0.86328   0.88423   0.00000  Uiso   1.00
C4     C     0.80264   0.94024   0.92948   0.00000  Uiso   1.00
C5     C     0.83488   0.04345   0.00745   0.00000  Uiso   1.00
C6     C     0.64787   0.73693   0.80895   0.00000  Uiso   1.00
C7     C     0.63432   0.60949   0.80579   0.00000  Uiso   1.00
C8     C     0.56279   0.57040   0.81516   0.00000  Uiso   1.00
C9     C     0.45623   0.45957   0.82693   0.00000  Uiso   1.00
C10    C     0.71023   0.89580   0.75524   0.00000  Uiso   1.00
C11    C     0.74910   0.90192   0.70692   0.00000  Uiso   1.00
C12    C     0.73006   0.99656   0.67106   0.00000  Uiso   1.00
C13    C     0.72032   0.13239   0.59946   0.00000  Uiso   1.00
C14    C     0.61905   0.95711   0.82240   0.00000  Uiso   1.00
C15    C     0.68137   0.96017   0.86363   0.00000  Uiso   1.00
C16    C     0.68502   0.03717   0.90883   0.00000  Uiso   1.00
C17    C     0.74663   0.02577   0.94157   0.00000  Uiso   1.00
C18    C     0.59197   0.82229   0.82102   0.00000  Uiso   1.00
C19    C     0.52044   0.78338   0.83039   0.00000  Uiso   1.00
C20    C     0.50678   0.65592   0.82725   0.00000  Uiso   1.00
C21    C     0.65433   0.98117   0.76731   0.00000  Uiso   1.00
C22    C     0.63522   0.07582   0.73152   0.00000  Uiso   1.00
C23    C     0.67405   0.08209   0.68316   0.00000  Uiso   1.00
H24    H     0.76550   0.73347   0.79077   0.00000  Uiso   1.00
H25    H     0.84215   0.79719   0.87488   0.00000  Uiso   1.00
H26    H     0.67759   0.54345   0.79644   0.00000  Uiso   1.00
H27    H     0.79236   0.83584   0.69759   0.00000  Uiso   1.00
H28    H     0.90246   0.90546   0.97347   0.00000  Uiso   1.00
H29    H     0.55548   0.37043   0.80806   0.00000  Uiso   1.00
H30    H     0.79749   0.98698   0.59961   0.00000  Uiso   1.00
H31    H     0.57552   0.02358   0.83180   0.00000  Uiso   1.00
H32    H     0.64174   0.10323   0.91817   0.00000  Uiso   1.00
H33    H     0.47719   0.84948   0.83973   0.00000  Uiso   1.00
H34    H     0.59195   0.14186   0.74088   0.00000  Uiso   1.00
H35    H     0.73980   0.15384   0.00861   0.00000  Uiso   1.00
H36    H     0.39283   0.61881   0.84319   0.00000  Uiso   1.00
H37    H     0.63483   0.23536   0.63475   0.00000  Uiso   1.00
O38    O     0.86811   0.07678   0.04712   0.00000  Uiso   1.00
O39    O     0.41289   0.37484   0.83010   0.00000  Uiso   1.00
O40    O     0.73040   0.18374   0.55663   0.00000  Uiso   1.00
N41    N     0.85510   0.95300   0.96988   0.00000  Uiso   1.00
N42    N     0.53070   0.45278   0.81524   0.00000  Uiso   1.00
N43    N     0.75694   0.02918   0.62036   0.00000  Uiso   1.00
N44    N     0.76757   0.08666   0.98879   0.00000  Uiso   1.00
N45    N     0.44317   0.58643   0.83415   0.00000  Uiso   1.00
N46    N     0.66941   0.16283   0.63926   0.00000  Uiso   1.00
C47    C     0.77802   0.70006   0.30017   0.00000  Uiso   1.00
C48    C     0.76272   0.62520   0.35155   0.00000  Uiso   1.00
C49    C     0.70110   0.63672   0.38423   0.00000  Uiso   1.00
C50    C     0.69736   0.55976   0.42948   0.00000  Uiso   1.00
C51    C     0.66512   0.45655   0.50745   0.00000  Uiso   1.00
C52    C     0.85213   0.76307   0.30895   0.00000  Uiso   1.00
C53    C     0.86568   0.89051   0.30579   0.00000  Uiso   1.00
C54    C     0.93721   0.92960   0.31516   0.00000  Uiso   1.00
C55    C     0.04377   0.04043   0.32693   0.00000  Uiso   1.00
C56    C     0.78977   0.60420   0.25524   0.00000  Uiso   1.00
C57    C     0.75090   0.59808   0.20692   0.00000  Uiso   1.00
C58    C     0.76994   0.50344   0.17106   0.00000  Uiso   1.00
C59    C     0.77968   0.36761   0.09946   0.00000  Uiso   1.00
C60    C     0.88095   0.54289   0.32240   0.00000  Uiso   1.00
C61    C     0.81863   0.53983   0.36363   0.00000  Uiso   1.00
C62    C     0.81498   0.46283   0.40883   0.00000  Uiso   1.00
C63    C     0.75337   0.47423   0.44157   0.00000  Uiso   1.00
C64    C     0.90803   0.67771   0.32102   0.00000  Uiso   1.00
C65    C     0.97956   0.71662   0.33039   0.00000  Uiso   1.00
C66    C     0.99322   0.84408   0.32725   0.00000  Uiso   1.00
C67    C     0.84567   0.51883   0.26731   0.00000  Uiso   1.00
C68    C     0.86478   0.42418   0.23152   0.00000  Uiso   1.00
C69    C     0.82595   0.41791   0.18316   0.00000  Uiso   1.00
H70    H     0.73450   0.76653   0.29077   0.00000  Uiso   1.00
H71    H     0.65785   0.70281   0.37488   0.00000  Uiso   1.00
H72    H     0.82241   0.95655   0.29644   0.00000  Uiso   1.00
H73    H     0.70764   0.66416   0.19759   0.00000  Uiso   1.00
H74    H     0.59754   0.59454   0.47347   0.00000  Uiso   1.00
H75    H     0.94452   0.12957   0.30806   0.00000  Uiso   1.00
H76    H     0.70251   0.51302   0.09961   0.00000  Uiso   1.00
H77    H     0.92448   0.47642   0.33180   0.00000  Uiso   1.00
H78    H     0.85826   0.39677   0.41817   0.00000  Uiso   1.00
H79    H     0.02281   0.65052   0.33973   0.00000  Uiso   1.00
H80    H     0.90805   0.35814   0.24088   0.00000  Uiso   1.00
H81    H     0.76020   0.34616   0.50861   0.00000  Uiso   1.00
H82    H     0.10717   0.88119   0.34319   0.00000  Uiso   1.00
H83    H     0.86517   0.26464   0.13475   0.00000  Uiso   1.00
O84    O     0.63189   0.42322   0.54712   0.00000  Uiso   1.00
O85    O     0.08711   0.12516   0.33010   0.00000  Uiso   1.00
O86    O     0.76960   0.31626   0.05663   0.00000  Uiso   1.00
N87    N     0.64490   0.54700   0.46988   0.00000  Uiso   1.00
N88    N     0.96930   0.04722   0.31524   0.00000  Uiso   1.00
N89    N     0.74306   0.47082   0.12036   0.00000  Uiso   1.00
N90    N     0.73243   0.41334   0.48879   0.00000  Uiso   1.00
N91    N     0.05683   0.91357   0.33415   0.00000  Uiso   1.00
N92    N     0.83059   0.33717   0.13926   0.00000  Uiso   1.00
C93    C     0.27802   0.79994   0.69983   0.00000  Uiso   1.00
C94    C     0.26272   0.87480   0.64845   0.00000  Uiso   1.00
C95    C     0.20110   0.86328   0.61577   0.00000  Uiso   1.00
C96    C     0.19736   0.94024   0.57052   0.00000  Uiso   1.00
C97    C     0.16512   0.04345   0.49255   0.00000  Uiso   1.00
C98    C     0.35213   0.73693   0.69105   0.00000  Uiso   1.00
C99    C     0.36568   0.60949   0.69421   0.00000  Uiso   1.00
C100   C     0.43721   0.57040   0.68484   0.00000  Uiso   1.00
C101   C     0.54377   0.45957   0.67307   0.00000  Uiso   1.00
C102   C     0.28977   0.89580   0.74476   0.00000  Uiso   1.00
C103   C     0.25090   0.90192   0.79308   0.00000  Uiso   1.00
C104   C     0.26994   0.99656   0.82894   0.00000  Uiso   1.00
C105   C     0.27968   0.13239   0.90054   0.00000  Uiso   1.00
C106   C     0.38095   0.95711   0.67760   0.00000  Uiso   1.00
C107   C     0.31863   0.96017   0.63637   0.00000  Uiso   1.00
C108   C     0.31498   0.03717   0.59117   0.00000  Uiso   1.00
C109   C     0.25337   0.02577   0.55843   0.00000  Uiso   1.00
C110   C     0.40803   0.82229   0.67898   0.00000  Uiso   1.00
C111   C     0.47956   0.78338   0.66961   0.00000  Uiso   1.00
C112   C     0.49322   0.65592   0.67275   0.00000  Uiso   1.00
C113   C     0.34567   0.98117   0.73269   0.00000  Uiso   1.00
C114   C     0.36478   0.07582   0.76848   0.00000  Uiso   1.00
C115   C     0.32595   0.08209   0.81684   0.00000  Uiso   1.00
H116   H     0.23450   0.73347   0.70923   0.00000  Uiso   1.00
H117   H     0.15785   0.79719   0.62512   0.00000  Uiso   1.00
H118   H     0.32241   0.54345   0.70356   0.00000  Uiso   1.00
H119   H     0.20764   0.83584   0.80241   0.00000  Uiso   1.00
H120   H     0.09754   0.90546   0.52653   0.00000  Uiso   1.00
H121   H     0.44452   0.37043   0.69194   0.00000  Uiso   1.00
H122   H     0.20251   0.98698   0.90039   0.00000  Uiso   1.00
H123   H     0.42448   0.02358   0.66820   0.00000  Uiso   1.00
H124   H     0.35826   0.10323   0.58183   0.00000  Uiso   1.00
H125   H     0.52281   0.84948   0.66027   0.00000  Uiso   1.00
H126   H     0.40805   0.14186   0.75912   0.00000  Uiso   1.00
H127   H     0.26020   0.15384   0.49139   0.00000  Uiso   1.00
H128   H     0.60717   0.61881   0.65681   0.00000  Uiso   1.00
H129   H     0.36517   0.23536   0.86525   0.00000  Uiso   1.00
O130   O     0.13189   0.07678   0.45288   0.00000  Uiso   1.00
O131   O     0.58711   0.37484   0.66990   0.00000  Uiso   1.00
O132   O     0.26960   0.18374   0.94337   0.00000  Uiso   1.00
N133   N     0.14490   0.95300   0.53012   0.00000  Uiso   1.00
N134   N     0.46930   0.45278   0.68476   0.00000  Uiso   1.00
N135   N     0.24306   0.02918   0.87964   0.00000  Uiso   1.00
N136   N     0.23243   0.08666   0.51121   0.00000  Uiso   1.00
N137   N     0.55683   0.58643   0.66585   0.00000  Uiso   1.00
N138   N     0.33059   0.16283   0.86074   0.00000  Uiso   1.00
C139   C     0.22198   0.70006   0.19983   0.00000  Uiso   1.00
C140   C     0.23728   0.62520   0.14845   0.00000  Uiso   1.00
C141   C     0.29890   0.63672   0.11577   0.00000  Uiso   1.00
C142   C     0.30264   0.55976   0.07052   0.00000  Uiso   1.00
C143   C     0.33488   0.45655   0.99255   0.00000  Uiso   1.00
C144   C     0.14787   0.76307   0.19105   0.00000  Uiso   1.00
C145   C     0.13432   0.89051   0.19421   0.00000  Uiso   1.00
C146   C     0.06279   0.92960   0.18484   0.00000  Uiso   1.00
C147   C     0.95623   0.04043   0.17307   0.00000  Uiso   1.00
C148   C     0.21023   0.60420   0.24476   0.00000  Uiso   1.00
C149   C     0.24910   0.59808   0.29308   0.00000  Uiso   1.00
C150   C     0.23006   0.50344   0.32894   0.00000  Uiso   1.00
C151   C     0.22032   0.36761   0.40054   0.00000  Uiso   1.00
C152   C     0.11905   0.54289   0.17760   0.00000  Uiso   1.00
C153   C     0.18137   0.53983   0.13637   0.00000  Uiso   1.00
C154   C     0.18502   0.46283   0.09117   0.00000  Uiso   1.00
C155   C     0.24663   0.47423   0.05843   0.00000  Uiso   1.00
C156   C     0.09197   0.67771   0.17898   0.00000  Uiso   1.00
C157   C     0.02044   0.71662   0.16961   0.00000  Uiso   1.00
C158   C     0.00678   0.84408   0.17275   0.00000  Uiso   1.00
C159   C     0.15433   0.51883   0.23269   0.00000  Uiso   1.00
C160   C     0.13522   0.42418   0.26848   0.00000  Uiso   1.00
C161   C     0.17405   0.41791   0.31684   0.00000  Uiso   1.00
H162   H     0.26550   0.76653   0.20923   0.00000  Uiso   1.00
H163   H     0.34215   0.70281   0.12512   0.00000  Uiso   1.00
H164   H     0.17759   0.95655   0.20356   0.00000  Uiso   1.00
H165   H     0.29236   0.66416   0.30241   0.00000  Uiso   1.00
H166   H     0.40246   0.59454   0.02653   0.00000  Uiso   1.00
H167   H     0.05548   0.12957   0.19194   0.00000  Uiso   1.00
H168   H     0.29749   0.51302   0.40039   0.00000  Uiso   1.00
H169   H     0.07552   0.47642   0.16820   0.00000  Uiso   1.00
H170   H     0.14174   0.39677   0.08183   0.00000  Uiso   1.00
H171   H     0.97719   0.65052   0.16027   0.00000  Uiso   1.00
H172   H     0.09195   0.35814   0.25912   0.00000  Uiso   1.00
H173   H     0.23980   0.34616   0.99139   0.00000  Uiso   1.00
H174   H     0.89283   0.88119   0.15681   0.00000  Uiso   1.00
H175   H     0.13483   0.26464   0.36525   0.00000  Uiso   1.00
O176   O     0.36811   0.42322   0.95288   0.00000  Uiso   1.00
O177   O     0.91289   0.12516   0.16990   0.00000  Uiso   1.00
O178   O     0.23040   0.31626   0.44337   0.00000  Uiso   1.00
N179   N     0.35510   0.54700   0.03012   0.00000  Uiso   1.00
N180   N     0.03070   0.04722   0.18476   0.00000  Uiso   1.00
N181   N     0.25694   0.47082   0.37964   0.00000  Uiso   1.00
N182   N     0.26757   0.41334   0.01121   0.00000  Uiso   1.00
N183   N     0.94317   0.91357   0.16585   0.00000  Uiso   1.00
N184   N     0.16941   0.33717   0.36074   0.00000  Uiso   1.00
C185   C     0.27802   0.20006   0.19983   0.00000  Uiso   1.00
C186   C     0.26272   0.12520   0.14845   0.00000  Uiso   1.00
C187   C     0.20110   0.13672   0.11577   0.00000  Uiso   1.00
C188   C     0.19736   0.05976   0.07052   0.00000  Uiso   1.00
C189   C     0.16512   0.95655   0.99255   0.00000  Uiso   1.00
C190   C     0.35213   0.26307   0.19105   0.00000  Uiso   1.00
C191   C     0.36568   0.39051   0.19421   0.00000  Uiso   1.00
C192   C     0.43721   0.42960   0.18484   0.00000  Uiso   1.00
C193   C     0.54377   0.54043   0.17307   0.00000  Uiso   1.00
C194   C     0.28977   0.10420   0.24476   0.00000  Uiso   1.00
C195   C     0.25090   0.09808   0.29308   0.00000  Uiso   1.00
C196   C     0.26994   0.00344   0.32894   0.00000  Uiso   1.00
C197   C     0.27968   0.86761   0.40054   0.00000  Uiso   1.00
C198   C     0.38095   0.04289   0.17760   0.00000  Uiso   1.00
C199   C     0.31863   0.03983   0.13637   0.00000  Uiso   1.00
C200   C     0.31498   0.96283   0.09117   0.00000  Uiso   1.00
C201   C     0.25337   0.97423   0.05843   0.00000  Uiso   1.00
C202   C     0.40803   0.17771   0.17898   0.00000  Uiso   1.00
C203   C     0.47956   0.21662   0.16961   0.00000  Uiso   1.00
C204   C     0.49322   0.34408   0.17275   0.00000  Uiso   1.00
C205   C     0.34567   0.01883   0.23269   0.00000  Uiso   1.00
C206   C     0.36478   0.92418   0.26848   0.00000  Uiso   1.00
C207   C     0.32595   0.91791   0.31684   0.00000  Uiso   1.00
H208   H     0.23450   0.26653   0.20923   0.00000  Uiso   1.00
H209   H     0.15785   0.20281   0.12512   0.00000  Uiso   1.00
H210   H     0.32241   0.45655   0.20356   0.00000  Uiso   1.00
H211   H     0.20764   0.16416   0.30241   0.00000  Uiso   1.00
H212   H     0.09754   0.09454   0.02653   0.00000  Uiso   1.00
H213   H     0.44452   0.62957   0.19194   0.00000  Uiso   1.00
H214   H     0.20251   0.01302   0.40039   0.00000  Uiso   1.00
H215   H     0.42448   0.97642   0.16820   0.00000  Uiso   1.00
H216   H     0.35826   0.89677   0.08183   0.00000  Uiso   1.00
H217   H     0.52281   0.15052   0.16027   0.00000  Uiso   1.00
H218   H     0.40805   0.85814   0.25912   0.00000  Uiso   1.00
H219   H     0.26020   0.84616   0.99139   0.00000  Uiso   1.00
H220   H     0.60717   0.38119   0.15681   0.00000  Uiso   1.00
H221   H     0.36517   0.76464   0.36525   0.00000  Uiso   1.00
O222   O     0.13189   0.92322   0.95288   0.00000  Uiso   1.00
O223   O     0.58711   0.62516   0.16990   0.00000  Uiso   1.00
O224   O     0.26960   0.81626   0.44337   0.00000  Uiso   1.00
N225   N     0.14490   0.04700   0.03012   0.00000  Uiso   1.00
N226   N     0.46930   0.54722   0.18476   0.00000  Uiso   1.00
N227   N     0.24306   0.97082   0.37964   0.00000  Uiso   1.00
N228   N     0.23243   0.91334   0.01121   0.00000  Uiso   1.00
N229   N     0.55683   0.41357   0.16585   0.00000  Uiso   1.00
N230   N     0.33059   0.83717   0.36074   0.00000  Uiso   1.00
C231   C     0.22198   0.29994   0.69983   0.00000  Uiso   1.00
C232   C     0.23728   0.37480   0.64845   0.00000  Uiso   1.00
C233   C     0.29890   0.36328   0.61577   0.00000  Uiso   1.00
C234   C     0.30264   0.44024   0.57052   0.00000  Uiso   1.00
C235   C     0.33488   0.54345   0.49255   0.00000  Uiso   1.00
C236   C     0.14787   0.23693   0.69105   0.00000  Uiso   1.00
C237   C     0.13432   0.10949   0.69421   0.00000  Uiso   1.00
C238   C     0.06279   0.07040   0.68484   0.00000  Uiso   1.00
C239   C     0.95623   0.95957   0.67307   0.00000  Uiso   1.00
C240   C     0.21023   0.39580   0.74476   0.00000  Uiso   1.00
C241   C     0.24910   0.40192   0.79308   0.00000  Uiso   1.00
C242   C     0.23006   0.49656   0.82894   0.00000  Uiso   1.00
C243   C     0.22032   0.63239   0.90054   0.00000  Uiso   1.00
C244   C     0.11905   0.45711   0.67760   0.00000  Uiso   1.00
C245   C     0.18137   0.46017   0.63637   0.00000  Uiso   1.00
C246   C     0.18502   0.53717   0.59117   0.00000  Uiso   1.00
C247   C     0.24663   0.52577   0.55843   0.00000  Uiso   1.00
C248   C     0.09197   0.32229   0.67898   0.00000  Uiso   1.00
C249   C     0.02044   0.28338   0.66961   0.00000  Uiso   1.00
C250   C     0.00678   0.15592   0.67275   0.00000  Uiso   1.00
C251   C     0.15433   0.48117   0.73269   0.00000  Uiso   1.00
C252   C     0.13522   0.57582   0.76848   0.00000  Uiso   1.00
C253   C     0.17405   0.58209   0.81684   0.00000  Uiso   1.00
H254   H     0.26550   0.23347   0.70923   0.00000  Uiso   1.00
H255   H     0.34215   0.29719   0.62512   0.00000  Uiso   1.00
H256   H     0.17759   0.04345   0.70356   0.00000  Uiso   1.00
H257   H     0.29236   0.33584   0.80241   0.00000  Uiso   1.00
H258   H     0.40246   0.40546   0.52653   0.00000  Uiso   1.00
H259   H     0.05548   0.87043   0.69194   0.00000  Uiso   1.00
H260   H     0.29749   0.48698   0.90039   0.00000  Uiso   1.00
H261   H     0.07552   0.52358   0.66820   0.00000  Uiso   1.00
H262   H     0.14174   0.60323   0.58183   0.00000  Uiso   1.00
H263   H     0.97719   0.34948   0.66027   0.00000  Uiso   1.00
H264   H     0.09195   0.64186   0.75912   0.00000  Uiso   1.00
H265   H     0.23980   0.65384   0.49139   0.00000  Uiso   1.00
H266   H     0.89283   0.11881   0.65681   0.00000  Uiso   1.00
H267   H     0.13483   0.73536   0.86525   0.00000  Uiso   1.00
O268   O     0.36811   0.57678   0.45288   0.00000  Uiso   1.00
O269   O     0.91289   0.87484   0.66990   0.00000  Uiso   1.00
O270   O     0.23040   0.68374   0.94337   0.00000  Uiso   1.00
N271   N     0.35510   0.45300   0.53012   0.00000  Uiso   1.00
N272   N     0.03070   0.95278   0.68476   0.00000  Uiso   1.00
N273   N     0.25694   0.52918   0.87964   0.00000  Uiso   1.00
N274   N     0.26757   0.58666   0.51121   0.00000  Uiso   1.00
N275   N     0.94317   0.08643   0.66585   0.00000  Uiso   1.00
N276   N     0.16941   0.66283   0.86074   0.00000  Uiso   1.00
C277   C     0.72198   0.20006   0.30017   0.00000  Uiso   1.00
C278   C     0.73728   0.12520   0.35155   0.00000  Uiso   1.00
C279   C     0.79890   0.13672   0.38423   0.00000  Uiso   1.00
C280   C     0.80264   0.05976   0.42948   0.00000  Uiso   1.00
C281   C     0.83488   0.95655   0.50745   0.00000  Uiso   1.00
C282   C     0.64787   0.26307   0.30895   0.00000  Uiso   1.00
C283   C     0.63432   0.39051   0.30579   0.00000  Uiso   1.00
C284   C     0.56279   0.42960   0.31516   0.00000  Uiso   1.00
C285   C     0.45623   0.54043   0.32693   0.00000  Uiso   1.00
C286   C     0.71023   0.10420   0.25524   0.00000  Uiso   1.00
C287   C     0.74910   0.09808   0.20692   0.00000  Uiso   1.00
C288   C     0.73006   0.00344   0.17106   0.00000  Uiso   1.00
C289   C     0.72032   0.86761   0.09946   0.00000  Uiso   1.00
C290   C     0.61905   0.04289   0.32240   0.00000  Uiso   1.00
C291   C     0.68137   0.03983   0.36363   0.00000  Uiso   1.00
C292   C     0.68502   0.96283   0.40883   0.00000  Uiso   1.00
C293   C     0.74663   0.97423   0.44157   0.00000  Uiso   1.00
C294   C     0.59197   0.17771   0.32102   0.00000  Uiso   1.00
C295   C     0.52044   0.21662   0.33039   0.00000  Uiso   1.00
C296   C     0.50678   0.34408   0.32725   0.00000  Uiso   1.00
C297   C     0.65433   0.01883   0.26731   0.00000  Uiso   1.00
C298   C     0.63522   0.92418   0.23152   0.00000  Uiso   1.00
C299   C     0.67405   0.91791   0.18316   0.00000  Uiso   1.00
H300   H     0.76550   0.26653   0.29077   0.00000  Uiso   1.00
H301   H     0.84215   0.20281   0.37488   0.00000  Uiso   1.00
H302   H     0.67759   0.45655   0.29644   0.00000  Uiso   1.00
H303   H     0.79236   0.16416   0.19759   0.00000  Uiso   1.00
H304   H     0.90246   0.09454   0.47347   0.00000  Uiso   1.00
H305   H     0.55548   0.62957   0.30806   0.00000  Uiso   1.00
H306   H     0.79749   0.01302   0.09961   0.00000  Uiso   1.00
H307   H     0.57552   0.97642   0.33180   0.00000  Uiso   1.00
H308   H     0.64174   0.89677   0.41817   0.00000  Uiso   1.00
H309   H     0.47719   0.15052   0.33973   0.00000  Uiso   1.00
H310   H     0.59195   0.85814   0.24088   0.00000  Uiso   1.00
H311   H     0.73980   0.84616   0.50861   0.00000  Uiso   1.00
H312   H     0.39283   0.38119   0.34319   0.00000  Uiso   1.00
H313   H     0.63483   0.76464   0.13475   0.00000  Uiso   1.00
O314   O     0.86811   0.92322   0.54712   0.00000  Uiso   1.00
O315   O     0.41289   0.62516   0.33010   0.00000  Uiso   1.00
O316   O     0.73040   0.81626   0.05663   0.00000  Uiso   1.00
N317   N     0.85510   0.04700   0.46988   0.00000  Uiso   1.00
N318   N     0.53070   0.54722   0.31524   0.00000  Uiso   1.00
N319   N     0.75694   0.97082   0.12036   0.00000  Uiso   1.00
N320   N     0.76757   0.91334   0.48879   0.00000  Uiso   1.00
N321   N     0.44317   0.41357   0.33415   0.00000  Uiso   1.00
N322   N     0.66941   0.83717   0.13926   0.00000  Uiso   1.00
C323   C     0.77802   0.29994   0.80017   0.00000  Uiso   1.00
C324   C     0.76272   0.37480   0.85155   0.00000  Uiso   1.00
C325   C     0.70110   0.36328   0.88423   0.00000  Uiso   1.00
C326   C     0.69736   0.44024   0.92948   0.00000  Uiso   1.00
C327   C     0.66512   0.54345   0.00745   0.00000  Uiso   1.00
C328   C     0.85213   0.23693   0.80895   0.00000  Uiso   1.00
C329   C     0.86568   0.10949   0.80579   0.00000  Uiso   1.00
C330   C     0.93721   0.07040   0.81516   0.00000  Uiso   1.00
C331   C     0.04377   0.95957   0.82693   0.00000  Uiso   1.00
C332   C     0.78977   0.39580   0.75524   0.00000  Uiso   1.00
C333   C     0.75090   0.40192   0.70692   0.00000  Uiso   1.00
C334   C     0.76994   0.49656   0.67106   0.00000  Uiso   1.00
C335   C     0.77968   0.63239   0.59946   0.00000  Uiso   1.00
C336   C     0.88095   0.45711   0.82240   0.00000  Uiso   1.00
C337   C     0.81863   0.46017   0.86363   0.00000  Uiso   1.00
C338   C     0.81498   0.53717   0.90883   0.00000  Uiso   1.00
C339   C     0.75337   0.52577   0.94157   0.00000  Uiso   1.00
C340   C     0.90803   0.32229   0.82102   0.00000  Uiso   1.00
C341   C     0.97956   0.28338   0.83039   0.00000  Uiso   1.00
C342   C     0.99322   0.15592   0.82725   0.00000  Uiso   1.00
C343   C     0.84567   0.48117   0.76731   0.00000  Uiso   1.00
C344   C     0.86478   0.57582   0.73152   0.00000  Uiso   1.00
C345   C     0.82595   0.58209   0.68316   0.00000  Uiso   1.00
H346   H     0.73450   0.23347   0.79077   0.00000  Uiso   1.00
H347   H     0.65785   0.29719   0.87488   0.00000  Uiso   1.00
H348   H     0.82241   0.04345   0.79644   0.00000  Uiso   1.00
H349   H     0.70764   0.33584   0.69759   0.00000  Uiso   1.00
H350   H     0.59754   0.40546   0.97347   0.00000  Uiso   1.00
H351   H     0.94452   0.87043   0.80806   0.00000  Uiso   1.00
H352   H     0.70251   0.48698   0.59961   0.00000  Uiso   1.00
H353   H     0.92448   0.52358   0.83180   0.00000  Uiso   1.00
H354   H     0.85826   0.60323   0.91817   0.00000  Uiso   1.00
H355   H     0.02281   0.34948   0.83973   0.00000  Uiso   1.00
H356   H     0.90805   0.64186   0.74088   0.00000  Uiso   1.00
H357   H     0.76020   0.65384   0.00861   0.00000  Uiso   1.00
H358   H     0.10717   0.11881   0.84319   0.00000  Uiso   1.00
H359   H     0.86517   0.73536   0.63475   0.00000  Uiso   1.00
O360   O     0.63189   0.57678   0.04712   0.00000  Uiso   1.00
O361   O     0.08711   0.87484   0.83010   0.00000  Uiso   1.00
O362   O     0.76960   0.68374   0.55663   0.00000  Uiso   1.00
N363   N     0.64490   0.45300   0.96988   0.00000  Uiso   1.00
N364   N     0.96930   0.95278   0.81524   0.00000  Uiso   1.00
N365   N     0.74306   0.52918   0.62036   0.00000  Uiso   1.00
N366   N     0.73243   0.58666   0.98879   0.00000  Uiso   1.00
N367   N     0.05683   0.08643   0.83415   0.00000  Uiso   1.00
N368   N     0.83059   0.66283   0.63926   0.00000  Uiso   1.00
