data_job_03971
_audit_creation_date              2018-12-19
_audit_creation_method            'Materials Studio'
_symmetry_space_group_name_H-M    'P1'
_symmetry_Int_Tables_number       1
_symmetry_cell_setting            triclinic
loop_
_symmetry_equiv_pos_as_xyz
  x,y,z
_cell_length_a                    13.5957
_cell_length_b                    9.6555
_cell_length_c                    41.1752
_cell_angle_alpha                 90.0000
_cell_angle_beta                  90.0000
_cell_angle_gamma                 90.0000
loop_
_atom_site_label
_atom_site_type_symbol
_atom_site_fract_x
_atom_site_fract_y
_atom_site_fract_z
_atom_site_U_iso_or_equiv
_atom_site_adp_type
_atom_site_occupancy
C1     C     0.33697   0.28556   0.89063   0.00000  Uiso   1.00
C2     C     0.41947   0.17920   0.89336   0.00000  Uiso   1.00
C3     C     0.40795   0.03644   0.89250   0.00000  Uiso   1.00
C4     C     0.49257   0.95689   0.89540   0.00000  Uiso   1.00
C5     C     0.60656   0.78244   0.89910   0.00000  Uiso   1.00
C6     C     0.34423   0.37566   0.92096   0.00000  Uiso   1.00
C7     C     0.26945   0.39809   0.94329   0.00000  Uiso   1.00
C8     C     0.29073   0.48394   0.96941   0.00000  Uiso   1.00
C9     C     0.28788   0.61457   0.01594   0.00000  Uiso   1.00
C10    C     0.36423   0.37899   0.86216   0.00000  Uiso   1.00
C11    C     0.30624   0.40425   0.83506   0.00000  Uiso   1.00
C12    C     0.34435   0.49293   0.81169   0.00000  Uiso   1.00
C13    C     0.37254   0.62873   0.76694   0.00000  Uiso   1.00
C14    C     0.50773   0.39816   0.89732   0.00000  Uiso   1.00
C15    C     0.51222   0.24036   0.89699   0.00000  Uiso   1.00
C16    C     0.59688   0.16102   0.89989   0.00000  Uiso   1.00
C17    C     0.58549   0.01816   0.89903   0.00000  Uiso   1.00
C18    C     0.43698   0.43682   0.92459   0.00000  Uiso   1.00
C19    C     0.45837   0.52266   0.95068   0.00000  Uiso   1.00
C20    C     0.38364   0.54521   0.97305   0.00000  Uiso   1.00
C21    C     0.45698   0.44015   0.86579   0.00000  Uiso   1.00
C22    C     0.49517   0.52882   0.84246   0.00000  Uiso   1.00
C23    C     0.43726   0.55421   0.81533   0.00000  Uiso   1.00
H24    H     0.26476   0.23795   0.88781   0.00000  Uiso   1.00
H25    H     0.33616   0.98914   0.88969   0.00000  Uiso   1.00
H26    H     0.19768   0.35075   0.94047   0.00000  Uiso   1.00
H27    H     0.23447   0.35690   0.83226   0.00000  Uiso   1.00
H28    H     0.45622   0.74027   0.89339   0.00000  Uiso   1.00
H29    H     0.16421   0.50277   0.00045   0.00000  Uiso   1.00
H30    H     0.24179   0.51575   0.77228   0.00000  Uiso   1.00
H31    H     0.57994   0.44578   0.90014   0.00000  Uiso   1.00
H32    H     0.66865   0.20837   0.90270   0.00000  Uiso   1.00
H33    H     0.53016   0.56998   0.95348   0.00000  Uiso   1.00
H34    H     0.56695   0.57613   0.84528   0.00000  Uiso   1.00
H35    H     0.72608   0.91821   0.90395   0.00000  Uiso   1.00
H36    H     0.43406   0.68071   0.01102   0.00000  Uiso   1.00
H37    H     0.51165   0.69369   0.78284   0.00000  Uiso   1.00
O38    O     0.64381   0.66932   0.90014   0.00000  Uiso   1.00
O39    O     0.26069   0.66971   0.04060   0.00000  Uiso   1.00
O40    O     0.36248   0.68673   0.74124   0.00000  Uiso   1.00
N41    N     0.50756   0.81473   0.89552   0.00000  Uiso   1.00
N42    N     0.23455   0.52761   0.99562   0.00000  Uiso   1.00
N43    N     0.30707   0.53977   0.78230   0.00000  Uiso   1.00
N44    N     0.65277   0.91047   0.90120   0.00000  Uiso   1.00
N45    N     0.37976   0.62335   0.00130   0.00000  Uiso   1.00
N46    N     0.45228   0.63551   0.78798   0.00000  Uiso   1.00
C47    C     0.16303   0.21444   0.39063   0.00000  Uiso   1.00
C48    C     0.08053   0.32080   0.39336   0.00000  Uiso   1.00
C49    C     0.09205   0.46356   0.39250   0.00000  Uiso   1.00
C50    C     0.00743   0.54311   0.39540   0.00000  Uiso   1.00
C51    C     0.89344   0.71756   0.39910   0.00000  Uiso   1.00
C52    C     0.15577   0.12434   0.42096   0.00000  Uiso   1.00
C53    C     0.23055   0.10191   0.44329   0.00000  Uiso   1.00
C54    C     0.20927   0.01606   0.46941   0.00000  Uiso   1.00
C55    C     0.21212   0.88543   0.51594   0.00000  Uiso   1.00
C56    C     0.13577   0.12101   0.36216   0.00000  Uiso   1.00
C57    C     0.19376   0.09575   0.33506   0.00000  Uiso   1.00
C58    C     0.15565   0.00707   0.31169   0.00000  Uiso   1.00
C59    C     0.12746   0.87127   0.26694   0.00000  Uiso   1.00
C60    C     0.99227   0.10184   0.39732   0.00000  Uiso   1.00
C61    C     0.98778   0.25964   0.39699   0.00000  Uiso   1.00
C62    C     0.90312   0.33898   0.39989   0.00000  Uiso   1.00
C63    C     0.91451   0.48184   0.39903   0.00000  Uiso   1.00
C64    C     0.06302   0.06318   0.42459   0.00000  Uiso   1.00
C65    C     0.04163   0.97734   0.45068   0.00000  Uiso   1.00
C66    C     0.11636   0.95479   0.47305   0.00000  Uiso   1.00
C67    C     0.04302   0.05985   0.36579   0.00000  Uiso   1.00
C68    C     0.00483   0.97118   0.34246   0.00000  Uiso   1.00
C69    C     0.06274   0.94579   0.31533   0.00000  Uiso   1.00
H70    H     0.23524   0.26205   0.38781   0.00000  Uiso   1.00
H71    H     0.16384   0.51086   0.38969   0.00000  Uiso   1.00
H72    H     0.30232   0.14925   0.44047   0.00000  Uiso   1.00
H73    H     0.26553   0.14310   0.33226   0.00000  Uiso   1.00
H74    H     0.04378   0.75973   0.39339   0.00000  Uiso   1.00
H75    H     0.33579   0.99723   0.50045   0.00000  Uiso   1.00
H76    H     0.25821   0.98425   0.27228   0.00000  Uiso   1.00
H77    H     0.92006   0.05422   0.40014   0.00000  Uiso   1.00
H78    H     0.83135   0.29163   0.40270   0.00000  Uiso   1.00
H79    H     0.96984   0.93002   0.45348   0.00000  Uiso   1.00
H80    H     0.93305   0.92387   0.34528   0.00000  Uiso   1.00
H81    H     0.77392   0.58179   0.40395   0.00000  Uiso   1.00
H82    H     0.06594   0.81929   0.51102   0.00000  Uiso   1.00
H83    H     0.98835   0.80631   0.28284   0.00000  Uiso   1.00
O84    O     0.85619   0.83068   0.40014   0.00000  Uiso   1.00
O85    O     0.23931   0.83029   0.54060   0.00000  Uiso   1.00
O86    O     0.13752   0.81327   0.24124   0.00000  Uiso   1.00
N87    N     0.99244   0.68527   0.39552   0.00000  Uiso   1.00
N88    N     0.26545   0.97239   0.49562   0.00000  Uiso   1.00
N89    N     0.19293   0.96023   0.28230   0.00000  Uiso   1.00
N90    N     0.84723   0.58953   0.40120   0.00000  Uiso   1.00
N91    N     0.12024   0.87665   0.50130   0.00000  Uiso   1.00
N92    N     0.04772   0.86449   0.28798   0.00000  Uiso   1.00
C93    C     0.66303   0.28556   0.60937   0.00000  Uiso   1.00
C94    C     0.58053   0.17920   0.60664   0.00000  Uiso   1.00
C95    C     0.59205   0.03644   0.60750   0.00000  Uiso   1.00
C96    C     0.50743   0.95689   0.60460   0.00000  Uiso   1.00
C97    C     0.39344   0.78244   0.60090   0.00000  Uiso   1.00
C98    C     0.65577   0.37566   0.57904   0.00000  Uiso   1.00
C99    C     0.73055   0.39809   0.55671   0.00000  Uiso   1.00
C100   C     0.70927   0.48394   0.53059   0.00000  Uiso   1.00
C101   C     0.71212   0.61457   0.48406   0.00000  Uiso   1.00
C102   C     0.63577   0.37899   0.63784   0.00000  Uiso   1.00
C103   C     0.69376   0.40425   0.66494   0.00000  Uiso   1.00
C104   C     0.65565   0.49293   0.68831   0.00000  Uiso   1.00
C105   C     0.62746   0.62873   0.73306   0.00000  Uiso   1.00
C106   C     0.49227   0.39816   0.60268   0.00000  Uiso   1.00
C107   C     0.48778   0.24036   0.60301   0.00000  Uiso   1.00
C108   C     0.40312   0.16102   0.60011   0.00000  Uiso   1.00
C109   C     0.41451   0.01816   0.60097   0.00000  Uiso   1.00
C110   C     0.56302   0.43682   0.57541   0.00000  Uiso   1.00
C111   C     0.54163   0.52266   0.54932   0.00000  Uiso   1.00
C112   C     0.61636   0.54521   0.52695   0.00000  Uiso   1.00
C113   C     0.54302   0.44015   0.63421   0.00000  Uiso   1.00
C114   C     0.50483   0.52882   0.65754   0.00000  Uiso   1.00
C115   C     0.56274   0.55421   0.68467   0.00000  Uiso   1.00
H116   H     0.73524   0.23795   0.61219   0.00000  Uiso   1.00
H117   H     0.66384   0.98914   0.61031   0.00000  Uiso   1.00
H118   H     0.80232   0.35075   0.55953   0.00000  Uiso   1.00
H119   H     0.76553   0.35690   0.66774   0.00000  Uiso   1.00
H120   H     0.54378   0.74027   0.60661   0.00000  Uiso   1.00
H121   H     0.83579   0.50277   0.49955   0.00000  Uiso   1.00
H122   H     0.75821   0.51575   0.72772   0.00000  Uiso   1.00
H123   H     0.42006   0.44578   0.59986   0.00000  Uiso   1.00
H124   H     0.33135   0.20837   0.59730   0.00000  Uiso   1.00
H125   H     0.46984   0.56998   0.54652   0.00000  Uiso   1.00
H126   H     0.43305   0.57613   0.65472   0.00000  Uiso   1.00
H127   H     0.27392   0.91821   0.59605   0.00000  Uiso   1.00
H128   H     0.56594   0.68071   0.48898   0.00000  Uiso   1.00
H129   H     0.48835   0.69369   0.71716   0.00000  Uiso   1.00
O130   O     0.35619   0.66932   0.59986   0.00000  Uiso   1.00
O131   O     0.73931   0.66971   0.45940   0.00000  Uiso   1.00
O132   O     0.63752   0.68673   0.75876   0.00000  Uiso   1.00
N133   N     0.49244   0.81473   0.60448   0.00000  Uiso   1.00
N134   N     0.76545   0.52761   0.50438   0.00000  Uiso   1.00
N135   N     0.69293   0.53977   0.71770   0.00000  Uiso   1.00
N136   N     0.34723   0.91047   0.59880   0.00000  Uiso   1.00
N137   N     0.62024   0.62335   0.49870   0.00000  Uiso   1.00
N138   N     0.54772   0.63551   0.71202   0.00000  Uiso   1.00
C139   C     0.83697   0.21444   0.10937   0.00000  Uiso   1.00
C140   C     0.91947   0.32080   0.10664   0.00000  Uiso   1.00
C141   C     0.90795   0.46356   0.10750   0.00000  Uiso   1.00
C142   C     0.99257   0.54311   0.10460   0.00000  Uiso   1.00
C143   C     0.10656   0.71756   0.10090   0.00000  Uiso   1.00
C144   C     0.84423   0.12434   0.07904   0.00000  Uiso   1.00
C145   C     0.76945   0.10191   0.05671   0.00000  Uiso   1.00
C146   C     0.79073   0.01606   0.03059   0.00000  Uiso   1.00
C147   C     0.78788   0.88543   0.98406   0.00000  Uiso   1.00
C148   C     0.86423   0.12101   0.13784   0.00000  Uiso   1.00
C149   C     0.80624   0.09575   0.16494   0.00000  Uiso   1.00
C150   C     0.84435   0.00707   0.18831   0.00000  Uiso   1.00
C151   C     0.87254   0.87127   0.23306   0.00000  Uiso   1.00
C152   C     0.00773   0.10184   0.10268   0.00000  Uiso   1.00
C153   C     0.01222   0.25964   0.10301   0.00000  Uiso   1.00
C154   C     0.09688   0.33898   0.10011   0.00000  Uiso   1.00
C155   C     0.08549   0.48184   0.10097   0.00000  Uiso   1.00
C156   C     0.93698   0.06318   0.07541   0.00000  Uiso   1.00
C157   C     0.95837   0.97734   0.04932   0.00000  Uiso   1.00
C158   C     0.88364   0.95479   0.02695   0.00000  Uiso   1.00
C159   C     0.95698   0.05985   0.13421   0.00000  Uiso   1.00
C160   C     0.99517   0.97118   0.15754   0.00000  Uiso   1.00
C161   C     0.93726   0.94579   0.18467   0.00000  Uiso   1.00
H162   H     0.76476   0.26205   0.11219   0.00000  Uiso   1.00
H163   H     0.83616   0.51086   0.11031   0.00000  Uiso   1.00
H164   H     0.69768   0.14925   0.05953   0.00000  Uiso   1.00
H165   H     0.73447   0.14310   0.16774   0.00000  Uiso   1.00
H166   H     0.95622   0.75973   0.10661   0.00000  Uiso   1.00
H167   H     0.66421   0.99723   0.99955   0.00000  Uiso   1.00
H168   H     0.74179   0.98425   0.22772   0.00000  Uiso   1.00
H169   H     0.07994   0.05422   0.09986   0.00000  Uiso   1.00
H170   H     0.16865   0.29163   0.09730   0.00000  Uiso   1.00
H171   H     0.03016   0.93002   0.04652   0.00000  Uiso   1.00
H172   H     0.06695   0.92387   0.15472   0.00000  Uiso   1.00
H173   H     0.22608   0.58179   0.09605   0.00000  Uiso   1.00
H174   H     0.93406   0.81929   0.98898   0.00000  Uiso   1.00
H175   H     0.01165   0.80631   0.21716   0.00000  Uiso   1.00
O176   O     0.14381   0.83068   0.09986   0.00000  Uiso   1.00
O177   O     0.76069   0.83029   0.95940   0.00000  Uiso   1.00
O178   O     0.86248   0.81327   0.25876   0.00000  Uiso   1.00
N179   N     0.00756   0.68527   0.10448   0.00000  Uiso   1.00
N180   N     0.73455   0.97239   0.00438   0.00000  Uiso   1.00
N181   N     0.80707   0.96023   0.21770   0.00000  Uiso   1.00
N182   N     0.15277   0.58953   0.09880   0.00000  Uiso   1.00
N183   N     0.87976   0.87665   0.99870   0.00000  Uiso   1.00
N184   N     0.95228   0.86449   0.21202   0.00000  Uiso   1.00
C185   C     0.66303   0.71444   0.10937   0.00000  Uiso   1.00
C186   C     0.58053   0.82080   0.10664   0.00000  Uiso   1.00
C187   C     0.59205   0.96356   0.10750   0.00000  Uiso   1.00
C188   C     0.50743   0.04311   0.10460   0.00000  Uiso   1.00
C189   C     0.39344   0.21756   0.10090   0.00000  Uiso   1.00
C190   C     0.65577   0.62434   0.07904   0.00000  Uiso   1.00
C191   C     0.73055   0.60191   0.05671   0.00000  Uiso   1.00
C192   C     0.70927   0.51606   0.03059   0.00000  Uiso   1.00
C193   C     0.71212   0.38543   0.98406   0.00000  Uiso   1.00
C194   C     0.63577   0.62101   0.13784   0.00000  Uiso   1.00
C195   C     0.69376   0.59575   0.16494   0.00000  Uiso   1.00
C196   C     0.65565   0.50707   0.18831   0.00000  Uiso   1.00
C197   C     0.62746   0.37127   0.23306   0.00000  Uiso   1.00
C198   C     0.49227   0.60184   0.10268   0.00000  Uiso   1.00
C199   C     0.48778   0.75964   0.10301   0.00000  Uiso   1.00
C200   C     0.40312   0.83898   0.10011   0.00000  Uiso   1.00
C201   C     0.41451   0.98184   0.10097   0.00000  Uiso   1.00
C202   C     0.56302   0.56318   0.07541   0.00000  Uiso   1.00
C203   C     0.54163   0.47734   0.04932   0.00000  Uiso   1.00
C204   C     0.61636   0.45479   0.02695   0.00000  Uiso   1.00
C205   C     0.54302   0.55985   0.13421   0.00000  Uiso   1.00
C206   C     0.50483   0.47118   0.15754   0.00000  Uiso   1.00
C207   C     0.56274   0.44579   0.18467   0.00000  Uiso   1.00
H208   H     0.73524   0.76205   0.11219   0.00000  Uiso   1.00
H209   H     0.66384   0.01086   0.11031   0.00000  Uiso   1.00
H210   H     0.80232   0.64925   0.05953   0.00000  Uiso   1.00
H211   H     0.76553   0.64310   0.16774   0.00000  Uiso   1.00
H212   H     0.54378   0.25973   0.10661   0.00000  Uiso   1.00
H213   H     0.83579   0.49723   0.99955   0.00000  Uiso   1.00
H214   H     0.75821   0.48425   0.22772   0.00000  Uiso   1.00
H215   H     0.42006   0.55422   0.09986   0.00000  Uiso   1.00
H216   H     0.33135   0.79163   0.09730   0.00000  Uiso   1.00
H217   H     0.46984   0.43002   0.04652   0.00000  Uiso   1.00
H218   H     0.43305   0.42387   0.15472   0.00000  Uiso   1.00
H219   H     0.27392   0.08179   0.09605   0.00000  Uiso   1.00
H220   H     0.56594   0.31929   0.98898   0.00000  Uiso   1.00
H221   H     0.48835   0.30631   0.21716   0.00000  Uiso   1.00
O222   O     0.35619   0.33068   0.09986   0.00000  Uiso   1.00
O223   O     0.73931   0.33029   0.95940   0.00000  Uiso   1.00
O224   O     0.63752   0.31327   0.25876   0.00000  Uiso   1.00
N225   N     0.49244   0.18527   0.10448   0.00000  Uiso   1.00
N226   N     0.76545   0.47239   0.00438   0.00000  Uiso   1.00
N227   N     0.69293   0.46023   0.21770   0.00000  Uiso   1.00
N228   N     0.34723   0.08953   0.09880   0.00000  Uiso   1.00
N229   N     0.62024   0.37665   0.99870   0.00000  Uiso   1.00
N230   N     0.54772   0.36449   0.21202   0.00000  Uiso   1.00
C231   C     0.83697   0.78556   0.60937   0.00000  Uiso   1.00
C232   C     0.91947   0.67920   0.60664   0.00000  Uiso   1.00
C233   C     0.90795   0.53644   0.60750   0.00000  Uiso   1.00
C234   C     0.99257   0.45689   0.60460   0.00000  Uiso   1.00
C235   C     0.10656   0.28244   0.60090   0.00000  Uiso   1.00
C236   C     0.84423   0.87566   0.57904   0.00000  Uiso   1.00
C237   C     0.76945   0.89809   0.55671   0.00000  Uiso   1.00
C238   C     0.79073   0.98394   0.53059   0.00000  Uiso   1.00
C239   C     0.78788   0.11457   0.48406   0.00000  Uiso   1.00
C240   C     0.86423   0.87899   0.63784   0.00000  Uiso   1.00
C241   C     0.80624   0.90425   0.66494   0.00000  Uiso   1.00
C242   C     0.84435   0.99293   0.68831   0.00000  Uiso   1.00
C243   C     0.87254   0.12873   0.73306   0.00000  Uiso   1.00
C244   C     0.00773   0.89816   0.60268   0.00000  Uiso   1.00
C245   C     0.01222   0.74036   0.60301   0.00000  Uiso   1.00
C246   C     0.09688   0.66102   0.60011   0.00000  Uiso   1.00
C247   C     0.08549   0.51816   0.60097   0.00000  Uiso   1.00
C248   C     0.93698   0.93682   0.57541   0.00000  Uiso   1.00
C249   C     0.95837   0.02266   0.54932   0.00000  Uiso   1.00
C250   C     0.88364   0.04521   0.52695   0.00000  Uiso   1.00
C251   C     0.95698   0.94015   0.63421   0.00000  Uiso   1.00
C252   C     0.99517   0.02882   0.65754   0.00000  Uiso   1.00
C253   C     0.93726   0.05421   0.68467   0.00000  Uiso   1.00
H254   H     0.76476   0.73795   0.61219   0.00000  Uiso   1.00
H255   H     0.83616   0.48914   0.61031   0.00000  Uiso   1.00
H256   H     0.69768   0.85075   0.55953   0.00000  Uiso   1.00
H257   H     0.73447   0.85690   0.66774   0.00000  Uiso   1.00
H258   H     0.95622   0.24027   0.60661   0.00000  Uiso   1.00
H259   H     0.66421   0.00277   0.49955   0.00000  Uiso   1.00
H260   H     0.74179   0.01575   0.72772   0.00000  Uiso   1.00
H261   H     0.07994   0.94578   0.59986   0.00000  Uiso   1.00
H262   H     0.16865   0.70837   0.59730   0.00000  Uiso   1.00
H263   H     0.03016   0.06998   0.54652   0.00000  Uiso   1.00
H264   H     0.06695   0.07613   0.65472   0.00000  Uiso   1.00
H265   H     0.22608   0.41821   0.59605   0.00000  Uiso   1.00
H266   H     0.93406   0.18071   0.48898   0.00000  Uiso   1.00
H267   H     0.01165   0.19369   0.71716   0.00000  Uiso   1.00
O268   O     0.14381   0.16932   0.59986   0.00000  Uiso   1.00
O269   O     0.76069   0.16971   0.45940   0.00000  Uiso   1.00
O270   O     0.86248   0.18673   0.75876   0.00000  Uiso   1.00
N271   N     0.00756   0.31473   0.60448   0.00000  Uiso   1.00
N272   N     0.73455   0.02761   0.50438   0.00000  Uiso   1.00
N273   N     0.80707   0.03977   0.71770   0.00000  Uiso   1.00
N274   N     0.15277   0.41047   0.59880   0.00000  Uiso   1.00
N275   N     0.87976   0.12335   0.49870   0.00000  Uiso   1.00
N276   N     0.95228   0.13551   0.71202   0.00000  Uiso   1.00
C277   C     0.33697   0.71444   0.39063   0.00000  Uiso   1.00
C278   C     0.41947   0.82080   0.39336   0.00000  Uiso   1.00
C279   C     0.40795   0.96356   0.39250   0.00000  Uiso   1.00
C280   C     0.49257   0.04311   0.39540   0.00000  Uiso   1.00
C281   C     0.60656   0.21756   0.39910   0.00000  Uiso   1.00
C282   C     0.34423   0.62434   0.42096   0.00000  Uiso   1.00
C283   C     0.26945   0.60191   0.44329   0.00000  Uiso   1.00
C284   C     0.29073   0.51606   0.46941   0.00000  Uiso   1.00
C285   C     0.28788   0.38543   0.51594   0.00000  Uiso   1.00
C286   C     0.36423   0.62101   0.36216   0.00000  Uiso   1.00
C287   C     0.30624   0.59575   0.33506   0.00000  Uiso   1.00
C288   C     0.34435   0.50707   0.31169   0.00000  Uiso   1.00
C289   C     0.37254   0.37127   0.26694   0.00000  Uiso   1.00
C290   C     0.50773   0.60184   0.39732   0.00000  Uiso   1.00
C291   C     0.51222   0.75964   0.39699   0.00000  Uiso   1.00
C292   C     0.59688   0.83898   0.39989   0.00000  Uiso   1.00
C293   C     0.58549   0.98184   0.39903   0.00000  Uiso   1.00
C294   C     0.43698   0.56318   0.42459   0.00000  Uiso   1.00
C295   C     0.45837   0.47734   0.45068   0.00000  Uiso   1.00
C296   C     0.38364   0.45479   0.47305   0.00000  Uiso   1.00
C297   C     0.45698   0.55985   0.36579   0.00000  Uiso   1.00
C298   C     0.49517   0.47118   0.34246   0.00000  Uiso   1.00
C299   C     0.43726   0.44579   0.31533   0.00000  Uiso   1.00
H300   H     0.26476   0.76205   0.38781   0.00000  Uiso   1.00
H301   H     0.33616   0.01086   0.38969   0.00000  Uiso   1.00
H302   H     0.19768   0.64925   0.44047   0.00000  Uiso   1.00
H303   H     0.23447   0.64310   0.33226   0.00000  Uiso   1.00
H304   H     0.45622   0.25973   0.39339   0.00000  Uiso   1.00
H305   H     0.16421   0.49723   0.50045   0.00000  Uiso   1.00
H306   H     0.24179   0.48425   0.27228   0.00000  Uiso   1.00
H307   H     0.57994   0.55422   0.40014   0.00000  Uiso   1.00
H308   H     0.66865   0.79163   0.40270   0.00000  Uiso   1.00
H309   H     0.53016   0.43002   0.45348   0.00000  Uiso   1.00
H310   H     0.56695   0.42387   0.34528   0.00000  Uiso   1.00
H311   H     0.72608   0.08179   0.40395   0.00000  Uiso   1.00
H312   H     0.43406   0.31929   0.51102   0.00000  Uiso   1.00
H313   H     0.51165   0.30631   0.28284   0.00000  Uiso   1.00
O314   O     0.64381   0.33068   0.40014   0.00000  Uiso   1.00
O315   O     0.26069   0.33029   0.54060   0.00000  Uiso   1.00
O316   O     0.36248   0.31327   0.24124   0.00000  Uiso   1.00
N317   N     0.50756   0.18527   0.39552   0.00000  Uiso   1.00
N318   N     0.23455   0.47239   0.49562   0.00000  Uiso   1.00
N319   N     0.30707   0.46023   0.28230   0.00000  Uiso   1.00
N320   N     0.65277   0.08953   0.40120   0.00000  Uiso   1.00
N321   N     0.37976   0.37665   0.50130   0.00000  Uiso   1.00
N322   N     0.45228   0.36449   0.28798   0.00000  Uiso   1.00
C323   C     0.16303   0.78556   0.89063   0.00000  Uiso   1.00
C324   C     0.08053   0.67920   0.89336   0.00000  Uiso   1.00
C325   C     0.09205   0.53644   0.89250   0.00000  Uiso   1.00
C326   C     0.00743   0.45689   0.89540   0.00000  Uiso   1.00
C327   C     0.89344   0.28244   0.89910   0.00000  Uiso   1.00
C328   C     0.15577   0.87566   0.92096   0.00000  Uiso   1.00
C329   C     0.23055   0.89809   0.94329   0.00000  Uiso   1.00
C330   C     0.20927   0.98394   0.96941   0.00000  Uiso   1.00
C331   C     0.21212   0.11457   0.01594   0.00000  Uiso   1.00
C332   C     0.13577   0.87899   0.86216   0.00000  Uiso   1.00
C333   C     0.19376   0.90425   0.83506   0.00000  Uiso   1.00
C334   C     0.15565   0.99293   0.81169   0.00000  Uiso   1.00
C335   C     0.12746   0.12873   0.76694   0.00000  Uiso   1.00
C336   C     0.99227   0.89816   0.89732   0.00000  Uiso   1.00
C337   C     0.98778   0.74036   0.89699   0.00000  Uiso   1.00
C338   C     0.90312   0.66102   0.89989   0.00000  Uiso   1.00
C339   C     0.91451   0.51816   0.89903   0.00000  Uiso   1.00
C340   C     0.06302   0.93682   0.92459   0.00000  Uiso   1.00
C341   C     0.04163   0.02266   0.95068   0.00000  Uiso   1.00
C342   C     0.11636   0.04521   0.97305   0.00000  Uiso   1.00
C343   C     0.04302   0.94015   0.86579   0.00000  Uiso   1.00
C344   C     0.00483   0.02882   0.84246   0.00000  Uiso   1.00
C345   C     0.06274   0.05421   0.81533   0.00000  Uiso   1.00
H346   H     0.23524   0.73795   0.88781   0.00000  Uiso   1.00
H347   H     0.16384   0.48914   0.88969   0.00000  Uiso   1.00
H348   H     0.30232   0.85075   0.94047   0.00000  Uiso   1.00
H349   H     0.26553   0.85690   0.83226   0.00000  Uiso   1.00
H350   H     0.04378   0.24027   0.89339   0.00000  Uiso   1.00
H351   H     0.33579   0.00277   0.00045   0.00000  Uiso   1.00
H352   H     0.25821   0.01575   0.77228   0.00000  Uiso   1.00
H353   H     0.92006   0.94578   0.90014   0.00000  Uiso   1.00
H354   H     0.83135   0.70837   0.90270   0.00000  Uiso   1.00
H355   H     0.96984   0.06998   0.95348   0.00000  Uiso   1.00
H356   H     0.93305   0.07613   0.84528   0.00000  Uiso   1.00
H357   H     0.77392   0.41821   0.90395   0.00000  Uiso   1.00
H358   H     0.06594   0.18071   0.01102   0.00000  Uiso   1.00
H359   H     0.98835   0.19369   0.78284   0.00000  Uiso   1.00
O360   O     0.85619   0.16932   0.90014   0.00000  Uiso   1.00
O361   O     0.23931   0.16971   0.04060   0.00000  Uiso   1.00
O362   O     0.13752   0.18673   0.74124   0.00000  Uiso   1.00
N363   N     0.99244   0.31473   0.89552   0.00000  Uiso   1.00
N364   N     0.26545   0.02761   0.99562   0.00000  Uiso   1.00
N365   N     0.19293   0.03977   0.78230   0.00000  Uiso   1.00
N366   N     0.84723   0.41047   0.90120   0.00000  Uiso   1.00
N367   N     0.12024   0.12335   0.00130   0.00000  Uiso   1.00
N368   N     0.04772   0.13551   0.78798   0.00000  Uiso   1.00
