data_job_00422
_audit_creation_date              2018-12-19
_audit_creation_method            'Materials Studio'
_symmetry_space_group_name_H-M    'P1'
_symmetry_Int_Tables_number       1
_symmetry_cell_setting            triclinic
loop_
_symmetry_equiv_pos_as_xyz
  x,y,z
_cell_length_a                    13.8498
_cell_length_b                    31.6759
_cell_length_c                    13.4476
_cell_angle_alpha                 90.0000
_cell_angle_beta                  113.5280
_cell_angle_gamma                 90.0000
loop_
_atom_site_label
_atom_site_type_symbol
_atom_site_fract_x
_atom_site_fract_y
_atom_site_fract_z
_atom_site_U_iso_or_equiv
_atom_site_adp_type
_atom_site_occupancy
C1     C     0.50397   0.12943   0.30822   0.00000  Uiso   1.00
C2     C     0.57379   0.09382   0.29851   0.00000  Uiso   1.00
C3     C     0.68087   0.09675   0.32309   0.00000  Uiso   1.00
C4     C     0.73058   0.06061   0.30876   0.00000  Uiso   1.00
C5     C     0.84742   0.01105   0.29936   0.00000  Uiso   1.00
C6     C     0.41493   0.13400   0.19628   0.00000  Uiso   1.00
C7     C     0.38843   0.17071   0.13492   0.00000  Uiso   1.00
C8     C     0.30440   0.16839   0.03454   0.00000  Uiso   1.00
C9     C     0.17456   0.18121   0.86646   0.00000  Uiso   1.00
C10    C     0.45319   0.11293   0.38246   0.00000  Uiso   1.00
C11    C     0.45884   0.13193   0.47762   0.00000  Uiso   1.00
C12    C     0.40700   0.11187   0.53397   0.00000  Uiso   1.00
C13    C     0.33656   0.09198   0.65495   0.00000  Uiso   1.00
C14    C     0.40183   0.06004   0.23907   0.00000  Uiso   1.00
C15    C     0.51831   0.05613   0.26095   0.00000  Uiso   1.00
C16    C     0.56786   0.01997   0.24659   0.00000  Uiso   1.00
C17    C     0.67500   0.02285   0.27114   0.00000  Uiso   1.00
C18    C     0.35945   0.09631   0.15872   0.00000  Uiso   1.00
C19    C     0.27543   0.09393   0.05841   0.00000  Uiso   1.00
C20    C     0.24882   0.13063   0.99691   0.00000  Uiso   1.00
C21    C     0.39771   0.07523   0.34490   0.00000  Uiso   1.00
C22    C     0.34584   0.05515   0.40111   0.00000  Uiso   1.00
C23    C     0.35142   0.07411   0.49634   0.00000  Uiso   1.00
H24    H     0.54715   0.15878   0.33745   0.00000  Uiso   1.00
H25    H     0.72377   0.12593   0.35215   0.00000  Uiso   1.00
H26    H     0.43137   0.19987   0.16401   0.00000  Uiso   1.00
H27    H     0.50178   0.16110   0.50666   0.00000  Uiso   1.00
H28    H     0.89511   0.07289   0.35184   0.00000  Uiso   1.00
H29    H     0.27856   0.22881   0.95516   0.00000  Uiso   1.00
H30    H     0.42701   0.14704   0.67769   0.00000  Uiso   1.00
H31    H     0.35863   0.03069   0.20982   0.00000  Uiso   1.00
H32    H     0.52491   0.99081   0.21752   0.00000  Uiso   1.00
H33    H     0.23251   0.06476   0.02938   0.00000  Uiso   1.00
H34    H     0.30292   0.02598   0.37202   0.00000  Uiso   1.00
H35    H     0.73371   0.96322   0.24256   0.00000  Uiso   1.00
H36    H     0.11715   0.11914   0.84588   0.00000  Uiso   1.00
H37    H     0.26560   0.03738   0.56842   0.00000  Uiso   1.00
O38    O     0.92719   0.99413   0.30453   0.00000  Uiso   1.00
O39    O     0.11828   0.19870   0.78411   0.00000  Uiso   1.00
O40    O     0.31305   0.09142   0.73206   0.00000  Uiso   1.00
N41    N     0.83431   0.05255   0.32508   0.00000  Uiso   1.00
N42    N     0.25788   0.19833   0.95420   0.00000  Uiso   1.00
N43    N     0.39664   0.12189   0.62970   0.00000  Uiso   1.00
N44    N     0.74746   0.99353   0.26629   0.00000  Uiso   1.00
N45    N     0.17103   0.13931   0.89540   0.00000  Uiso   1.00
N46    N     0.30979   0.06287   0.57090   0.00000  Uiso   1.00
C47    C     0.15580   0.66038   0.57860   0.00000  Uiso   1.00
C48    C     0.22955   0.62813   0.56158   0.00000  Uiso   1.00
C49    C     0.33264   0.63559   0.57458   0.00000  Uiso   1.00
C50    C     0.38701   0.60197   0.55512   0.00000  Uiso   1.00
C51    C     0.50867   0.55793   0.53341   0.00000  Uiso   1.00
C52    C     0.05827   0.66186   0.47244   0.00000  Uiso   1.00
C53    C     0.01735   0.69769   0.41049   0.00000  Uiso   1.00
C54    C     0.92754   0.69246   0.31599   0.00000  Uiso   1.00
C55    C     0.78324   0.70080   0.15591   0.00000  Uiso   1.00
C56    C     0.12013   0.64112   0.66224   0.00000  Uiso   1.00
C57    C     0.13120   0.65951   0.75988   0.00000  Uiso   1.00
C58    C     0.09344   0.63681   0.82518   0.00000  Uiso   1.00
C59    C     0.04519   0.61295   0.95981   0.00000  Uiso   1.00
C60    C     0.06904   0.58738   0.52093   0.00000  Uiso   1.00
C61    C     0.18241   0.58848   0.53026   0.00000  Uiso   1.00
C62    C     0.23665   0.55483   0.51077   0.00000  Uiso   1.00
C63    C     0.33980   0.56225   0.52374   0.00000  Uiso   1.00
C64    C     0.01114   0.62222   0.44111   0.00000  Uiso   1.00
C65    C     0.92136   0.61693   0.34668   0.00000  Uiso   1.00
C66    C     0.88032   0.65274   0.28460   0.00000  Uiso   1.00
C67    C     0.07300   0.60147   0.63092   0.00000  Uiso   1.00
C68    C     0.03521   0.57875   0.69607   0.00000  Uiso   1.00
C69    C     0.04622   0.59710   0.79379   0.00000  Uiso   1.00
H70    H     0.19249   0.69125   0.60298   0.00000  Uiso   1.00
H71    H     0.36908   0.66628   0.59881   0.00000  Uiso   1.00
H72    H     0.05384   0.72837   0.43476   0.00000  Uiso   1.00
H73    H     0.16767   0.69019   0.78409   0.00000  Uiso   1.00
H74    H     0.54407   0.62112   0.58034   0.00000  Uiso   1.00
H75    H     0.87934   0.75204   0.23443   0.00000  Uiso   1.00
H76    H     0.11938   0.67154   0.97108   0.00000  Uiso   1.00
H77    H     0.03234   0.55651   0.49654   0.00000  Uiso   1.00
H78    H     0.20015   0.52416   0.48653   0.00000  Uiso   1.00
H79    H     0.88491   0.58624   0.32247   0.00000  Uiso   1.00
H80    H     0.99874   0.54807   0.67181   0.00000  Uiso   1.00
H81    H     0.40696   0.50577   0.48920   0.00000  Uiso   1.00
H82    H     0.74223   0.63669   0.14329   0.00000  Uiso   1.00
H83    H     0.98227   0.55618   0.87994   0.00000  Uiso   1.00
O84    O     0.58878   0.54460   0.53007   0.00000  Uiso   1.00
O85    O     0.71668   0.71635   0.07627   0.00000  Uiso   1.00
O86    O     0.03160   0.61073   0.04274   0.00000  Uiso   1.00
N87    N     0.48878   0.59841   0.56028   0.00000  Uiso   1.00
N88    N     0.86731   0.72081   0.23687   0.00000  Uiso   1.00
N89    N     0.09169   0.64555   0.92557   0.00000  Uiso   1.00
N90    N     0.41500   0.53634   0.51124   0.00000  Uiso   1.00
N91    N     0.79353   0.65874   0.18783   0.00000  Uiso   1.00
N92    N     0.01792   0.58348   0.87653   0.00000  Uiso   1.00
C93    C     0.49603   0.62943   0.19178   0.00000  Uiso   1.00
C94    C     0.42621   0.59382   0.20149   0.00000  Uiso   1.00
C95    C     0.31913   0.59675   0.17691   0.00000  Uiso   1.00
C96    C     0.26942   0.56061   0.19124   0.00000  Uiso   1.00
C97    C     0.15258   0.51105   0.20064   0.00000  Uiso   1.00
C98    C     0.58507   0.63400   0.30372   0.00000  Uiso   1.00
C99    C     0.61157   0.67071   0.36508   0.00000  Uiso   1.00
C100   C     0.69560   0.66839   0.46546   0.00000  Uiso   1.00
C101   C     0.82544   0.68121   0.63354   0.00000  Uiso   1.00
C102   C     0.54681   0.61293   0.11754   0.00000  Uiso   1.00
C103   C     0.54116   0.63193   0.02238   0.00000  Uiso   1.00
C104   C     0.59300   0.61187   0.96603   0.00000  Uiso   1.00
C105   C     0.66344   0.59198   0.84505   0.00000  Uiso   1.00
C106   C     0.59817   0.56004   0.26093   0.00000  Uiso   1.00
C107   C     0.48169   0.55613   0.23905   0.00000  Uiso   1.00
C108   C     0.43214   0.51997   0.25341   0.00000  Uiso   1.00
C109   C     0.32500   0.52285   0.22886   0.00000  Uiso   1.00
C110   C     0.64055   0.59631   0.34128   0.00000  Uiso   1.00
C111   C     0.72457   0.59393   0.44159   0.00000  Uiso   1.00
C112   C     0.75118   0.63063   0.50309   0.00000  Uiso   1.00
C113   C     0.60229   0.57523   0.15510   0.00000  Uiso   1.00
C114   C     0.65416   0.55515   0.09889   0.00000  Uiso   1.00
C115   C     0.64858   0.57411   0.00366   0.00000  Uiso   1.00
H116   H     0.45285   0.65878   0.16255   0.00000  Uiso   1.00
H117   H     0.27623   0.62593   0.14785   0.00000  Uiso   1.00
H118   H     0.56863   0.69987   0.33599   0.00000  Uiso   1.00
H119   H     0.49822   0.66110   0.99334   0.00000  Uiso   1.00
H120   H     0.10489   0.57289   0.14816   0.00000  Uiso   1.00
H121   H     0.72144   0.72881   0.54484   0.00000  Uiso   1.00
H122   H     0.57299   0.64704   0.82231   0.00000  Uiso   1.00
H123   H     0.64137   0.53069   0.29018   0.00000  Uiso   1.00
H124   H     0.47509   0.49081   0.28248   0.00000  Uiso   1.00
H125   H     0.76749   0.56476   0.47062   0.00000  Uiso   1.00
H126   H     0.69708   0.52598   0.12798   0.00000  Uiso   1.00
H127   H     0.26629   0.46322   0.25744   0.00000  Uiso   1.00
H128   H     0.88285   0.61914   0.65412   0.00000  Uiso   1.00
H129   H     0.73440   0.53738   0.93158   0.00000  Uiso   1.00
O130   O     0.07281   0.49413   0.19547   0.00000  Uiso   1.00
O131   O     0.88172   0.69870   0.71589   0.00000  Uiso   1.00
O132   O     0.68695   0.59142   0.76794   0.00000  Uiso   1.00
N133   N     0.16569   0.55255   0.17492   0.00000  Uiso   1.00
N134   N     0.74212   0.69833   0.54580   0.00000  Uiso   1.00
N135   N     0.60336   0.62189   0.87030   0.00000  Uiso   1.00
N136   N     0.25254   0.49353   0.23371   0.00000  Uiso   1.00
N137   N     0.82897   0.63931   0.60460   0.00000  Uiso   1.00
N138   N     0.69021   0.56287   0.92910   0.00000  Uiso   1.00
C139   C     0.84420   0.16038   0.92140   0.00000  Uiso   1.00
C140   C     0.77045   0.12813   0.93842   0.00000  Uiso   1.00
C141   C     0.66736   0.13559   0.92542   0.00000  Uiso   1.00
C142   C     0.61299   0.10197   0.94488   0.00000  Uiso   1.00
C143   C     0.49133   0.05793   0.96659   0.00000  Uiso   1.00
C144   C     0.94173   0.16186   0.02756   0.00000  Uiso   1.00
C145   C     0.98265   0.19769   0.08951   0.00000  Uiso   1.00
C146   C     0.07246   0.19246   0.18401   0.00000  Uiso   1.00
C147   C     0.21676   0.20080   0.34409   0.00000  Uiso   1.00
C148   C     0.87987   0.14112   0.83776   0.00000  Uiso   1.00
C149   C     0.86880   0.15951   0.74012   0.00000  Uiso   1.00
C150   C     0.90656   0.13681   0.67482   0.00000  Uiso   1.00
C151   C     0.95481   0.11295   0.54019   0.00000  Uiso   1.00
C152   C     0.93096   0.08738   0.97907   0.00000  Uiso   1.00
C153   C     0.81759   0.08848   0.96974   0.00000  Uiso   1.00
C154   C     0.76335   0.05483   0.98923   0.00000  Uiso   1.00
C155   C     0.66020   0.06225   0.97626   0.00000  Uiso   1.00
C156   C     0.98886   0.12222   0.05889   0.00000  Uiso   1.00
C157   C     0.07864   0.11693   0.15332   0.00000  Uiso   1.00
C158   C     0.11968   0.15274   0.21540   0.00000  Uiso   1.00
C159   C     0.92700   0.10147   0.86908   0.00000  Uiso   1.00
C160   C     0.96479   0.07875   0.80393   0.00000  Uiso   1.00
C161   C     0.95378   0.09710   0.70621   0.00000  Uiso   1.00
H162   H     0.80751   0.19125   0.89702   0.00000  Uiso   1.00
H163   H     0.63092   0.16628   0.90119   0.00000  Uiso   1.00
H164   H     0.94616   0.22837   0.06524   0.00000  Uiso   1.00
H165   H     0.83233   0.19019   0.71591   0.00000  Uiso   1.00
H166   H     0.45593   0.12112   0.91966   0.00000  Uiso   1.00
H167   H     0.12066   0.25204   0.26557   0.00000  Uiso   1.00
H168   H     0.88062   0.17154   0.52892   0.00000  Uiso   1.00
H169   H     0.96766   0.05651   0.00346   0.00000  Uiso   1.00
H170   H     0.79985   0.02416   0.01347   0.00000  Uiso   1.00
H171   H     0.11509   0.08624   0.17753   0.00000  Uiso   1.00
H172   H     0.00126   0.04807   0.82819   0.00000  Uiso   1.00
H173   H     0.59304   0.00577   0.01080   0.00000  Uiso   1.00
H174   H     0.25777   0.13669   0.35671   0.00000  Uiso   1.00
H175   H     0.01773   0.05618   0.62006   0.00000  Uiso   1.00
O176   O     0.41122   0.04460   0.96993   0.00000  Uiso   1.00
O177   O     0.28332   0.21635   0.42373   0.00000  Uiso   1.00
O178   O     0.96840   0.11073   0.45726   0.00000  Uiso   1.00
N179   N     0.51122   0.09841   0.93972   0.00000  Uiso   1.00
N180   N     0.13269   0.22081   0.26313   0.00000  Uiso   1.00
N181   N     0.90831   0.14555   0.57443   0.00000  Uiso   1.00
N182   N     0.58500   0.03634   0.98876   0.00000  Uiso   1.00
N183   N     0.20647   0.15874   0.31217   0.00000  Uiso   1.00
N184   N     0.98208   0.08348   0.62347   0.00000  Uiso   1.00
C185   C     0.49603   0.87057   0.69178   0.00000  Uiso   1.00
C186   C     0.42621   0.90618   0.70149   0.00000  Uiso   1.00
C187   C     0.31913   0.90325   0.67691   0.00000  Uiso   1.00
C188   C     0.26942   0.93939   0.69124   0.00000  Uiso   1.00
C189   C     0.15258   0.98895   0.70064   0.00000  Uiso   1.00
C190   C     0.58507   0.86600   0.80372   0.00000  Uiso   1.00
C191   C     0.61157   0.82929   0.86508   0.00000  Uiso   1.00
C192   C     0.69560   0.83161   0.96546   0.00000  Uiso   1.00
C193   C     0.82544   0.81879   0.13354   0.00000  Uiso   1.00
C194   C     0.54681   0.88707   0.61754   0.00000  Uiso   1.00
C195   C     0.54116   0.86807   0.52238   0.00000  Uiso   1.00
C196   C     0.59300   0.88813   0.46603   0.00000  Uiso   1.00
C197   C     0.66344   0.90802   0.34505   0.00000  Uiso   1.00
C198   C     0.59817   0.93996   0.76093   0.00000  Uiso   1.00
C199   C     0.48169   0.94387   0.73905   0.00000  Uiso   1.00
C200   C     0.43214   0.98003   0.75341   0.00000  Uiso   1.00
C201   C     0.32500   0.97715   0.72886   0.00000  Uiso   1.00
C202   C     0.64055   0.90369   0.84128   0.00000  Uiso   1.00
C203   C     0.72457   0.90607   0.94159   0.00000  Uiso   1.00
C204   C     0.75118   0.86937   0.00309   0.00000  Uiso   1.00
C205   C     0.60229   0.92477   0.65510   0.00000  Uiso   1.00
C206   C     0.65416   0.94485   0.59889   0.00000  Uiso   1.00
C207   C     0.64858   0.92589   0.50366   0.00000  Uiso   1.00
H208   H     0.45285   0.84122   0.66255   0.00000  Uiso   1.00
H209   H     0.27623   0.87407   0.64785   0.00000  Uiso   1.00
H210   H     0.56863   0.80013   0.83599   0.00000  Uiso   1.00
H211   H     0.49822   0.83890   0.49334   0.00000  Uiso   1.00
H212   H     0.10489   0.92711   0.64816   0.00000  Uiso   1.00
H213   H     0.72144   0.77119   0.04484   0.00000  Uiso   1.00
H214   H     0.57299   0.85296   0.32231   0.00000  Uiso   1.00
H215   H     0.64137   0.96931   0.79018   0.00000  Uiso   1.00
H216   H     0.47509   0.00919   0.78248   0.00000  Uiso   1.00
H217   H     0.76749   0.93524   0.97062   0.00000  Uiso   1.00
H218   H     0.69708   0.97402   0.62798   0.00000  Uiso   1.00
H219   H     0.26629   0.03678   0.75744   0.00000  Uiso   1.00
H220   H     0.88285   0.88086   0.15412   0.00000  Uiso   1.00
H221   H     0.73440   0.96262   0.43158   0.00000  Uiso   1.00
O222   O     0.07281   0.00587   0.69547   0.00000  Uiso   1.00
O223   O     0.88172   0.80130   0.21589   0.00000  Uiso   1.00
O224   O     0.68695   0.90858   0.26794   0.00000  Uiso   1.00
N225   N     0.16569   0.94745   0.67492   0.00000  Uiso   1.00
N226   N     0.74212   0.80167   0.04580   0.00000  Uiso   1.00
N227   N     0.60336   0.87811   0.37030   0.00000  Uiso   1.00
N228   N     0.25254   0.00647   0.73371   0.00000  Uiso   1.00
N229   N     0.82897   0.86069   0.10460   0.00000  Uiso   1.00
N230   N     0.69021   0.93713   0.42910   0.00000  Uiso   1.00
C231   C     0.84420   0.33962   0.42140   0.00000  Uiso   1.00
C232   C     0.77045   0.37187   0.43842   0.00000  Uiso   1.00
C233   C     0.66736   0.36441   0.42542   0.00000  Uiso   1.00
C234   C     0.61299   0.39803   0.44488   0.00000  Uiso   1.00
C235   C     0.49133   0.44207   0.46659   0.00000  Uiso   1.00
C236   C     0.94173   0.33814   0.52756   0.00000  Uiso   1.00
C237   C     0.98265   0.30231   0.58951   0.00000  Uiso   1.00
C238   C     0.07246   0.30754   0.68401   0.00000  Uiso   1.00
C239   C     0.21676   0.29920   0.84409   0.00000  Uiso   1.00
C240   C     0.87987   0.35888   0.33776   0.00000  Uiso   1.00
C241   C     0.86880   0.34049   0.24012   0.00000  Uiso   1.00
C242   C     0.90656   0.36319   0.17482   0.00000  Uiso   1.00
C243   C     0.95481   0.38705   0.04019   0.00000  Uiso   1.00
C244   C     0.93096   0.41262   0.47907   0.00000  Uiso   1.00
C245   C     0.81759   0.41152   0.46974   0.00000  Uiso   1.00
C246   C     0.76335   0.44517   0.48923   0.00000  Uiso   1.00
C247   C     0.66020   0.43775   0.47626   0.00000  Uiso   1.00
C248   C     0.98886   0.37778   0.55889   0.00000  Uiso   1.00
C249   C     0.07864   0.38307   0.65332   0.00000  Uiso   1.00
C250   C     0.11968   0.34726   0.71540   0.00000  Uiso   1.00
C251   C     0.92700   0.39853   0.36908   0.00000  Uiso   1.00
C252   C     0.96479   0.42125   0.30393   0.00000  Uiso   1.00
C253   C     0.95378   0.40290   0.20621   0.00000  Uiso   1.00
H254   H     0.80751   0.30875   0.39702   0.00000  Uiso   1.00
H255   H     0.63092   0.33372   0.40119   0.00000  Uiso   1.00
H256   H     0.94616   0.27163   0.56524   0.00000  Uiso   1.00
H257   H     0.83233   0.30981   0.21591   0.00000  Uiso   1.00
H258   H     0.45593   0.37888   0.41966   0.00000  Uiso   1.00
H259   H     0.12066   0.24796   0.76557   0.00000  Uiso   1.00
H260   H     0.88062   0.32846   0.02892   0.00000  Uiso   1.00
H261   H     0.96766   0.44349   0.50346   0.00000  Uiso   1.00
H262   H     0.79985   0.47584   0.51347   0.00000  Uiso   1.00
H263   H     0.11509   0.41376   0.67753   0.00000  Uiso   1.00
H264   H     0.00126   0.45193   0.32819   0.00000  Uiso   1.00
H265   H     0.59304   0.49423   0.51080   0.00000  Uiso   1.00
H266   H     0.25777   0.36331   0.85671   0.00000  Uiso   1.00
H267   H     0.01773   0.44382   0.12006   0.00000  Uiso   1.00
O268   O     0.41122   0.45540   0.46993   0.00000  Uiso   1.00
O269   O     0.28332   0.28365   0.92373   0.00000  Uiso   1.00
O270   O     0.96840   0.38927   0.95726   0.00000  Uiso   1.00
N271   N     0.51122   0.40159   0.43972   0.00000  Uiso   1.00
N272   N     0.13269   0.27919   0.76313   0.00000  Uiso   1.00
N273   N     0.90831   0.35445   0.07443   0.00000  Uiso   1.00
N274   N     0.58500   0.46366   0.48876   0.00000  Uiso   1.00
N275   N     0.20647   0.34126   0.81217   0.00000  Uiso   1.00
N276   N     0.98208   0.41652   0.12347   0.00000  Uiso   1.00
C277   C     0.50397   0.37057   0.80822   0.00000  Uiso   1.00
C278   C     0.57379   0.40618   0.79851   0.00000  Uiso   1.00
C279   C     0.68087   0.40325   0.82309   0.00000  Uiso   1.00
C280   C     0.73058   0.43939   0.80876   0.00000  Uiso   1.00
C281   C     0.84742   0.48895   0.79936   0.00000  Uiso   1.00
C282   C     0.41493   0.36600   0.69628   0.00000  Uiso   1.00
C283   C     0.38843   0.32929   0.63492   0.00000  Uiso   1.00
C284   C     0.30440   0.33161   0.53454   0.00000  Uiso   1.00
C285   C     0.17456   0.31879   0.36646   0.00000  Uiso   1.00
C286   C     0.45319   0.38707   0.88246   0.00000  Uiso   1.00
C287   C     0.45884   0.36807   0.97762   0.00000  Uiso   1.00
C288   C     0.40700   0.38813   0.03397   0.00000  Uiso   1.00
C289   C     0.33656   0.40802   0.15495   0.00000  Uiso   1.00
C290   C     0.40183   0.43996   0.73907   0.00000  Uiso   1.00
C291   C     0.51831   0.44387   0.76095   0.00000  Uiso   1.00
C292   C     0.56786   0.48003   0.74659   0.00000  Uiso   1.00
C293   C     0.67500   0.47715   0.77114   0.00000  Uiso   1.00
C294   C     0.35945   0.40369   0.65872   0.00000  Uiso   1.00
C295   C     0.27543   0.40607   0.55841   0.00000  Uiso   1.00
C296   C     0.24882   0.36937   0.49691   0.00000  Uiso   1.00
C297   C     0.39771   0.42477   0.84490   0.00000  Uiso   1.00
C298   C     0.34584   0.44485   0.90111   0.00000  Uiso   1.00
C299   C     0.35142   0.42589   0.99634   0.00000  Uiso   1.00
H300   H     0.54715   0.34122   0.83745   0.00000  Uiso   1.00
H301   H     0.72377   0.37407   0.85215   0.00000  Uiso   1.00
H302   H     0.43137   0.30013   0.66401   0.00000  Uiso   1.00
H303   H     0.50178   0.33890   0.00666   0.00000  Uiso   1.00
H304   H     0.89511   0.42711   0.85184   0.00000  Uiso   1.00
H305   H     0.27856   0.27119   0.45516   0.00000  Uiso   1.00
H306   H     0.42701   0.35296   0.17769   0.00000  Uiso   1.00
H307   H     0.35863   0.46931   0.70982   0.00000  Uiso   1.00
H308   H     0.52491   0.50919   0.71752   0.00000  Uiso   1.00
H309   H     0.23251   0.43524   0.52938   0.00000  Uiso   1.00
H310   H     0.30292   0.47402   0.87202   0.00000  Uiso   1.00
H311   H     0.73371   0.53678   0.74256   0.00000  Uiso   1.00
H312   H     0.11715   0.38086   0.34588   0.00000  Uiso   1.00
H313   H     0.26560   0.46262   0.06842   0.00000  Uiso   1.00
O314   O     0.92719   0.50587   0.80453   0.00000  Uiso   1.00
O315   O     0.11828   0.30130   0.28411   0.00000  Uiso   1.00
O316   O     0.31305   0.40858   0.23206   0.00000  Uiso   1.00
N317   N     0.83431   0.44745   0.82508   0.00000  Uiso   1.00
N318   N     0.25788   0.30167   0.45420   0.00000  Uiso   1.00
N319   N     0.39664   0.37811   0.12970   0.00000  Uiso   1.00
N320   N     0.74746   0.50647   0.76629   0.00000  Uiso   1.00
N321   N     0.17103   0.36069   0.39540   0.00000  Uiso   1.00
N322   N     0.30979   0.43713   0.07090   0.00000  Uiso   1.00
C323   C     0.15580   0.83962   0.07860   0.00000  Uiso   1.00
C324   C     0.22955   0.87187   0.06158   0.00000  Uiso   1.00
C325   C     0.33264   0.86441   0.07458   0.00000  Uiso   1.00
C326   C     0.38701   0.89803   0.05512   0.00000  Uiso   1.00
C327   C     0.50867   0.94207   0.03341   0.00000  Uiso   1.00
C328   C     0.05827   0.83814   0.97244   0.00000  Uiso   1.00
C329   C     0.01735   0.80231   0.91049   0.00000  Uiso   1.00
C330   C     0.92754   0.80754   0.81599   0.00000  Uiso   1.00
C331   C     0.78324   0.79920   0.65591   0.00000  Uiso   1.00
C332   C     0.12013   0.85888   0.16224   0.00000  Uiso   1.00
C333   C     0.13120   0.84049   0.25988   0.00000  Uiso   1.00
C334   C     0.09344   0.86319   0.32518   0.00000  Uiso   1.00
C335   C     0.04519   0.88705   0.45981   0.00000  Uiso   1.00
C336   C     0.06904   0.91262   0.02093   0.00000  Uiso   1.00
C337   C     0.18241   0.91152   0.03026   0.00000  Uiso   1.00
C338   C     0.23665   0.94517   0.01077   0.00000  Uiso   1.00
C339   C     0.33980   0.93775   0.02374   0.00000  Uiso   1.00
C340   C     0.01114   0.87778   0.94111   0.00000  Uiso   1.00
C341   C     0.92136   0.88307   0.84668   0.00000  Uiso   1.00
C342   C     0.88032   0.84726   0.78460   0.00000  Uiso   1.00
C343   C     0.07300   0.89853   0.13092   0.00000  Uiso   1.00
C344   C     0.03521   0.92125   0.19607   0.00000  Uiso   1.00
C345   C     0.04622   0.90290   0.29379   0.00000  Uiso   1.00
H346   H     0.19249   0.80875   0.10298   0.00000  Uiso   1.00
H347   H     0.36908   0.83372   0.09881   0.00000  Uiso   1.00
H348   H     0.05384   0.77163   0.93476   0.00000  Uiso   1.00
H349   H     0.16767   0.80981   0.28409   0.00000  Uiso   1.00
H350   H     0.54407   0.87888   0.08034   0.00000  Uiso   1.00
H351   H     0.87934   0.74796   0.73443   0.00000  Uiso   1.00
H352   H     0.11938   0.82846   0.47108   0.00000  Uiso   1.00
H353   H     0.03234   0.94349   0.99654   0.00000  Uiso   1.00
H354   H     0.20015   0.97584   0.98653   0.00000  Uiso   1.00
H355   H     0.88491   0.91376   0.82247   0.00000  Uiso   1.00
H356   H     0.99874   0.95193   0.17181   0.00000  Uiso   1.00
H357   H     0.40696   0.99423   0.98920   0.00000  Uiso   1.00
H358   H     0.74223   0.86331   0.64329   0.00000  Uiso   1.00
H359   H     0.98227   0.94382   0.37994   0.00000  Uiso   1.00
O360   O     0.58878   0.95540   0.03007   0.00000  Uiso   1.00
O361   O     0.71668   0.78365   0.57627   0.00000  Uiso   1.00
O362   O     0.03160   0.88927   0.54274   0.00000  Uiso   1.00
N363   N     0.48878   0.90159   0.06028   0.00000  Uiso   1.00
N364   N     0.86731   0.77919   0.73687   0.00000  Uiso   1.00
N365   N     0.09169   0.85445   0.42557   0.00000  Uiso   1.00
N366   N     0.41500   0.96366   0.01124   0.00000  Uiso   1.00
N367   N     0.79353   0.84126   0.68783   0.00000  Uiso   1.00
N368   N     0.01792   0.91652   0.37653   0.00000  Uiso   1.00
