data_job_01124
_audit_creation_date              2018-12-19
_audit_creation_method            'Materials Studio'
_symmetry_space_group_name_H-M    'P1'
_symmetry_Int_Tables_number       1
_symmetry_cell_setting            triclinic
loop_
_symmetry_equiv_pos_as_xyz
  x,y,z
_cell_length_a                    14.5066
_cell_length_b                    14.5066
_cell_length_c                    13.5816
_cell_angle_alpha                 90.0000
_cell_angle_beta                  90.0000
_cell_angle_gamma                 90.0000
loop_
_atom_site_label
_atom_site_type_symbol
_atom_site_fract_x
_atom_site_fract_y
_atom_site_fract_z
_atom_site_U_iso_or_equiv
_atom_site_adp_type
_atom_site_occupancy
C1     C     0.75088   0.66710   0.53453   0.00000  Uiso   1.00
C2     C     0.71961   0.74415   0.60322   0.00000  Uiso   1.00
C3     C     0.77515   0.79092   0.66976   0.00000  Uiso   1.00
C4     C     0.73349   0.85916   0.72595   0.00000  Uiso   1.00
C5     C     0.69920   0.97563   0.83416   0.00000  Uiso   1.00
C6     C     0.68889   0.58483   0.55693   0.00000  Uiso   1.00
C7     C     0.71859   0.49764   0.58454   0.00000  Uiso   1.00
C8     C     0.65106   0.43176   0.60176   0.00000  Uiso   1.00
C9     C     0.56907   0.30087   0.63805   0.00000  Uiso   1.00
C10    C     0.72575   0.69836   0.43075   0.00000  Uiso   1.00
C11    C     0.78644   0.70660   0.35226   0.00000  Uiso   1.00
C12    C     0.74994   0.73628   0.26323   0.00000  Uiso   1.00
C13    C     0.72520   0.78166   0.10360   0.00000  Uiso   1.00
C14    C     0.57813   0.70513   0.51600   0.00000  Uiso   1.00
C15    C     0.62578   0.76481   0.59315   0.00000  Uiso   1.00
C16    C     0.58402   0.83300   0.64925   0.00000  Uiso   1.00
C17    C     0.63949   0.87985   0.71586   0.00000  Uiso   1.00
C18    C     0.59506   0.60549   0.54687   0.00000  Uiso   1.00
C19    C     0.52747   0.53972   0.56404   0.00000  Uiso   1.00
C20    C     0.55706   0.45245   0.59167   0.00000  Uiso   1.00
C21    C     0.63192   0.71902   0.42068   0.00000  Uiso   1.00
C22    C     0.59532   0.74869   0.33176   0.00000  Uiso   1.00
C23    C     0.65594   0.75698   0.25314   0.00000  Uiso   1.00
H24    H     0.82393   0.65101   0.54237   0.00000  Uiso   1.00
H25    H     0.84776   0.77490   0.67753   0.00000  Uiso   1.00
H26    H     0.79121   0.48167   0.59232   0.00000  Uiso   1.00
H27    H     0.85905   0.69061   0.36007   0.00000  Uiso   1.00
H28    H     0.83279   0.92135   0.82297   0.00000  Uiso   1.00
H29    H     0.71355   0.30305   0.64326   0.00000  Uiso   1.00
H30    H     0.85661   0.74363   0.15352   0.00000  Uiso   1.00
H31    H     0.50508   0.72121   0.50816   0.00000  Uiso   1.00
H32    H     0.51141   0.84897   0.64145   0.00000  Uiso   1.00
H33    H     0.45486   0.55573   0.55623   0.00000  Uiso   1.00
H34    H     0.52270   0.76467   0.32399   0.00000  Uiso   1.00
H35    H     0.55980   0.98146   0.79368   0.00000  Uiso   1.00
H36    H     0.44056   0.36315   0.61397   0.00000  Uiso   1.00
H37    H     0.58362   0.80374   0.12424   0.00000  Uiso   1.00
O38    O     0.70621   0.03416   0.89665   0.00000  Uiso   1.00
O39    O     0.54977   0.22297   0.66086   0.00000  Uiso   1.00
O40    O     0.73747   0.80100   0.01834   0.00000  Uiso   1.00
N41    N     0.76768   0.91798   0.79777   0.00000  Uiso   1.00
N42    N     0.65620   0.33991   0.62977   0.00000  Uiso   1.00
N43    N     0.78994   0.75179   0.17190   0.00000  Uiso   1.00
N44    N     0.62079   0.95032   0.78201   0.00000  Uiso   1.00
N45    N     0.50930   0.37225   0.61401   0.00000  Uiso   1.00
N46    N     0.64305   0.78413   0.15614   0.00000  Uiso   1.00
C47    C     0.24912   0.33290   0.03453   0.00000  Uiso   1.00
C48    C     0.28039   0.25585   0.10322   0.00000  Uiso   1.00
C49    C     0.22485   0.20908   0.16976   0.00000  Uiso   1.00
C50    C     0.26651   0.14084   0.22595   0.00000  Uiso   1.00
C51    C     0.30080   0.02437   0.33416   0.00000  Uiso   1.00
C52    C     0.31111   0.41517   0.05693   0.00000  Uiso   1.00
C53    C     0.28141   0.50236   0.08454   0.00000  Uiso   1.00
C54    C     0.34894   0.56824   0.10176   0.00000  Uiso   1.00
C55    C     0.43093   0.69913   0.13805   0.00000  Uiso   1.00
C56    C     0.27425   0.30164   0.93075   0.00000  Uiso   1.00
C57    C     0.21356   0.29340   0.85226   0.00000  Uiso   1.00
C58    C     0.25006   0.26372   0.76323   0.00000  Uiso   1.00
C59    C     0.27480   0.21834   0.60360   0.00000  Uiso   1.00
C60    C     0.42187   0.29487   0.01600   0.00000  Uiso   1.00
C61    C     0.37422   0.23519   0.09315   0.00000  Uiso   1.00
C62    C     0.41598   0.16700   0.14925   0.00000  Uiso   1.00
C63    C     0.36051   0.12015   0.21586   0.00000  Uiso   1.00
C64    C     0.40494   0.39451   0.04687   0.00000  Uiso   1.00
C65    C     0.47253   0.46028   0.06404   0.00000  Uiso   1.00
C66    C     0.44294   0.54755   0.09167   0.00000  Uiso   1.00
C67    C     0.36808   0.28098   0.92068   0.00000  Uiso   1.00
C68    C     0.40468   0.25131   0.83176   0.00000  Uiso   1.00
C69    C     0.34406   0.24302   0.75314   0.00000  Uiso   1.00
H70    H     0.17607   0.34899   0.04237   0.00000  Uiso   1.00
H71    H     0.15224   0.22510   0.17753   0.00000  Uiso   1.00
H72    H     0.20879   0.51833   0.09232   0.00000  Uiso   1.00
H73    H     0.14095   0.30939   0.86007   0.00000  Uiso   1.00
H74    H     0.16721   0.07865   0.32297   0.00000  Uiso   1.00
H75    H     0.28645   0.69695   0.14326   0.00000  Uiso   1.00
H76    H     0.14339   0.25637   0.65352   0.00000  Uiso   1.00
H77    H     0.49492   0.27879   0.00816   0.00000  Uiso   1.00
H78    H     0.48859   0.15103   0.14145   0.00000  Uiso   1.00
H79    H     0.54514   0.44427   0.05623   0.00000  Uiso   1.00
H80    H     0.47730   0.23533   0.82399   0.00000  Uiso   1.00
H81    H     0.44020   0.01854   0.29368   0.00000  Uiso   1.00
H82    H     0.55944   0.63685   0.11397   0.00000  Uiso   1.00
H83    H     0.41638   0.19626   0.62424   0.00000  Uiso   1.00
O84    O     0.29379   0.96584   0.39665   0.00000  Uiso   1.00
O85    O     0.45023   0.77703   0.16086   0.00000  Uiso   1.00
O86    O     0.26253   0.19900   0.51834   0.00000  Uiso   1.00
N87    N     0.23232   0.08202   0.29777   0.00000  Uiso   1.00
N88    N     0.34380   0.66009   0.12977   0.00000  Uiso   1.00
N89    N     0.21006   0.24821   0.67190   0.00000  Uiso   1.00
N90    N     0.37921   0.04968   0.28201   0.00000  Uiso   1.00
N91    N     0.49070   0.62775   0.11401   0.00000  Uiso   1.00
N92    N     0.35695   0.21587   0.65614   0.00000  Uiso   1.00
C93    C     0.33290   0.75088   0.78453   0.00000  Uiso   1.00
C94    C     0.25585   0.71961   0.85322   0.00000  Uiso   1.00
C95    C     0.20908   0.77515   0.91976   0.00000  Uiso   1.00
C96    C     0.14084   0.73349   0.97595   0.00000  Uiso   1.00
C97    C     0.02437   0.69920   0.08416   0.00000  Uiso   1.00
C98    C     0.41517   0.68889   0.80693   0.00000  Uiso   1.00
C99    C     0.50236   0.71859   0.83454   0.00000  Uiso   1.00
C100   C     0.56824   0.65106   0.85176   0.00000  Uiso   1.00
C101   C     0.69913   0.56907   0.88805   0.00000  Uiso   1.00
C102   C     0.30164   0.72575   0.68075   0.00000  Uiso   1.00
C103   C     0.29340   0.78644   0.60226   0.00000  Uiso   1.00
C104   C     0.26372   0.74994   0.51323   0.00000  Uiso   1.00
C105   C     0.21834   0.72520   0.35360   0.00000  Uiso   1.00
C106   C     0.29487   0.57813   0.76600   0.00000  Uiso   1.00
C107   C     0.23519   0.62578   0.84315   0.00000  Uiso   1.00
C108   C     0.16700   0.58402   0.89925   0.00000  Uiso   1.00
C109   C     0.12015   0.63949   0.96586   0.00000  Uiso   1.00
C110   C     0.39451   0.59506   0.79687   0.00000  Uiso   1.00
C111   C     0.46028   0.52747   0.81404   0.00000  Uiso   1.00
C112   C     0.54755   0.55706   0.84167   0.00000  Uiso   1.00
C113   C     0.28098   0.63192   0.67068   0.00000  Uiso   1.00
C114   C     0.25131   0.59532   0.58176   0.00000  Uiso   1.00
C115   C     0.24302   0.65594   0.50314   0.00000  Uiso   1.00
H116   H     0.34899   0.82393   0.79237   0.00000  Uiso   1.00
H117   H     0.22510   0.84776   0.92753   0.00000  Uiso   1.00
H118   H     0.51833   0.79121   0.84232   0.00000  Uiso   1.00
H119   H     0.30939   0.85905   0.61007   0.00000  Uiso   1.00
H120   H     0.07865   0.83279   0.07297   0.00000  Uiso   1.00
H121   H     0.69695   0.71355   0.89326   0.00000  Uiso   1.00
H122   H     0.25637   0.85661   0.40352   0.00000  Uiso   1.00
H123   H     0.27879   0.50508   0.75816   0.00000  Uiso   1.00
H124   H     0.15103   0.51141   0.89145   0.00000  Uiso   1.00
H125   H     0.44427   0.45486   0.80623   0.00000  Uiso   1.00
H126   H     0.23533   0.52270   0.57399   0.00000  Uiso   1.00
H127   H     0.01854   0.55980   0.04368   0.00000  Uiso   1.00
H128   H     0.63685   0.44056   0.86397   0.00000  Uiso   1.00
H129   H     0.19626   0.58362   0.37424   0.00000  Uiso   1.00
O130   O     0.96584   0.70621   0.14665   0.00000  Uiso   1.00
O131   O     0.77703   0.54977   0.91086   0.00000  Uiso   1.00
O132   O     0.19900   0.73747   0.26834   0.00000  Uiso   1.00
N133   N     0.08202   0.76768   0.04777   0.00000  Uiso   1.00
N134   N     0.66009   0.65620   0.87977   0.00000  Uiso   1.00
N135   N     0.24821   0.78994   0.42190   0.00000  Uiso   1.00
N136   N     0.04968   0.62079   0.03201   0.00000  Uiso   1.00
N137   N     0.62775   0.50930   0.86401   0.00000  Uiso   1.00
N138   N     0.21587   0.64305   0.40614   0.00000  Uiso   1.00
C139   C     0.66710   0.24912   0.28453   0.00000  Uiso   1.00
C140   C     0.74415   0.28039   0.35322   0.00000  Uiso   1.00
C141   C     0.79092   0.22485   0.41976   0.00000  Uiso   1.00
C142   C     0.85916   0.26651   0.47595   0.00000  Uiso   1.00
C143   C     0.97563   0.30080   0.58416   0.00000  Uiso   1.00
C144   C     0.58483   0.31111   0.30693   0.00000  Uiso   1.00
C145   C     0.49764   0.28141   0.33454   0.00000  Uiso   1.00
C146   C     0.43176   0.34894   0.35176   0.00000  Uiso   1.00
C147   C     0.30087   0.43093   0.38805   0.00000  Uiso   1.00
C148   C     0.69836   0.27425   0.18075   0.00000  Uiso   1.00
C149   C     0.70660   0.21356   0.10226   0.00000  Uiso   1.00
C150   C     0.73628   0.25006   0.01323   0.00000  Uiso   1.00
C151   C     0.78166   0.27480   0.85360   0.00000  Uiso   1.00
C152   C     0.70513   0.42187   0.26600   0.00000  Uiso   1.00
C153   C     0.76481   0.37422   0.34315   0.00000  Uiso   1.00
C154   C     0.83300   0.41598   0.39925   0.00000  Uiso   1.00
C155   C     0.87985   0.36051   0.46586   0.00000  Uiso   1.00
C156   C     0.60549   0.40494   0.29687   0.00000  Uiso   1.00
C157   C     0.53972   0.47253   0.31404   0.00000  Uiso   1.00
C158   C     0.45245   0.44294   0.34167   0.00000  Uiso   1.00
C159   C     0.71902   0.36808   0.17068   0.00000  Uiso   1.00
C160   C     0.74869   0.40468   0.08176   0.00000  Uiso   1.00
C161   C     0.75698   0.34406   0.00314   0.00000  Uiso   1.00
H162   H     0.65101   0.17607   0.29237   0.00000  Uiso   1.00
H163   H     0.77490   0.15224   0.42753   0.00000  Uiso   1.00
H164   H     0.48167   0.20879   0.34232   0.00000  Uiso   1.00
H165   H     0.69061   0.14095   0.11007   0.00000  Uiso   1.00
H166   H     0.92135   0.16721   0.57297   0.00000  Uiso   1.00
H167   H     0.30305   0.28645   0.39326   0.00000  Uiso   1.00
H168   H     0.74363   0.14339   0.90352   0.00000  Uiso   1.00
H169   H     0.72121   0.49492   0.25816   0.00000  Uiso   1.00
H170   H     0.84897   0.48859   0.39145   0.00000  Uiso   1.00
H171   H     0.55573   0.54514   0.30623   0.00000  Uiso   1.00
H172   H     0.76467   0.47730   0.07399   0.00000  Uiso   1.00
H173   H     0.98146   0.44020   0.54368   0.00000  Uiso   1.00
H174   H     0.36315   0.55944   0.36397   0.00000  Uiso   1.00
H175   H     0.80374   0.41638   0.87424   0.00000  Uiso   1.00
O176   O     0.03416   0.29379   0.64665   0.00000  Uiso   1.00
O177   O     0.22297   0.45023   0.41086   0.00000  Uiso   1.00
O178   O     0.80100   0.26253   0.76834   0.00000  Uiso   1.00
N179   N     0.91798   0.23232   0.54777   0.00000  Uiso   1.00
N180   N     0.33991   0.34380   0.37977   0.00000  Uiso   1.00
N181   N     0.75179   0.21006   0.92190   0.00000  Uiso   1.00
N182   N     0.95032   0.37921   0.53201   0.00000  Uiso   1.00
N183   N     0.37225   0.49070   0.36401   0.00000  Uiso   1.00
N184   N     0.78413   0.35695   0.90614   0.00000  Uiso   1.00
