data_job_06090
_audit_creation_date              2018-12-19
_audit_creation_method            'Materials Studio'
_symmetry_space_group_name_H-M    'P1'
_symmetry_Int_Tables_number       1
_symmetry_cell_setting            triclinic
loop_
_symmetry_equiv_pos_as_xyz
  x,y,z
_cell_length_a                    12.3603
_cell_length_b                    20.8767
_cell_length_c                    21.1675
_cell_angle_alpha                 116.3740
_cell_angle_beta                  77.8436
_cell_angle_gamma                 80.6874
loop_
_atom_site_label
_atom_site_type_symbol
_atom_site_fract_x
_atom_site_fract_y
_atom_site_fract_z
_atom_site_U_iso_or_equiv
_atom_site_adp_type
_atom_site_occupancy
C1     C     0.87423   0.76224   0.54537   0.00000  Uiso   1.00
C2     C     0.97439   0.69928   0.53156   0.00000  Uiso   1.00
C3     C     0.08783   0.67994   0.48772   0.00000  Uiso   1.00
C4     C     0.16667   0.62063   0.48213   0.00000  Uiso   1.00
C5     C     0.32728   0.52871   0.45504   0.00000  Uiso   1.00
C6     C     0.78138   0.72613   0.52158   0.00000  Uiso   1.00
C7     C     0.73251   0.72938   0.46935   0.00000  Uiso   1.00
C8     C     0.64886   0.69268   0.45536   0.00000  Uiso   1.00
C9     C     0.50975   0.64249   0.41281   0.00000  Uiso   1.00
C10    C     0.82465   0.81268   0.62958   0.00000  Uiso   1.00
C11    C     0.81214   0.88871   0.66817   0.00000  Uiso   1.00
C12    C     0.76489   0.92488   0.74511   0.00000  Uiso   1.00
C13    C     0.69296   0.00907   0.87025   0.00000  Uiso   1.00
C14    C     0.81254   0.69128   0.61339   0.00000  Uiso   1.00
C15    C     0.94088   0.66073   0.56851   0.00000  Uiso   1.00
C16    C     0.01957   0.60143   0.56298   0.00000  Uiso   1.00
C17    C     0.13310   0.58202   0.51914   0.00000  Uiso   1.00
C18    C     0.74787   0.68759   0.55852   0.00000  Uiso   1.00
C19    C     0.66426   0.65087   0.54461   0.00000  Uiso   1.00
C20    C     0.61529   0.65406   0.49237   0.00000  Uiso   1.00
C21    C     0.79114   0.77414   0.66653   0.00000  Uiso   1.00
C22    C     0.74389   0.81019   0.74343   0.00000  Uiso   1.00
C23    C     0.73132   0.88626   0.78213   0.00000  Uiso   1.00
H24    H     0.90032   0.79225   0.51661   0.00000  Uiso   1.00
H25    H     0.11372   0.70978   0.45913   0.00000  Uiso   1.00
H26    H     0.75845   0.75922   0.44078   0.00000  Uiso   1.00
H27    H     0.83808   0.91852   0.63956   0.00000  Uiso   1.00
H28    H     0.33554   0.60134   0.41169   0.00000  Uiso   1.00
H29    H     0.58641   0.70560   0.37300   0.00000  Uiso   1.00
H30    H     0.75430   0.04152   0.79217   0.00000  Uiso   1.00
H31    H     0.78645   0.66127   0.64216   0.00000  Uiso   1.00
H32    H     0.99362   0.57162   0.59158   0.00000  Uiso   1.00
H33    H     0.63835   0.62105   0.57321   0.00000  Uiso   1.00
H34    H     0.71797   0.78035   0.77200   0.00000  Uiso   1.00
H35    H     0.23805   0.48920   0.51918   0.00000  Uiso   1.00
H36    H     0.48892   0.59346   0.48049   0.00000  Uiso   1.00
H37    H     0.65682   0.92937   0.89967   0.00000  Uiso   1.00
O38    O     0.42512   0.48864   0.42988   0.00000  Uiso   1.00
O39    O     0.44228   0.62544   0.37912   0.00000  Uiso   1.00
O40    O     0.66256   0.06615   0.92907   0.00000  Uiso   1.00
N41    N     0.28417   0.58726   0.44394   0.00000  Uiso   1.00
N42    N     0.58379   0.68473   0.40776   0.00000  Uiso   1.00
N43    N     0.74073   0.99878   0.79965   0.00000  Uiso   1.00
N44    N     0.23171   0.52692   0.50178   0.00000  Uiso   1.00
N45    N     0.53134   0.62439   0.46560   0.00000  Uiso   1.00
N46    N     0.68828   0.93844   0.85749   0.00000  Uiso   1.00
C47    C     0.41629   0.45187   0.21824   0.00000  Uiso   1.00
C48    C     0.50491   0.46702   0.16864   0.00000  Uiso   1.00
C49    C     0.57533   0.51223   0.19205   0.00000  Uiso   1.00
C50    C     0.65069   0.51891   0.13809   0.00000  Uiso   1.00
C51    C     0.78755   0.54814   0.07243   0.00000  Uiso   1.00
C52    C     0.30104   0.47445   0.20724   0.00000  Uiso   1.00
C53    C     0.20005   0.52589   0.26312   0.00000  Uiso   1.00
C54    C     0.10379   0.53882   0.24165   0.00000  Uiso   1.00
C55    C     0.92411   0.57953   0.23594   0.00000  Uiso   1.00
C56    C     0.44880   0.36719   0.18463   0.00000  Uiso   1.00
C57    C     0.47201   0.32843   0.22150   0.00000  Uiso   1.00
C58    C     0.50013   0.25105   0.18099   0.00000  Uiso   1.00
C59    C     0.54987   0.12522   0.14017   0.00000  Uiso   1.00
C60    C     0.42489   0.38336   0.08076   0.00000  Uiso   1.00
C61    C     0.50958   0.42981   0.09396   0.00000  Uiso   1.00
C62    C     0.58486   0.43643   0.03995   0.00000  Uiso   1.00
C63    C     0.65538   0.48163   0.06328   0.00000  Uiso   1.00
C64    C     0.30571   0.43724   0.13257   0.00000  Uiso   1.00
C65    C     0.20957   0.45009   0.11102   0.00000  Uiso   1.00
C66    C     0.10847   0.50154   0.16684   0.00000  Uiso   1.00
C67    C     0.45347   0.32997   0.10996   0.00000  Uiso   1.00
C68    C     0.48154   0.25264   0.06939   0.00000  Uiso   1.00
C69    C     0.50481   0.21377   0.10619   0.00000  Uiso   1.00
H70    H     0.41264   0.48084   0.27637   0.00000  Uiso   1.00
H71    H     0.57168   0.54102   0.24984   0.00000  Uiso   1.00
H72    H     0.19646   0.55467   0.32090   0.00000  Uiso   1.00
H73    H     0.46839   0.35725   0.27928   0.00000  Uiso   1.00
H74    H     0.75005   0.59135   0.18750   0.00000  Uiso   1.00
H75    H     0.95885   0.62012   0.33733   0.00000  Uiso   1.00
H76    H     0.53226   0.20381   0.24957   0.00000  Uiso   1.00
H77    H     0.42853   0.35439   0.02263   0.00000  Uiso   1.00
H78    H     0.58845   0.40763   0.98217   0.00000  Uiso   1.00
H79    H     0.21322   0.42128   0.05323   0.00000  Uiso   1.00
H80    H     0.48515   0.22386   0.01161   0.00000  Uiso   1.00
H81    H     0.76365   0.48309   0.97025   0.00000  Uiso   1.00
H82    H     0.97245   0.51186   0.12008   0.00000  Uiso   1.00
H83    H     0.54587   0.09555   0.03232   0.00000  Uiso   1.00
O84    O     0.86174   0.57455   0.05685   0.00000  Uiso   1.00
O85    O     0.82372   0.61228   0.25342   0.00000  Uiso   1.00
O86    O     0.57603   0.06609   0.13828   0.00000  Uiso   1.00
N87    N     0.73132   0.55855   0.14192   0.00000  Uiso   1.00
N88    N     0.99160   0.58546   0.28200   0.00000  Uiso   1.00
N89    N     0.52767   0.19625   0.19996   0.00000  Uiso   1.00
N90    N     0.73864   0.50030   0.02502   0.00000  Uiso   1.00
N91    N     0.99892   0.52720   0.16510   0.00000  Uiso   1.00
N92    N     0.53499   0.13799   0.08306   0.00000  Uiso   1.00
C93    C     0.63521   0.77971   0.23604   0.00000  Uiso   1.00
C94    C     0.67387   0.83029   0.29960   0.00000  Uiso   1.00
C95    C     0.76599   0.80778   0.32022   0.00000  Uiso   1.00
C96    C     0.78734   0.86255   0.37990   0.00000  Uiso   1.00
C97    C     0.85773   0.92973   0.47290   0.00000  Uiso   1.00
C98    C     0.50824   0.78916   0.27060   0.00000  Uiso   1.00
C99    C     0.46110   0.73206   0.26681   0.00000  Uiso   1.00
C100   C     0.34302   0.75221   0.30207   0.00000  Uiso   1.00
C101   C     0.15624   0.75553   0.34999   0.00000  Uiso   1.00
C102   C     0.63725   0.81377   0.18542   0.00000  Uiso   1.00
C103   C     0.69857   0.77737   0.11002   0.00000  Uiso   1.00
C104   C     0.68909   0.81824   0.07356   0.00000  Uiso   1.00
C105   C     0.70264   0.85977   0.98923   0.00000  Uiso   1.00
C106   C     0.50932   0.91700   0.30537   0.00000  Uiso   1.00
C107   C     0.60548   0.90486   0.33726   0.00000  Uiso   1.00
C108   C     0.62671   0.95967   0.39692   0.00000  Uiso   1.00
C109   C     0.71884   0.93725   0.41762   0.00000  Uiso   1.00
C110   C     0.43986   0.86372   0.30826   0.00000  Uiso   1.00
C111   C     0.32182   0.88396   0.34352   0.00000  Uiso   1.00
C112   C     0.27451   0.82691   0.33979   0.00000  Uiso   1.00
C113   C     0.56888   0.88834   0.22308   0.00000  Uiso   1.00
C114   C     0.55929   0.92927   0.18673   0.00000  Uiso   1.00
C115   C     0.62059   0.89294   0.11128   0.00000  Uiso   1.00
H116   H     0.68844   0.72165   0.20672   0.00000  Uiso   1.00
H117   H     0.81888   0.75006   0.29106   0.00000  Uiso   1.00
H118   H     0.51403   0.67436   0.23766   0.00000  Uiso   1.00
H119   H     0.75148   0.71966   0.08090   0.00000  Uiso   1.00
H120   H     0.93331   0.81444   0.40120   0.00000  Uiso   1.00
H121   H     0.29052   0.65481   0.28858   0.00000  Uiso   1.00
H122   H     0.79121   0.75034   0.95800   0.00000  Uiso   1.00
H123   H     0.45608   0.97506   0.33469   0.00000  Uiso   1.00
H124   H     0.57377   0.01738   0.42606   0.00000  Uiso   1.00
H125   H     0.26893   0.94167   0.37265   0.00000  Uiso   1.00
H126   H     0.50637   0.98697   0.21589   0.00000  Uiso   1.00
H127   H     0.73437   0.03140   0.51077   0.00000  Uiso   1.00
H128   H     0.09158   0.87177   0.39814   0.00000  Uiso   1.00
H129   H     0.59227   0.96730   0.06757   0.00000  Uiso   1.00
O130   O     0.91543   0.94618   0.51380   0.00000  Uiso   1.00
O131   O     0.07212   0.73675   0.36602   0.00000  Uiso   1.00
O132   O     0.72902   0.86209   0.93232   0.00000  Uiso   1.00
N133   N     0.87035   0.85970   0.41444   0.00000  Uiso   1.00
N134   N     0.26939   0.71046   0.30915   0.00000  Uiso   1.00
N135   N     0.73747   0.79976   0.00009   0.00000  Uiso   1.00
N136   N     0.76331   0.97644   0.47339   0.00000  Uiso   1.00
N137   N     0.16234   0.82720   0.36811   0.00000  Uiso   1.00
N138   N     0.63042   0.91651   0.05905   0.00000  Uiso   1.00
C139   C     0.12577   0.23776   0.45463   0.00000  Uiso   1.00
C140   C     0.02561   0.30072   0.46844   0.00000  Uiso   1.00
C141   C     0.91217   0.32006   0.51228   0.00000  Uiso   1.00
C142   C     0.83333   0.37937   0.51787   0.00000  Uiso   1.00
C143   C     0.67272   0.47129   0.54496   0.00000  Uiso   1.00
C144   C     0.21862   0.27387   0.47842   0.00000  Uiso   1.00
C145   C     0.26749   0.27062   0.53065   0.00000  Uiso   1.00
C146   C     0.35114   0.30732   0.54464   0.00000  Uiso   1.00
C147   C     0.49025   0.35751   0.58719   0.00000  Uiso   1.00
C148   C     0.17535   0.18732   0.37042   0.00000  Uiso   1.00
C149   C     0.18786   0.11129   0.33183   0.00000  Uiso   1.00
C150   C     0.23511   0.07512   0.25489   0.00000  Uiso   1.00
C151   C     0.30704   0.99093   0.12975   0.00000  Uiso   1.00
C152   C     0.18746   0.30872   0.38661   0.00000  Uiso   1.00
C153   C     0.05912   0.33927   0.43149   0.00000  Uiso   1.00
C154   C     0.98043   0.39857   0.43702   0.00000  Uiso   1.00
C155   C     0.86690   0.41798   0.48086   0.00000  Uiso   1.00
C156   C     0.25213   0.31242   0.44148   0.00000  Uiso   1.00
C157   C     0.33574   0.34913   0.45539   0.00000  Uiso   1.00
C158   C     0.38471   0.34594   0.50763   0.00000  Uiso   1.00
C159   C     0.20886   0.22586   0.33347   0.00000  Uiso   1.00
C160   C     0.25611   0.18981   0.25657   0.00000  Uiso   1.00
C161   C     0.26868   0.11374   0.21787   0.00000  Uiso   1.00
H162   H     0.09969   0.20775   0.48339   0.00000  Uiso   1.00
H163   H     0.88628   0.29022   0.54087   0.00000  Uiso   1.00
H164   H     0.24155   0.24078   0.55922   0.00000  Uiso   1.00
H165   H     0.16192   0.08148   0.36044   0.00000  Uiso   1.00
H166   H     0.66446   0.39866   0.58831   0.00000  Uiso   1.00
H167   H     0.41359   0.29440   0.62700   0.00000  Uiso   1.00
H168   H     0.24570   0.95848   0.20783   0.00000  Uiso   1.00
H169   H     0.21355   0.33873   0.35784   0.00000  Uiso   1.00
H170   H     0.00638   0.42838   0.40842   0.00000  Uiso   1.00
H171   H     0.36165   0.37895   0.42679   0.00000  Uiso   1.00
H172   H     0.28203   0.21965   0.22800   0.00000  Uiso   1.00
H173   H     0.76195   0.51080   0.48082   0.00000  Uiso   1.00
H174   H     0.51108   0.40654   0.51951   0.00000  Uiso   1.00
H175   H     0.34318   0.07063   0.10033   0.00000  Uiso   1.00
O176   O     0.57488   0.51136   0.57012   0.00000  Uiso   1.00
O177   O     0.55772   0.37456   0.62088   0.00000  Uiso   1.00
O178   O     0.33744   0.93385   0.07093   0.00000  Uiso   1.00
N179   N     0.71583   0.41274   0.55606   0.00000  Uiso   1.00
N180   N     0.41621   0.31527   0.59224   0.00000  Uiso   1.00
N181   N     0.25927   0.00122   0.20035   0.00000  Uiso   1.00
N182   N     0.76829   0.47308   0.49822   0.00000  Uiso   1.00
N183   N     0.46866   0.37561   0.53440   0.00000  Uiso   1.00
N184   N     0.31172   0.06156   0.14251   0.00000  Uiso   1.00
C185   C     0.58371   0.54813   0.78176   0.00000  Uiso   1.00
C186   C     0.49509   0.53298   0.83137   0.00000  Uiso   1.00
C187   C     0.42467   0.48778   0.80795   0.00000  Uiso   1.00
C188   C     0.34931   0.48109   0.86191   0.00000  Uiso   1.00
C189   C     0.21245   0.45186   0.92757   0.00000  Uiso   1.00
C190   C     0.69896   0.52555   0.79276   0.00000  Uiso   1.00
C191   C     0.79995   0.47411   0.73688   0.00000  Uiso   1.00
C192   C     0.89621   0.46118   0.75835   0.00000  Uiso   1.00
C193   C     0.07589   0.42047   0.76406   0.00000  Uiso   1.00
C194   C     0.55120   0.63281   0.81537   0.00000  Uiso   1.00
C195   C     0.52799   0.67157   0.77850   0.00000  Uiso   1.00
C196   C     0.49987   0.74895   0.81901   0.00000  Uiso   1.00
C197   C     0.45013   0.87478   0.85983   0.00000  Uiso   1.00
C198   C     0.57511   0.61664   0.91924   0.00000  Uiso   1.00
C199   C     0.49042   0.57019   0.90604   0.00000  Uiso   1.00
C200   C     0.41514   0.56357   0.96005   0.00000  Uiso   1.00
C201   C     0.34462   0.51837   0.93672   0.00000  Uiso   1.00
C202   C     0.69429   0.56276   0.86743   0.00000  Uiso   1.00
C203   C     0.79043   0.54991   0.88898   0.00000  Uiso   1.00
C204   C     0.89153   0.49846   0.83316   0.00000  Uiso   1.00
C205   C     0.54653   0.67003   0.89004   0.00000  Uiso   1.00
C206   C     0.51846   0.74736   0.93061   0.00000  Uiso   1.00
C207   C     0.49519   0.78623   0.89381   0.00000  Uiso   1.00
H208   H     0.58736   0.51916   0.72363   0.00000  Uiso   1.00
H209   H     0.42832   0.45898   0.75016   0.00000  Uiso   1.00
H210   H     0.80354   0.44533   0.67910   0.00000  Uiso   1.00
H211   H     0.53161   0.64275   0.72072   0.00000  Uiso   1.00
H212   H     0.24995   0.40865   0.81250   0.00000  Uiso   1.00
H213   H     0.04115   0.37988   0.66267   0.00000  Uiso   1.00
H214   H     0.46774   0.79619   0.75043   0.00000  Uiso   1.00
H215   H     0.57147   0.64561   0.97737   0.00000  Uiso   1.00
H216   H     0.41155   0.59237   0.01783   0.00000  Uiso   1.00
H217   H     0.78678   0.57872   0.94677   0.00000  Uiso   1.00
H218   H     0.51485   0.77614   0.98839   0.00000  Uiso   1.00
H219   H     0.23635   0.51691   0.02975   0.00000  Uiso   1.00
H220   H     0.02755   0.48814   0.87992   0.00000  Uiso   1.00
H221   H     0.45413   0.90445   0.96768   0.00000  Uiso   1.00
O222   O     0.13826   0.42545   0.94315   0.00000  Uiso   1.00
O223   O     0.17628   0.38772   0.74658   0.00000  Uiso   1.00
O224   O     0.42397   0.93391   0.86172   0.00000  Uiso   1.00
N225   N     0.26868   0.44145   0.85808   0.00000  Uiso   1.00
N226   N     0.00840   0.41454   0.71800   0.00000  Uiso   1.00
N227   N     0.47233   0.80375   0.80004   0.00000  Uiso   1.00
N228   N     0.26136   0.49970   0.97498   0.00000  Uiso   1.00
N229   N     0.00108   0.47280   0.83490   0.00000  Uiso   1.00
N230   N     0.46501   0.86201   0.91694   0.00000  Uiso   1.00
C231   C     0.36479   0.22029   0.76396   0.00000  Uiso   1.00
C232   C     0.32613   0.16971   0.70040   0.00000  Uiso   1.00
C233   C     0.23401   0.19222   0.67978   0.00000  Uiso   1.00
C234   C     0.21266   0.13745   0.62010   0.00000  Uiso   1.00
C235   C     0.14228   0.07027   0.52710   0.00000  Uiso   1.00
C236   C     0.49176   0.21084   0.72940   0.00000  Uiso   1.00
C237   C     0.53890   0.26794   0.73319   0.00000  Uiso   1.00
C238   C     0.65698   0.24779   0.69793   0.00000  Uiso   1.00
C239   C     0.84376   0.24447   0.65001   0.00000  Uiso   1.00
C240   C     0.36275   0.18623   0.81458   0.00000  Uiso   1.00
C241   C     0.30143   0.22263   0.88998   0.00000  Uiso   1.00
C242   C     0.31091   0.18176   0.92644   0.00000  Uiso   1.00
C243   C     0.29736   0.14023   0.01077   0.00000  Uiso   1.00
C244   C     0.49068   0.08300   0.69463   0.00000  Uiso   1.00
C245   C     0.39452   0.09514   0.66274   0.00000  Uiso   1.00
C246   C     0.37329   0.04033   0.60308   0.00000  Uiso   1.00
C247   C     0.28116   0.06275   0.58238   0.00000  Uiso   1.00
C248   C     0.56014   0.13628   0.69175   0.00000  Uiso   1.00
C249   C     0.67818   0.11604   0.65648   0.00000  Uiso   1.00
C250   C     0.72549   0.17309   0.66021   0.00000  Uiso   1.00
C251   C     0.43112   0.11166   0.77692   0.00000  Uiso   1.00
C252   C     0.44071   0.07073   0.81327   0.00000  Uiso   1.00
C253   C     0.37941   0.10706   0.88872   0.00000  Uiso   1.00
H254   H     0.31156   0.27835   0.79328   0.00000  Uiso   1.00
H255   H     0.18112   0.24994   0.70894   0.00000  Uiso   1.00
H256   H     0.48597   0.32564   0.76234   0.00000  Uiso   1.00
H257   H     0.24853   0.28034   0.91911   0.00000  Uiso   1.00
H258   H     0.06669   0.18556   0.59880   0.00000  Uiso   1.00
H259   H     0.70948   0.34519   0.71142   0.00000  Uiso   1.00
H260   H     0.20879   0.24966   0.04200   0.00000  Uiso   1.00
H261   H     0.54392   0.02494   0.66531   0.00000  Uiso   1.00
H262   H     0.42623   0.98262   0.57394   0.00000  Uiso   1.00
H263   H     0.73107   0.05833   0.62735   0.00000  Uiso   1.00
H264   H     0.49363   0.01303   0.78411   0.00000  Uiso   1.00
H265   H     0.26563   0.96860   0.48923   0.00000  Uiso   1.00
H266   H     0.90842   0.12823   0.60186   0.00000  Uiso   1.00
H267   H     0.40773   0.03270   0.93243   0.00000  Uiso   1.00
O268   O     0.08457   0.05382   0.48620   0.00000  Uiso   1.00
O269   O     0.92788   0.26325   0.63398   0.00000  Uiso   1.00
O270   O     0.27098   0.13791   0.06768   0.00000  Uiso   1.00
N271   N     0.12965   0.14030   0.58556   0.00000  Uiso   1.00
N272   N     0.73061   0.28954   0.69085   0.00000  Uiso   1.00
N273   N     0.26253   0.20024   0.99991   0.00000  Uiso   1.00
N274   N     0.23669   0.02356   0.52661   0.00000  Uiso   1.00
N275   N     0.83766   0.17280   0.63189   0.00000  Uiso   1.00
N276   N     0.36958   0.08349   0.94096   0.00000  Uiso   1.00
