data_job_06837
_audit_creation_date              2018-12-19
_audit_creation_method            'Materials Studio'
_symmetry_space_group_name_H-M    'P1'
_symmetry_Int_Tables_number       1
_symmetry_cell_setting            triclinic
loop_
_symmetry_equiv_pos_as_xyz
  x,y,z
_cell_length_a                    25.2500
_cell_length_b                    17.3299
_cell_length_c                    21.7829
_cell_angle_alpha                 92.6528
_cell_angle_beta                  82.9860
_cell_angle_gamma                 98.4809
loop_
_atom_site_label
_atom_site_type_symbol
_atom_site_fract_x
_atom_site_fract_y
_atom_site_fract_z
_atom_site_U_iso_or_equiv
_atom_site_adp_type
_atom_site_occupancy
C1     C     0.06211   0.31804   0.95099   0.00000  Uiso   1.00
C2     C     0.00432   0.27603   0.95866   0.00000  Uiso   1.00
C3     C     0.97434   0.25380   0.01435   0.00000  Uiso   1.00
C4     C     0.92220   0.21596   0.01157   0.00000  Uiso   1.00
C5     C     0.83573   0.15297   0.03206   0.00000  Uiso   1.00
C6     C     0.09430   0.26688   0.90653   0.00000  Uiso   1.00
C7     C     0.13996   0.23698   0.91838   0.00000  Uiso   1.00
C8     C     0.16357   0.19146   0.87171   0.00000  Uiso   1.00
C9     C     0.21681   0.11433   0.81125   0.00000  Uiso   1.00
C10    C     0.06080   0.39224   0.91656   0.00000  Uiso   1.00
C11    C     0.07832   0.46774   0.93683   0.00000  Uiso   1.00
C12    C     0.07375   0.52776   0.89859   0.00000  Uiso   1.00
C13    C     0.07498   0.64526   0.85370   0.00000  Uiso   1.00
C14    C     0.02285   0.29037   0.84704   0.00000  Uiso   1.00
C15    C     0.98300   0.26100   0.90220   0.00000  Uiso   1.00
C16    C     0.93090   0.22318   0.89934   0.00000  Uiso   1.00
C17    C     0.90084   0.20090   0.95501   0.00000  Uiso   1.00
C18    C     0.07297   0.25185   0.85007   0.00000  Uiso   1.00
C19    C     0.09652   0.20637   0.80337   0.00000  Uiso   1.00
C20    C     0.14221   0.17640   0.81515   0.00000  Uiso   1.00
C21    C     0.03948   0.37721   0.86009   0.00000  Uiso   1.00
C22    C     0.03488   0.43712   0.82182   0.00000  Uiso   1.00
C23    C     0.05239   0.51270   0.84203   0.00000  Uiso   1.00
H24    H     0.07871   0.32974   0.99495   0.00000  Uiso   1.00
H25    H     0.99086   0.26543   0.05803   0.00000  Uiso   1.00
H26    H     0.15646   0.24863   0.96207   0.00000  Uiso   1.00
H27    H     0.09482   0.47935   0.98052   0.00000  Uiso   1.00
H28    H     0.88405   0.18748   0.10307   0.00000  Uiso   1.00
H29    H     0.23325   0.15207   0.90073   0.00000  Uiso   1.00
H30    H     0.10328   0.63859   0.93963   0.00000  Uiso   1.00
H31    H     0.00624   0.27867   0.80308   0.00000  Uiso   1.00
H32    H     0.91440   0.21156   0.85564   0.00000  Uiso   1.00
H33    H     0.08001   0.19475   0.75968   0.00000  Uiso   1.00
H34    H     0.01837   0.42547   0.77813   0.00000  Uiso   1.00
H35    H     0.82200   0.14375   0.93880   0.00000  Uiso   1.00
H36    H     0.17120   0.10835   0.73646   0.00000  Uiso   1.00
H37    H     0.04123   0.59486   0.77535   0.00000  Uiso   1.00
O38    O     0.79393   0.12237   0.05896   0.00000  Uiso   1.00
O39    O     0.25206   0.07593   0.79350   0.00000  Uiso   1.00
O40    O     0.08155   0.71423   0.84453   0.00000  Uiso   1.00
N41    N     0.88205   0.18641   0.05720   0.00000  Uiso   1.00
N42    N     0.20852   0.15330   0.86802   0.00000  Uiso   1.00
N43    N     0.08702   0.60815   0.90438   0.00000  Uiso   1.00
N44    N     0.84866   0.16288   0.96880   0.00000  Uiso   1.00
N45    N     0.17513   0.12977   0.77963   0.00000  Uiso   1.00
N46    N     0.05364   0.58462   0.81599   0.00000  Uiso   1.00
C47    C     0.95024   0.07689   0.28707   0.00000  Uiso   1.00
C48    C     0.95135   0.00075   0.31898   0.00000  Uiso   1.00
C49    C     0.97883   0.94033   0.29499   0.00000  Uiso   1.00
C50    C     0.97477   0.87555   0.33137   0.00000  Uiso   1.00
C51    C     0.98110   0.75793   0.37204   0.00000  Uiso   1.00
C52    C     0.89092   0.08250   0.28405   0.00000  Uiso   1.00
C53    C     0.86760   0.09084   0.23069   0.00000  Uiso   1.00
C54    C     0.81267   0.09488   0.23768   0.00000  Uiso   1.00
C55    C     0.72519   0.10425   0.22412   0.00000  Uiso   1.00
C56    C     0.97003   0.14219   0.33170   0.00000  Uiso   1.00
C57    C     0.01322   0.20073   0.31840   0.00000  Uiso   1.00
C58    C     0.02489   0.25505   0.36550   0.00000  Uiso   1.00
C59    C     0.06024   0.35709   0.42592   0.00000  Uiso   1.00
C60    C     0.89416   0.06927   0.39434   0.00000  Uiso   1.00
C61    C     0.92088   0.99661   0.37724   0.00000  Uiso   1.00
C62    C     0.91679   0.93190   0.41367   0.00000  Uiso   1.00
C63    C     0.94426   0.87140   0.38974   0.00000  Uiso   1.00
C64    C     0.86046   0.07836   0.34231   0.00000  Uiso   1.00
C65    C     0.80555   0.08241   0.34937   0.00000  Uiso   1.00
C66    C     0.78215   0.09074   0.29604   0.00000  Uiso   1.00
C67    C     0.93957   0.13805   0.38996   0.00000  Uiso   1.00
C68    C     0.95117   0.19229   0.43708   0.00000  Uiso   1.00
C69    C     0.99437   0.25090   0.42386   0.00000  Uiso   1.00
H70    H     0.97395   0.08011   0.24171   0.00000  Uiso   1.00
H71    H     0.00240   0.94356   0.24990   0.00000  Uiso   1.00
H72    H     0.89118   0.09405   0.18561   0.00000  Uiso   1.00
H73    H     0.03678   0.20392   0.27331   0.00000  Uiso   1.00
H74    H     0.02048   0.79032   0.28466   0.00000  Uiso   1.00
H75    H     0.78598   0.10766   0.14911   0.00000  Uiso   1.00
H76    H     0.09301   0.33935   0.33404   0.00000  Uiso   1.00
H77    H     0.87045   0.06605   0.43970   0.00000  Uiso   1.00
H78    H     0.89321   0.92871   0.45876   0.00000  Uiso   1.00
H79    H     0.78199   0.07920   0.39447   0.00000  Uiso   1.00
H80    H     0.92759   0.18907   0.48216   0.00000  Uiso   1.00
H81    H     0.93186   0.77827   0.45417   0.00000  Uiso   1.00
H82    H     0.69736   0.09562   0.31863   0.00000  Uiso   1.00
H83    H     0.00438   0.32730   0.50355   0.00000  Uiso   1.00
O84    O     0.99300   0.69420   0.37837   0.00000  Uiso   1.00
O85    O     0.68534   0.11055   0.20054   0.00000  Uiso   1.00
O86    O     0.08816   0.41452   0.44315   0.00000  Uiso   1.00
N87    N     0.99651   0.80634   0.32194   0.00000  Uiso   1.00
N88    N     0.77726   0.10302   0.19522   0.00000  Uiso   1.00
N89    N     0.06430   0.31964   0.36810   0.00000  Uiso   1.00
N90    N     0.94882   0.79986   0.41316   0.00000  Uiso   1.00
N91    N     0.72958   0.09654   0.28643   0.00000  Uiso   1.00
N92    N     0.01661   0.31316   0.45931   0.00000  Uiso   1.00
C93    C     0.20035   0.91154   0.27263   0.00000  Uiso   1.00
C94    C     0.21060   0.94612   0.20842   0.00000  Uiso   1.00
C95    C     0.18843   0.00878   0.19011   0.00000  Uiso   1.00
C96    C     0.20282   0.03158   0.12937   0.00000  Uiso   1.00
C97    C     0.21335   0.09111   0.03589   0.00000  Uiso   1.00
C98    C     0.17938   0.82525   0.26297   0.00000  Uiso   1.00
C99    C     0.13095   0.78629   0.29054   0.00000  Uiso   1.00
C100   C     0.11907   0.70735   0.27572   0.00000  Uiso   1.00
C101   C     0.08113   0.57921   0.26696   0.00000  Uiso   1.00
C102   C     0.25561   0.91464   0.29487   0.00000  Uiso   1.00
C103   C     0.27128   0.95082   0.34926   0.00000  Uiso   1.00
C104   C     0.32358   0.94711   0.36130   0.00000  Uiso   1.00
C105   C     0.40401   0.95776   0.40208   0.00000  Uiso   1.00
C106   C     0.26535   0.84060   0.19731   0.00000  Uiso   1.00
C107   C     0.24591   0.90758   0.16751   0.00000  Uiso   1.00
C108   C     0.26034   0.93030   0.10678   0.00000  Uiso   1.00
C109   C     0.23819   0.99299   0.08839   0.00000  Uiso   1.00
C110   C     0.21468   0.78672   0.22206   0.00000  Uiso   1.00
C111   C     0.20287   0.70781   0.20720   0.00000  Uiso   1.00
C112   C     0.15443   0.66874   0.23473   0.00000  Uiso   1.00
C113   C     0.29092   0.87611   0.25396   0.00000  Uiso   1.00
C114   C     0.34320   0.87234   0.26592   0.00000  Uiso   1.00
C115   C     0.35895   0.90851   0.32032   0.00000  Uiso   1.00
H116   H     0.17286   0.94153   0.30448   0.00000  Uiso   1.00
H117   H     0.16110   0.03858   0.22178   0.00000  Uiso   1.00
H118   H     0.10364   0.81613   0.32220   0.00000  Uiso   1.00
H119   H     0.24395   0.98063   0.38091   0.00000  Uiso   1.00
H120   H     0.16362   0.12916   0.11206   0.00000  Uiso   1.00
H121   H     0.04246   0.66010   0.32380   0.00000  Uiso   1.00
H122   H     0.33833   0.00698   0.44760   0.00000  Uiso   1.00
H123   H     0.29284   0.81060   0.16546   0.00000  Uiso   1.00
H124   H     0.28766   0.90047   0.07513   0.00000  Uiso   1.00
H125   H     0.23020   0.67801   0.17555   0.00000  Uiso   1.00
H126   H     0.37051   0.84252   0.23426   0.00000  Uiso   1.00
H127   H     0.26634   0.01707   0.99303   0.00000  Uiso   1.00
H128   H     0.14519   0.54800   0.20477   0.00000  Uiso   1.00
H129   H     0.44106   0.89489   0.32857   0.00000  Uiso   1.00
O130   O     0.20939   0.13458   0.99563   0.00000  Uiso   1.00
O131   O     0.05045   0.51918   0.27343   0.00000  Uiso   1.00
O132   O     0.43863   0.97429   0.43586   0.00000  Uiso   1.00
N133   N     0.18851   0.09046   0.09644   0.00000  Uiso   1.00
N134   N     0.07524   0.65191   0.29440   0.00000  Uiso   1.00
N135   N     0.35184   0.97620   0.41016   0.00000  Uiso   1.00
N136   N     0.24378   0.03014   0.03239   0.00000  Uiso   1.00
N137   N     0.13051   0.59159   0.23035   0.00000  Uiso   1.00
N138   N     0.40712   0.91589   0.34611   0.00000  Uiso   1.00
C139   C     0.79792   0.54488   0.68177   0.00000  Uiso   1.00
C140   C     0.74941   0.57686   0.66270   0.00000  Uiso   1.00
C141   C     0.75153   0.64041   0.62553   0.00000  Uiso   1.00
C142   C     0.70266   0.66045   0.61343   0.00000  Uiso   1.00
C143   C     0.63483   0.71648   0.58011   0.00000  Uiso   1.00
C144   C     0.79182   0.45915   0.66086   0.00000  Uiso   1.00
C145   C     0.82960   0.42373   0.62215   0.00000  Uiso   1.00
C146   C     0.81642   0.34468   0.60850   0.00000  Uiso   1.00
C147   C     0.81445   0.21796   0.57236   0.00000  Uiso   1.00
C148   C     0.79045   0.54557   0.75231   0.00000  Uiso   1.00
C149   C     0.82708   0.58279   0.79050   0.00000  Uiso   1.00
C150   C     0.81276   0.57649   0.85386   0.00000  Uiso   1.00
C151   C     0.80865   0.58394   0.95971   0.00000  Uiso   1.00
C152   C     0.70734   0.46746   0.72638   0.00000  Uiso   1.00
C153   C     0.70022   0.53480   0.68693   0.00000  Uiso   1.00
C154   C     0.65132   0.55476   0.67489   0.00000  Uiso   1.00
C155   C     0.65337   0.61833   0.63771   0.00000  Uiso   1.00
C156   C     0.74262   0.41710   0.68509   0.00000  Uiso   1.00
C157   C     0.72939   0.33808   0.67150   0.00000  Uiso   1.00
C158   C     0.76714   0.30256   0.63278   0.00000  Uiso   1.00
C159   C     0.74125   0.50352   0.77655   0.00000  Uiso   1.00
C160   C     0.72687   0.49715   0.83986   0.00000  Uiso   1.00
C161   C     0.76347   0.53436   0.87813   0.00000  Uiso   1.00
H162   H     0.83622   0.57761   0.66291   0.00000  Uiso   1.00
H163   H     0.78962   0.67293   0.60679   0.00000  Uiso   1.00
H164   H     0.86767   0.45629   0.60341   0.00000  Uiso   1.00
H165   H     0.86515   0.61533   0.77174   0.00000  Uiso   1.00
H166   H     0.71625   0.76005   0.55523   0.00000  Uiso   1.00
H167   H     0.88084   0.30324   0.54813   0.00000  Uiso   1.00
H168   H     0.87553   0.63861   0.90308   0.00000  Uiso   1.00
H169   H     0.66904   0.43472   0.74524   0.00000  Uiso   1.00
H170   H     0.61326   0.52221   0.69364   0.00000  Uiso   1.00
H171   H     0.69131   0.30556   0.69026   0.00000  Uiso   1.00
H172   H     0.68879   0.46460   0.85859   0.00000  Uiso   1.00
H173   H     0.57311   0.63771   0.62572   0.00000  Uiso   1.00
H174   H     0.73770   0.18090   0.61862   0.00000  Uiso   1.00
H175   H     0.73239   0.51627   0.97357   0.00000  Uiso   1.00
O176   O     0.61100   0.75899   0.55503   0.00000  Uiso   1.00
O177   O     0.82695   0.15968   0.54572   0.00000  Uiso   1.00
O178   O     0.81997   0.59967   0.01141   0.00000  Uiso   1.00
N179   N     0.69022   0.71926   0.57892   0.00000  Uiso   1.00
N180   N     0.84410   0.29217   0.57226   0.00000  Uiso   1.00
N181   N     0.83914   0.60570   0.90412   0.00000  Uiso   1.00
N182   N     0.61320   0.65343   0.61685   0.00000  Uiso   1.00
N183   N     0.76707   0.22635   0.61020   0.00000  Uiso   1.00
N184   N     0.76211   0.53987   0.94205   0.00000  Uiso   1.00
C185   C     0.34930   0.70854   0.64729   0.00000  Uiso   1.00
C186   C     0.36995   0.67216   0.58555   0.00000  Uiso   1.00
C187   C     0.39799   0.60861   0.57797   0.00000  Uiso   1.00
C188   C     0.41336   0.58415   0.51768   0.00000  Uiso   1.00
C189   C     0.44727   0.52189   0.42954   0.00000  Uiso   1.00
C190   C     0.28883   0.70669   0.64640   0.00000  Uiso   1.00
C191   C     0.24866   0.67217   0.68998   0.00000  Uiso   1.00
C192   C     0.19575   0.67679   0.68092   0.00000  Uiso   1.00
C193   C     0.10372   0.66819   0.68727   0.00000  Uiso   1.00
C194   C     0.37366   0.79444   0.64579   0.00000  Uiso   1.00
C195   C     0.40481   0.83373   0.68888   0.00000  Uiso   1.00
C196   C     0.42331   0.91224   0.67931   0.00000  Uiso   1.00
C197   C     0.46298   0.03989   0.68473   0.00000  Uiso   1.00
C198   C     0.32675   0.77811   0.55370   0.00000  Uiso   1.00
C199   C     0.35770   0.70995   0.53471   0.00000  Uiso   1.00
C200   C     0.37304   0.68559   0.47442   0.00000  Uiso   1.00
C201   C     0.40110   0.62201   0.46675   0.00000  Uiso   1.00
C202   C     0.27658   0.74447   0.59556   0.00000  Uiso   1.00
C203   C     0.22372   0.74915   0.58643   0.00000  Uiso   1.00
C204   C     0.18348   0.71465   0.62999   0.00000  Uiso   1.00
C205   C     0.36141   0.83223   0.59496   0.00000  Uiso   1.00
C206   C     0.37986   0.91070   0.58533   0.00000  Uiso   1.00
C207   C     0.41104   0.95010   0.62838   0.00000  Uiso   1.00
H208   H     0.35883   0.67912   0.68687   0.00000  Uiso   1.00
H209   H     0.40745   0.57937   0.61732   0.00000  Uiso   1.00
H210   H     0.25815   0.64294   0.72932   0.00000  Uiso   1.00
H211   H     0.41428   0.80446   0.72821   0.00000  Uiso   1.00
H212   H     0.45594   0.48544   0.51779   0.00000  Uiso   1.00
H213   H     0.14114   0.61949   0.75396   0.00000  Uiso   1.00
H214   H     0.47035   0.96010   0.75162   0.00000  Uiso   1.00
H215   H     0.31722   0.80754   0.51412   0.00000  Uiso   1.00
H216   H     0.36356   0.71484   0.43509   0.00000  Uiso   1.00
H217   H     0.21426   0.77841   0.54709   0.00000  Uiso   1.00
H218   H     0.37038   0.93993   0.54598   0.00000  Uiso   1.00
H219   H     0.42031   0.59539   0.36989   0.00000  Uiso   1.00
H220   H     0.10551   0.72944   0.60606   0.00000  Uiso   1.00
H221   H     0.43472   0.07005   0.60372   0.00000  Uiso   1.00
O222   O     0.46935   0.47710   0.39497   0.00000  Uiso   1.00
O223   O     0.05634   0.65299   0.70482   0.00000  Uiso   1.00
O224   O     0.48826   0.09986   0.70175   0.00000  Uiso   1.00
N225   N     0.44121   0.52405   0.49383   0.00000  Uiso   1.00
N226   N     0.14688   0.64937   0.71463   0.00000  Uiso   1.00
N227   N     0.45466   0.96781   0.71245   0.00000  Uiso   1.00
N228   N     0.42204   0.58321   0.41424   0.00000  Uiso   1.00
N229   N     0.12771   0.70853   0.63504   0.00000  Uiso   1.00
N230   N     0.43549   0.02698   0.63287   0.00000  Uiso   1.00
C231   C     0.72867   0.57410   0.36746   0.00000  Uiso   1.00
C232   C     0.77858   0.54550   0.38606   0.00000  Uiso   1.00
C233   C     0.77860   0.48613   0.42667   0.00000  Uiso   1.00
C234   C     0.82848   0.46867   0.43764   0.00000  Uiso   1.00
C235   C     0.89866   0.41807   0.47085   0.00000  Uiso   1.00
C236   C     0.73319   0.56648   0.29705   0.00000  Uiso   1.00
C237   C     0.69504   0.52476   0.26284   0.00000  Uiso   1.00
C238   C     0.70671   0.52497   0.19888   0.00000  Uiso   1.00
C239   C     0.70640   0.50700   0.09392   0.00000  Uiso   1.00
C240   C     0.73493   0.66140   0.38311   0.00000  Uiso   1.00
C241   C     0.69823   0.69951   0.42124   0.00000  Uiso   1.00
C242   C     0.71136   0.77964   0.42972   0.00000  Uiso   1.00
C243   C     0.71375   0.90905   0.45836   0.00000  Uiso   1.00
C244   C     0.81723   0.64866   0.31470   0.00000  Uiso   1.00
C245   C     0.82668   0.58600   0.35740   0.00000  Uiso   1.00
C246   C     0.87658   0.56862   0.36831   0.00000  Uiso   1.00
C247   C     0.87667   0.50924   0.40894   0.00000  Uiso   1.00
C248   C     0.78129   0.60698   0.26840   0.00000  Uiso   1.00
C249   C     0.79301   0.60725   0.20447   0.00000  Uiso   1.00
C250   C     0.75489   0.56554   0.17017   0.00000  Uiso   1.00
C251   C     0.78303   0.70190   0.35445   0.00000  Uiso   1.00
C252   C     0.79621   0.78199   0.36287   0.00000  Uiso   1.00
C253   C     0.75955   0.82021   0.40101   0.00000  Uiso   1.00
H254   H     0.69122   0.54257   0.38976   0.00000  Uiso   1.00
H255   H     0.74137   0.45480   0.44884   0.00000  Uiso   1.00
H256   H     0.65782   0.49343   0.28503   0.00000  Uiso   1.00
H257   H     0.66102   0.66815   0.44340   0.00000  Uiso   1.00
H258   H     0.81817   0.37533   0.50168   0.00000  Uiso   1.00
H259   H     0.64200   0.45681   0.15628   0.00000  Uiso   1.00
H260   H     0.64874   0.82523   0.49024   0.00000  Uiso   1.00
H261   H     0.85468   0.68019   0.29239   0.00000  Uiso   1.00
H262   H     0.91379   0.59997   0.34613   0.00000  Uiso   1.00
H263   H     0.83024   0.63860   0.18232   0.00000  Uiso   1.00
H264   H     0.83344   0.81331   0.34069   0.00000  Uiso   1.00
H265   H     0.95812   0.49315   0.41831   0.00000  Uiso   1.00
H266   H     0.78194   0.57464   0.07291   0.00000  Uiso   1.00
H267   H     0.78868   0.94306   0.40687   0.00000  Uiso   1.00
O268   O     0.92408   0.37897   0.49708   0.00000  Uiso   1.00
O269   O     0.69294   0.48588   0.04393   0.00000  Uiso   1.00
O270   O     0.70179   0.96924   0.48208   0.00000  Uiso   1.00
N271   N     0.84299   0.41408   0.47469   0.00000  Uiso   1.00
N272   N     0.67828   0.49025   0.15176   0.00000  Uiso   1.00
N273   N     0.68458   0.83469   0.46398   0.00000  Uiso   1.00
N274   N     0.91830   0.47748   0.42983   0.00000  Uiso   1.00
N275   N     0.75359   0.55365   0.10691   0.00000  Uiso   1.00
N276   N     0.75989   0.89809   0.41912   0.00000  Uiso   1.00
C277   C     0.93789   0.68196   0.04901   0.00000  Uiso   1.00
C278   C     0.99568   0.72397   0.04134   0.00000  Uiso   1.00
C279   C     0.02566   0.74620   0.98565   0.00000  Uiso   1.00
C280   C     0.07780   0.78404   0.98843   0.00000  Uiso   1.00
C281   C     0.16427   0.84703   0.96794   0.00000  Uiso   1.00
C282   C     0.90570   0.73312   0.09347   0.00000  Uiso   1.00
C283   C     0.86004   0.76302   0.08162   0.00000  Uiso   1.00
C284   C     0.83643   0.80854   0.12829   0.00000  Uiso   1.00
C285   C     0.78319   0.88567   0.18875   0.00000  Uiso   1.00
C286   C     0.93920   0.60776   0.08344   0.00000  Uiso   1.00
C287   C     0.92168   0.53226   0.06317   0.00000  Uiso   1.00
C288   C     0.92625   0.47224   0.10141   0.00000  Uiso   1.00
C289   C     0.92502   0.35474   0.14630   0.00000  Uiso   1.00
C290   C     0.97715   0.70963   0.15296   0.00000  Uiso   1.00
C291   C     0.01700   0.73900   0.09780   0.00000  Uiso   1.00
C292   C     0.06910   0.77682   0.10066   0.00000  Uiso   1.00
C293   C     0.09916   0.79910   0.04499   0.00000  Uiso   1.00
C294   C     0.92703   0.74815   0.14993   0.00000  Uiso   1.00
C295   C     0.90348   0.79363   0.19663   0.00000  Uiso   1.00
C296   C     0.85779   0.82360   0.18485   0.00000  Uiso   1.00
C297   C     0.96052   0.62279   0.13991   0.00000  Uiso   1.00
C298   C     0.96512   0.56288   0.17818   0.00000  Uiso   1.00
C299   C     0.94761   0.48730   0.15797   0.00000  Uiso   1.00
H300   H     0.92129   0.67026   0.00505   0.00000  Uiso   1.00
H301   H     0.00914   0.73457   0.94197   0.00000  Uiso   1.00
H302   H     0.84354   0.75137   0.03793   0.00000  Uiso   1.00
H303   H     0.90518   0.52065   0.01948   0.00000  Uiso   1.00
H304   H     0.11595   0.81252   0.89693   0.00000  Uiso   1.00
H305   H     0.76675   0.84793   0.09927   0.00000  Uiso   1.00
H306   H     0.89672   0.36141   0.06037   0.00000  Uiso   1.00
H307   H     0.99376   0.72133   0.19692   0.00000  Uiso   1.00
H308   H     0.08560   0.78844   0.14436   0.00000  Uiso   1.00
H309   H     0.91999   0.80525   0.24032   0.00000  Uiso   1.00
H310   H     0.98163   0.57453   0.22187   0.00000  Uiso   1.00
H311   H     0.17800   0.85625   0.06120   0.00000  Uiso   1.00
H312   H     0.82880   0.89165   0.26354   0.00000  Uiso   1.00
H313   H     0.95877   0.40514   0.22465   0.00000  Uiso   1.00
O314   O     0.20607   0.87763   0.94104   0.00000  Uiso   1.00
O315   O     0.74794   0.92407   0.20650   0.00000  Uiso   1.00
O316   O     0.91845   0.28577   0.15547   0.00000  Uiso   1.00
N317   N     0.11795   0.81359   0.94280   0.00000  Uiso   1.00
N318   N     0.79148   0.84670   0.13198   0.00000  Uiso   1.00
N319   N     0.91298   0.39185   0.09562   0.00000  Uiso   1.00
N320   N     0.15134   0.83712   0.03120   0.00000  Uiso   1.00
N321   N     0.82487   0.87023   0.22037   0.00000  Uiso   1.00
N322   N     0.94636   0.41538   0.18401   0.00000  Uiso   1.00
C323   C     0.04976   0.92311   0.71293   0.00000  Uiso   1.00
C324   C     0.04865   0.99925   0.68102   0.00000  Uiso   1.00
C325   C     0.02117   0.05967   0.70501   0.00000  Uiso   1.00
C326   C     0.02523   0.12445   0.66863   0.00000  Uiso   1.00
C327   C     0.01890   0.24207   0.62796   0.00000  Uiso   1.00
C328   C     0.10908   0.91750   0.71595   0.00000  Uiso   1.00
C329   C     0.13240   0.90916   0.76931   0.00000  Uiso   1.00
C330   C     0.18733   0.90512   0.76232   0.00000  Uiso   1.00
C331   C     0.27481   0.89575   0.77588   0.00000  Uiso   1.00
C332   C     0.02997   0.85781   0.66830   0.00000  Uiso   1.00
C333   C     0.98678   0.79927   0.68160   0.00000  Uiso   1.00
C334   C     0.97511   0.74495   0.63450   0.00000  Uiso   1.00
C335   C     0.93976   0.64291   0.57408   0.00000  Uiso   1.00
C336   C     0.10584   0.93073   0.60566   0.00000  Uiso   1.00
C337   C     0.07912   0.00339   0.62276   0.00000  Uiso   1.00
C338   C     0.08321   0.06810   0.58633   0.00000  Uiso   1.00
C339   C     0.05574   0.12860   0.61026   0.00000  Uiso   1.00
C340   C     0.13954   0.92164   0.65769   0.00000  Uiso   1.00
C341   C     0.19445   0.91759   0.65063   0.00000  Uiso   1.00
C342   C     0.21785   0.90926   0.70396   0.00000  Uiso   1.00
C343   C     0.06043   0.86195   0.61004   0.00000  Uiso   1.00
C344   C     0.04883   0.80771   0.56292   0.00000  Uiso   1.00
C345   C     0.00563   0.74910   0.57614   0.00000  Uiso   1.00
H346   H     0.02605   0.91989   0.75829   0.00000  Uiso   1.00
H347   H     0.99760   0.05644   0.75010   0.00000  Uiso   1.00
H348   H     0.10882   0.90595   0.81439   0.00000  Uiso   1.00
H349   H     0.96322   0.79608   0.72669   0.00000  Uiso   1.00
H350   H     0.97952   0.20968   0.71534   0.00000  Uiso   1.00
H351   H     0.21402   0.89234   0.85089   0.00000  Uiso   1.00
H352   H     0.90699   0.66065   0.66596   0.00000  Uiso   1.00
H353   H     0.12955   0.93395   0.56030   0.00000  Uiso   1.00
H354   H     0.10679   0.07129   0.54124   0.00000  Uiso   1.00
H355   H     0.21801   0.92080   0.60553   0.00000  Uiso   1.00
H356   H     0.07241   0.81093   0.51784   0.00000  Uiso   1.00
H357   H     0.06814   0.22173   0.54583   0.00000  Uiso   1.00
H358   H     0.30264   0.90438   0.68137   0.00000  Uiso   1.00
H359   H     0.99562   0.67270   0.49645   0.00000  Uiso   1.00
O360   O     0.00700   0.30580   0.62163   0.00000  Uiso   1.00
O361   O     0.31466   0.88945   0.79946   0.00000  Uiso   1.00
O362   O     0.91184   0.58548   0.55685   0.00000  Uiso   1.00
N363   N     0.00349   0.19366   0.67806   0.00000  Uiso   1.00
N364   N     0.22274   0.89698   0.80478   0.00000  Uiso   1.00
N365   N     0.93570   0.68036   0.63190   0.00000  Uiso   1.00
N366   N     0.05118   0.20014   0.58684   0.00000  Uiso   1.00
N367   N     0.27042   0.90346   0.71357   0.00000  Uiso   1.00
N368   N     0.98339   0.68684   0.54069   0.00000  Uiso   1.00
C369   C     0.79965   0.08846   0.72737   0.00000  Uiso   1.00
C370   C     0.78940   0.05388   0.79158   0.00000  Uiso   1.00
C371   C     0.81157   0.99122   0.80989   0.00000  Uiso   1.00
C372   C     0.79718   0.96842   0.87063   0.00000  Uiso   1.00
C373   C     0.78665   0.90889   0.96411   0.00000  Uiso   1.00
C374   C     0.82062   0.17475   0.73703   0.00000  Uiso   1.00
C375   C     0.86905   0.21371   0.70946   0.00000  Uiso   1.00
C376   C     0.88093   0.29265   0.72428   0.00000  Uiso   1.00
C377   C     0.91887   0.42079   0.73304   0.00000  Uiso   1.00
C378   C     0.74439   0.08536   0.70513   0.00000  Uiso   1.00
C379   C     0.72872   0.04918   0.65074   0.00000  Uiso   1.00
C380   C     0.67642   0.05289   0.63870   0.00000  Uiso   1.00
C381   C     0.59599   0.04224   0.59792   0.00000  Uiso   1.00
C382   C     0.73465   0.15940   0.80269   0.00000  Uiso   1.00
C383   C     0.75409   0.09242   0.83249   0.00000  Uiso   1.00
C384   C     0.73966   0.06970   0.89322   0.00000  Uiso   1.00
C385   C     0.76181   0.00701   0.91161   0.00000  Uiso   1.00
C386   C     0.78532   0.21328   0.77794   0.00000  Uiso   1.00
C387   C     0.79713   0.29219   0.79280   0.00000  Uiso   1.00
C388   C     0.84557   0.33126   0.76527   0.00000  Uiso   1.00
C389   C     0.70908   0.12389   0.74604   0.00000  Uiso   1.00
C390   C     0.65680   0.12766   0.73408   0.00000  Uiso   1.00
C391   C     0.64105   0.09149   0.67968   0.00000  Uiso   1.00
H392   H     0.82714   0.05847   0.69552   0.00000  Uiso   1.00
H393   H     0.83890   0.96142   0.77822   0.00000  Uiso   1.00
H394   H     0.89636   0.18387   0.67780   0.00000  Uiso   1.00
H395   H     0.75605   0.01937   0.61909   0.00000  Uiso   1.00
H396   H     0.83638   0.87084   0.88794   0.00000  Uiso   1.00
H397   H     0.95754   0.33990   0.67620   0.00000  Uiso   1.00
H398   H     0.66167   0.99302   0.55240   0.00000  Uiso   1.00
H399   H     0.70716   0.18940   0.83454   0.00000  Uiso   1.00
H400   H     0.71234   0.09953   0.92487   0.00000  Uiso   1.00
H401   H     0.76980   0.32199   0.82445   0.00000  Uiso   1.00
H402   H     0.62949   0.15748   0.76574   0.00000  Uiso   1.00
H403   H     0.73366   0.98293   0.00697   0.00000  Uiso   1.00
H404   H     0.85481   0.45200   0.79523   0.00000  Uiso   1.00
H405   H     0.55894   0.10511   0.67143   0.00000  Uiso   1.00
O406   O     0.79061   0.86542   0.00437   0.00000  Uiso   1.00
O407   O     0.94955   0.48082   0.72657   0.00000  Uiso   1.00
O408   O     0.56137   0.02571   0.56414   0.00000  Uiso   1.00
N409   N     0.81149   0.90954   0.90356   0.00000  Uiso   1.00
N410   N     0.92476   0.34809   0.70560   0.00000  Uiso   1.00
N411   N     0.64816   0.02380   0.58984   0.00000  Uiso   1.00
N412   N     0.75622   0.96986   0.96761   0.00000  Uiso   1.00
N413   N     0.86949   0.40841   0.76965   0.00000  Uiso   1.00
N414   N     0.59288   0.08411   0.65389   0.00000  Uiso   1.00
C415   C     0.20208   0.45512   0.31823   0.00000  Uiso   1.00
C416   C     0.25059   0.42314   0.33730   0.00000  Uiso   1.00
C417   C     0.24847   0.35959   0.37447   0.00000  Uiso   1.00
C418   C     0.29734   0.33955   0.38657   0.00000  Uiso   1.00
C419   C     0.36517   0.28352   0.41989   0.00000  Uiso   1.00
C420   C     0.20818   0.54085   0.33914   0.00000  Uiso   1.00
C421   C     0.17040   0.57627   0.37785   0.00000  Uiso   1.00
C422   C     0.18358   0.65532   0.39150   0.00000  Uiso   1.00
C423   C     0.18555   0.78204   0.42764   0.00000  Uiso   1.00
C424   C     0.20955   0.45443   0.24769   0.00000  Uiso   1.00
C425   C     0.17292   0.41721   0.20950   0.00000  Uiso   1.00
C426   C     0.18724   0.42351   0.14614   0.00000  Uiso   1.00
C427   C     0.19135   0.41606   0.04029   0.00000  Uiso   1.00
C428   C     0.29266   0.53254   0.27362   0.00000  Uiso   1.00
C429   C     0.29978   0.46520   0.31307   0.00000  Uiso   1.00
C430   C     0.34868   0.44524   0.32511   0.00000  Uiso   1.00
C431   C     0.34663   0.38167   0.36229   0.00000  Uiso   1.00
C432   C     0.25738   0.58290   0.31491   0.00000  Uiso   1.00
C433   C     0.27061   0.66192   0.32850   0.00000  Uiso   1.00
C434   C     0.23286   0.69744   0.36722   0.00000  Uiso   1.00
C435   C     0.25875   0.49648   0.22345   0.00000  Uiso   1.00
C436   C     0.27313   0.50285   0.16014   0.00000  Uiso   1.00
C437   C     0.23653   0.46564   0.12187   0.00000  Uiso   1.00
H438   H     0.16378   0.42239   0.33709   0.00000  Uiso   1.00
H439   H     0.21038   0.32707   0.39321   0.00000  Uiso   1.00
H440   H     0.13233   0.54371   0.39659   0.00000  Uiso   1.00
H441   H     0.13485   0.38467   0.22826   0.00000  Uiso   1.00
H442   H     0.28375   0.23995   0.44477   0.00000  Uiso   1.00
H443   H     0.11916   0.69676   0.45187   0.00000  Uiso   1.00
H444   H     0.12447   0.36139   0.09692   0.00000  Uiso   1.00
H445   H     0.33096   0.56528   0.25476   0.00000  Uiso   1.00
H446   H     0.38674   0.47779   0.30636   0.00000  Uiso   1.00
H447   H     0.30869   0.69444   0.30974   0.00000  Uiso   1.00
H448   H     0.31121   0.53540   0.14141   0.00000  Uiso   1.00
H449   H     0.42689   0.36229   0.37428   0.00000  Uiso   1.00
H450   H     0.26230   0.81910   0.38138   0.00000  Uiso   1.00
H451   H     0.26761   0.48373   0.02643   0.00000  Uiso   1.00
O452   O     0.38900   0.24101   0.44497   0.00000  Uiso   1.00
O453   O     0.17305   0.84032   0.45428   0.00000  Uiso   1.00
O454   O     0.18003   0.40033   0.98859   0.00000  Uiso   1.00
N455   N     0.30978   0.28074   0.42108   0.00000  Uiso   1.00
N456   N     0.15590   0.70783   0.42774   0.00000  Uiso   1.00
N457   N     0.16086   0.39430   0.09588   0.00000  Uiso   1.00
N458   N     0.38680   0.34657   0.38315   0.00000  Uiso   1.00
N459   N     0.23293   0.77365   0.38980   0.00000  Uiso   1.00
N460   N     0.23789   0.46013   0.05795   0.00000  Uiso   1.00
C461   C     0.65070   0.29146   0.35271   0.00000  Uiso   1.00
C462   C     0.63005   0.32784   0.41445   0.00000  Uiso   1.00
C463   C     0.60201   0.39139   0.42203   0.00000  Uiso   1.00
C464   C     0.58664   0.41585   0.48232   0.00000  Uiso   1.00
C465   C     0.55273   0.47811   0.57046   0.00000  Uiso   1.00
C466   C     0.71117   0.29331   0.35360   0.00000  Uiso   1.00
C467   C     0.75134   0.32783   0.31002   0.00000  Uiso   1.00
C468   C     0.80425   0.32321   0.31908   0.00000  Uiso   1.00
C469   C     0.89628   0.33181   0.31273   0.00000  Uiso   1.00
C470   C     0.62634   0.20556   0.35421   0.00000  Uiso   1.00
C471   C     0.59519   0.16627   0.31112   0.00000  Uiso   1.00
C472   C     0.57669   0.08776   0.32069   0.00000  Uiso   1.00
C473   C     0.53702   0.96011   0.31527   0.00000  Uiso   1.00
C474   C     0.67325   0.22189   0.44630   0.00000  Uiso   1.00
C475   C     0.64230   0.29005   0.46529   0.00000  Uiso   1.00
C476   C     0.62696   0.31441   0.52558   0.00000  Uiso   1.00
C477   C     0.59890   0.37799   0.53325   0.00000  Uiso   1.00
C478   C     0.72342   0.25553   0.40444   0.00000  Uiso   1.00
C479   C     0.77628   0.25085   0.41357   0.00000  Uiso   1.00
C480   C     0.81652   0.28535   0.37001   0.00000  Uiso   1.00
C481   C     0.63859   0.16777   0.40504   0.00000  Uiso   1.00
C482   C     0.62014   0.08930   0.41467   0.00000  Uiso   1.00
C483   C     0.58896   0.04990   0.37162   0.00000  Uiso   1.00
H484   H     0.64117   0.32088   0.31313   0.00000  Uiso   1.00
H485   H     0.59255   0.42063   0.38268   0.00000  Uiso   1.00
H486   H     0.74185   0.35706   0.27068   0.00000  Uiso   1.00
H487   H     0.58572   0.19554   0.27179   0.00000  Uiso   1.00
H488   H     0.54406   0.51456   0.48221   0.00000  Uiso   1.00
H489   H     0.85886   0.38051   0.24604   0.00000  Uiso   1.00
H490   H     0.52965   0.03990   0.24838   0.00000  Uiso   1.00
H491   H     0.68278   0.19246   0.48588   0.00000  Uiso   1.00
H492   H     0.63644   0.28516   0.56491   0.00000  Uiso   1.00
H493   H     0.78574   0.22159   0.45291   0.00000  Uiso   1.00
H494   H     0.62962   0.06007   0.45402   0.00000  Uiso   1.00
H495   H     0.57969   0.40461   0.63011   0.00000  Uiso   1.00
H496   H     0.89449   0.27056   0.39394   0.00000  Uiso   1.00
H497   H     0.56528   0.92995   0.39628   0.00000  Uiso   1.00
O498   O     0.53065   0.52290   0.60503   0.00000  Uiso   1.00
O499   O     0.94366   0.34701   0.29518   0.00000  Uiso   1.00
O500   O     0.51174   0.90014   0.29825   0.00000  Uiso   1.00
N501   N     0.55879   0.47595   0.50617   0.00000  Uiso   1.00
N502   N     0.85312   0.35063   0.28537   0.00000  Uiso   1.00
N503   N     0.54534   0.03219   0.28755   0.00000  Uiso   1.00
N504   N     0.57796   0.41679   0.58576   0.00000  Uiso   1.00
N505   N     0.87229   0.29147   0.36496   0.00000  Uiso   1.00
N506   N     0.56451   0.97302   0.36713   0.00000  Uiso   1.00
C507   C     0.27133   0.42590   0.63254   0.00000  Uiso   1.00
C508   C     0.22142   0.45450   0.61394   0.00000  Uiso   1.00
C509   C     0.22140   0.51387   0.57333   0.00000  Uiso   1.00
C510   C     0.17152   0.53133   0.56236   0.00000  Uiso   1.00
C511   C     0.10134   0.58193   0.52915   0.00000  Uiso   1.00
C512   C     0.26681   0.43352   0.70295   0.00000  Uiso   1.00
C513   C     0.30496   0.47524   0.73716   0.00000  Uiso   1.00
C514   C     0.29329   0.47503   0.80112   0.00000  Uiso   1.00
C515   C     0.29360   0.49300   0.90608   0.00000  Uiso   1.00
C516   C     0.26507   0.33860   0.61689   0.00000  Uiso   1.00
C517   C     0.30177   0.30049   0.57876   0.00000  Uiso   1.00
C518   C     0.28864   0.22036   0.57028   0.00000  Uiso   1.00
C519   C     0.28625   0.09095   0.54164   0.00000  Uiso   1.00
C520   C     0.18277   0.35134   0.68530   0.00000  Uiso   1.00
C521   C     0.17332   0.41400   0.64260   0.00000  Uiso   1.00
C522   C     0.12342   0.43138   0.63169   0.00000  Uiso   1.00
C523   C     0.12333   0.49076   0.59106   0.00000  Uiso   1.00
C524   C     0.21871   0.39302   0.73160   0.00000  Uiso   1.00
C525   C     0.20699   0.39275   0.79553   0.00000  Uiso   1.00
C526   C     0.24511   0.43446   0.82983   0.00000  Uiso   1.00
C527   C     0.21697   0.29810   0.64555   0.00000  Uiso   1.00
C528   C     0.20379   0.21801   0.63713   0.00000  Uiso   1.00
C529   C     0.24045   0.17979   0.59899   0.00000  Uiso   1.00
H530   H     0.30878   0.45743   0.61024   0.00000  Uiso   1.00
H531   H     0.25863   0.54520   0.55116   0.00000  Uiso   1.00
H532   H     0.34218   0.50657   0.71497   0.00000  Uiso   1.00
H533   H     0.33898   0.33185   0.55660   0.00000  Uiso   1.00
H534   H     0.18183   0.62467   0.49832   0.00000  Uiso   1.00
H535   H     0.35800   0.54319   0.84372   0.00000  Uiso   1.00
H536   H     0.35126   0.17477   0.50976   0.00000  Uiso   1.00
H537   H     0.14532   0.31981   0.70761   0.00000  Uiso   1.00
H538   H     0.08621   0.40003   0.65387   0.00000  Uiso   1.00
H539   H     0.16976   0.36140   0.81768   0.00000  Uiso   1.00
H540   H     0.16656   0.18669   0.65931   0.00000  Uiso   1.00
H541   H     0.04188   0.50685   0.58169   0.00000  Uiso   1.00
H542   H     0.21806   0.42536   0.92709   0.00000  Uiso   1.00
H543   H     0.21132   0.05694   0.59313   0.00000  Uiso   1.00
O544   O     0.07592   0.62103   0.50292   0.00000  Uiso   1.00
O545   O     0.30706   0.51412   0.95607   0.00000  Uiso   1.00
O546   O     0.29821   0.03076   0.51792   0.00000  Uiso   1.00
N547   N     0.15701   0.58592   0.52531   0.00000  Uiso   1.00
N548   N     0.32172   0.50975   0.84824   0.00000  Uiso   1.00
N549   N     0.31542   0.16531   0.53602   0.00000  Uiso   1.00
N550   N     0.08170   0.52252   0.57017   0.00000  Uiso   1.00
N551   N     0.24641   0.44635   0.89309   0.00000  Uiso   1.00
N552   N     0.24011   0.10191   0.58088   0.00000  Uiso   1.00
