data_job_00974
_audit_creation_date              2018-12-19
_audit_creation_method            'Materials Studio'
_symmetry_space_group_name_H-M    'P1'
_symmetry_Int_Tables_number       1
_symmetry_cell_setting            triclinic
loop_
_symmetry_equiv_pos_as_xyz
  x,y,z
_cell_length_a                    27.7271
_cell_length_b                    10.1091
_cell_length_c                    23.7740
_cell_angle_alpha                 90.0000
_cell_angle_beta                  131.0830
_cell_angle_gamma                 90.0000
loop_
_atom_site_label
_atom_site_type_symbol
_atom_site_fract_x
_atom_site_fract_y
_atom_site_fract_z
_atom_site_U_iso_or_equiv
_atom_site_adp_type
_atom_site_occupancy
C1     C     0.06327   0.19496   0.47355   0.00000  Uiso   1.00
C2     C     0.12087   0.28723   0.51433   0.00000  Uiso   1.00
C3     C     0.16269   0.31552   0.59010   0.00000  Uiso   1.00
C4     C     0.21241   0.40246   0.61666   0.00000  Uiso   1.00
C5     C     0.30067   0.53718   0.68721   0.00000  Uiso   1.00
C6     C     0.00558   0.27714   0.41141   0.00000  Uiso   1.00
C7     C     0.95047   0.29693   0.40065   0.00000  Uiso   1.00
C8     C     0.90314   0.37537   0.34056   0.00000  Uiso   1.00
C9     C     0.81241   0.49435   0.25130   0.00000  Uiso   1.00
C10    C     0.07290   0.09184   0.43489   0.00000  Uiso   1.00
C11    C     0.07438   0.95583   0.44384   0.00000  Uiso   1.00
C12    C     0.08371   0.87826   0.40350   0.00000  Uiso   1.00
C13    C     0.09749   0.70954   0.35069   0.00000  Uiso   1.00
C14    C     0.07719   0.29905   0.38597   0.00000  Uiso   1.00
C15    C     0.12843   0.34377   0.46676   0.00000  Uiso   1.00
C16    C     0.17810   0.43068   0.49321   0.00000  Uiso   1.00
C17    C     0.21999   0.45910   0.56901   0.00000  Uiso   1.00
C18    C     0.01314   0.33368   0.36385   0.00000  Uiso   1.00
C19    C     0.96588   0.41210   0.30375   0.00000  Uiso   1.00
C20    C     0.91072   0.43201   0.29290   0.00000  Uiso   1.00
C21    C     0.08046   0.14838   0.38732   0.00000  Uiso   1.00
C22    C     0.08979   0.07100   0.34695   0.00000  Uiso   1.00
C23    C     0.09128   0.93490   0.35584   0.00000  Uiso   1.00
H24    H     0.05738   0.15094   0.51058   0.00000  Uiso   1.00
H25    H     0.15682   0.27175   0.62689   0.00000  Uiso   1.00
H26    H     0.94463   0.25315   0.43746   0.00000  Uiso   1.00
H27    H     0.06852   0.91211   0.48065   0.00000  Uiso   1.00
H28    H     0.27039   0.43067   0.73487   0.00000  Uiso   1.00
H29    H     0.82298   0.39142   0.33543   0.00000  Uiso   1.00
H30    H     0.08422   0.67226   0.42650   0.00000  Uiso   1.00
H31    H     0.08308   0.34307   0.34894   0.00000  Uiso   1.00
H32    H     0.18394   0.47442   0.45639   0.00000  Uiso   1.00
H33    H     0.97175   0.45583   0.26695   0.00000  Uiso   1.00
H34    H     0.09564   0.11479   0.31015   0.00000  Uiso   1.00
H35    H     0.29240   0.59516   0.59648   0.00000  Uiso   1.00
H36    H     0.84498   0.55591   0.19703   0.00000  Uiso   1.00
H37    H     0.10623   0.83676   0.28811   0.00000  Uiso   1.00
O38    O     0.34726   0.59589   0.73926   0.00000  Uiso   1.00
O39    O     0.76027   0.54437   0.21521   0.00000  Uiso   1.00
O40    O     0.10302   0.60086   0.33470   0.00000  Uiso   1.00
N41    N     0.26174   0.45133   0.68755   0.00000  Uiso   1.00
N42    N     0.84343   0.41465   0.31411   0.00000  Uiso   1.00
N43    N     0.08766   0.74230   0.39924   0.00000  Uiso   1.00
N44    N     0.27358   0.53985   0.61309   0.00000  Uiso   1.00
N45    N     0.85528   0.50317   0.23964   0.00000  Uiso   1.00
N46    N     0.09950   0.83082   0.32477   0.00000  Uiso   1.00
C47    C     0.56327   0.69496   0.47355   0.00000  Uiso   1.00
C48    C     0.62087   0.78723   0.51433   0.00000  Uiso   1.00
C49    C     0.66269   0.81552   0.59010   0.00000  Uiso   1.00
C50    C     0.71241   0.90246   0.61666   0.00000  Uiso   1.00
C51    C     0.80067   0.03718   0.68721   0.00000  Uiso   1.00
C52    C     0.50558   0.77714   0.41141   0.00000  Uiso   1.00
C53    C     0.45047   0.79693   0.40065   0.00000  Uiso   1.00
C54    C     0.40314   0.87537   0.34056   0.00000  Uiso   1.00
C55    C     0.31241   0.99435   0.25130   0.00000  Uiso   1.00
C56    C     0.57290   0.59184   0.43489   0.00000  Uiso   1.00
C57    C     0.57438   0.45583   0.44384   0.00000  Uiso   1.00
C58    C     0.58371   0.37826   0.40350   0.00000  Uiso   1.00
C59    C     0.59749   0.20954   0.35069   0.00000  Uiso   1.00
C60    C     0.57719   0.79905   0.38597   0.00000  Uiso   1.00
C61    C     0.62843   0.84377   0.46676   0.00000  Uiso   1.00
C62    C     0.67810   0.93068   0.49321   0.00000  Uiso   1.00
C63    C     0.71999   0.95910   0.56901   0.00000  Uiso   1.00
C64    C     0.51314   0.83368   0.36385   0.00000  Uiso   1.00
C65    C     0.46588   0.91210   0.30375   0.00000  Uiso   1.00
C66    C     0.41072   0.93201   0.29290   0.00000  Uiso   1.00
C67    C     0.58046   0.64838   0.38732   0.00000  Uiso   1.00
C68    C     0.58979   0.57100   0.34695   0.00000  Uiso   1.00
C69    C     0.59128   0.43490   0.35584   0.00000  Uiso   1.00
H70    H     0.55738   0.65094   0.51058   0.00000  Uiso   1.00
H71    H     0.65682   0.77175   0.62689   0.00000  Uiso   1.00
H72    H     0.44463   0.75315   0.43746   0.00000  Uiso   1.00
H73    H     0.56852   0.41211   0.48065   0.00000  Uiso   1.00
H74    H     0.77039   0.93067   0.73487   0.00000  Uiso   1.00
H75    H     0.32298   0.89142   0.33543   0.00000  Uiso   1.00
H76    H     0.58422   0.17226   0.42650   0.00000  Uiso   1.00
H77    H     0.58308   0.84307   0.34894   0.00000  Uiso   1.00
H78    H     0.68394   0.97442   0.45639   0.00000  Uiso   1.00
H79    H     0.47175   0.95583   0.26695   0.00000  Uiso   1.00
H80    H     0.59564   0.61479   0.31015   0.00000  Uiso   1.00
H81    H     0.79240   0.09516   0.59648   0.00000  Uiso   1.00
H82    H     0.34498   0.05591   0.19703   0.00000  Uiso   1.00
H83    H     0.60623   0.33676   0.28811   0.00000  Uiso   1.00
O84    O     0.84726   0.09589   0.73926   0.00000  Uiso   1.00
O85    O     0.26027   0.04437   0.21521   0.00000  Uiso   1.00
O86    O     0.60302   0.10086   0.33470   0.00000  Uiso   1.00
N87    N     0.76174   0.95133   0.68755   0.00000  Uiso   1.00
N88    N     0.34343   0.91465   0.31411   0.00000  Uiso   1.00
N89    N     0.58766   0.24230   0.39924   0.00000  Uiso   1.00
N90    N     0.77358   0.03985   0.61309   0.00000  Uiso   1.00
N91    N     0.35528   0.00317   0.23964   0.00000  Uiso   1.00
N92    N     0.59950   0.33082   0.32477   0.00000  Uiso   1.00
C93    C     0.93673   0.19496   0.02645   0.00000  Uiso   1.00
C94    C     0.87913   0.28723   0.98567   0.00000  Uiso   1.00
C95    C     0.83731   0.31552   0.90990   0.00000  Uiso   1.00
C96    C     0.78759   0.40246   0.88334   0.00000  Uiso   1.00
C97    C     0.69933   0.53718   0.81279   0.00000  Uiso   1.00
C98    C     0.99442   0.27714   0.08859   0.00000  Uiso   1.00
C99    C     0.04953   0.29693   0.09935   0.00000  Uiso   1.00
C100   C     0.09686   0.37537   0.15944   0.00000  Uiso   1.00
C101   C     0.18759   0.49435   0.24870   0.00000  Uiso   1.00
C102   C     0.92710   0.09184   0.06511   0.00000  Uiso   1.00
C103   C     0.92562   0.95583   0.05616   0.00000  Uiso   1.00
C104   C     0.91629   0.87826   0.09650   0.00000  Uiso   1.00
C105   C     0.90251   0.70954   0.14931   0.00000  Uiso   1.00
C106   C     0.92281   0.29905   0.11403   0.00000  Uiso   1.00
C107   C     0.87157   0.34377   0.03324   0.00000  Uiso   1.00
C108   C     0.82190   0.43068   0.00679   0.00000  Uiso   1.00
C109   C     0.78001   0.45910   0.93099   0.00000  Uiso   1.00
C110   C     0.98686   0.33368   0.13615   0.00000  Uiso   1.00
C111   C     0.03412   0.41210   0.19625   0.00000  Uiso   1.00
C112   C     0.08928   0.43201   0.20710   0.00000  Uiso   1.00
C113   C     0.91954   0.14838   0.11268   0.00000  Uiso   1.00
C114   C     0.91021   0.07100   0.15305   0.00000  Uiso   1.00
C115   C     0.90872   0.93490   0.14416   0.00000  Uiso   1.00
H116   H     0.94262   0.15094   0.98942   0.00000  Uiso   1.00
H117   H     0.84318   0.27175   0.87311   0.00000  Uiso   1.00
H118   H     0.05537   0.25315   0.06254   0.00000  Uiso   1.00
H119   H     0.93148   0.91211   0.01935   0.00000  Uiso   1.00
H120   H     0.72961   0.43067   0.76513   0.00000  Uiso   1.00
H121   H     0.17702   0.39142   0.16457   0.00000  Uiso   1.00
H122   H     0.91578   0.67226   0.07350   0.00000  Uiso   1.00
H123   H     0.91692   0.34307   0.15106   0.00000  Uiso   1.00
H124   H     0.81606   0.47442   0.04361   0.00000  Uiso   1.00
H125   H     0.02825   0.45583   0.23305   0.00000  Uiso   1.00
H126   H     0.90436   0.11479   0.18985   0.00000  Uiso   1.00
H127   H     0.70760   0.59516   0.90352   0.00000  Uiso   1.00
H128   H     0.15502   0.55591   0.30297   0.00000  Uiso   1.00
H129   H     0.89377   0.83676   0.21189   0.00000  Uiso   1.00
O130   O     0.65274   0.59589   0.76074   0.00000  Uiso   1.00
O131   O     0.23973   0.54437   0.28479   0.00000  Uiso   1.00
O132   O     0.89698   0.60086   0.16530   0.00000  Uiso   1.00
N133   N     0.73826   0.45133   0.81245   0.00000  Uiso   1.00
N134   N     0.15657   0.41465   0.18589   0.00000  Uiso   1.00
N135   N     0.91234   0.74230   0.10076   0.00000  Uiso   1.00
N136   N     0.72642   0.53985   0.88691   0.00000  Uiso   1.00
N137   N     0.14472   0.50317   0.26036   0.00000  Uiso   1.00
N138   N     0.90050   0.83082   0.17523   0.00000  Uiso   1.00
C139   C     0.43673   0.69496   0.02645   0.00000  Uiso   1.00
C140   C     0.37913   0.78723   0.98567   0.00000  Uiso   1.00
C141   C     0.33731   0.81552   0.90990   0.00000  Uiso   1.00
C142   C     0.28759   0.90246   0.88334   0.00000  Uiso   1.00
C143   C     0.19933   0.03718   0.81279   0.00000  Uiso   1.00
C144   C     0.49442   0.77714   0.08859   0.00000  Uiso   1.00
C145   C     0.54953   0.79693   0.09935   0.00000  Uiso   1.00
C146   C     0.59686   0.87537   0.15944   0.00000  Uiso   1.00
C147   C     0.68759   0.99435   0.24870   0.00000  Uiso   1.00
C148   C     0.42710   0.59184   0.06511   0.00000  Uiso   1.00
C149   C     0.42562   0.45583   0.05616   0.00000  Uiso   1.00
C150   C     0.41629   0.37826   0.09650   0.00000  Uiso   1.00
C151   C     0.40251   0.20954   0.14931   0.00000  Uiso   1.00
C152   C     0.42281   0.79905   0.11403   0.00000  Uiso   1.00
C153   C     0.37157   0.84377   0.03324   0.00000  Uiso   1.00
C154   C     0.32190   0.93068   0.00679   0.00000  Uiso   1.00
C155   C     0.28001   0.95910   0.93099   0.00000  Uiso   1.00
C156   C     0.48686   0.83368   0.13615   0.00000  Uiso   1.00
C157   C     0.53412   0.91210   0.19625   0.00000  Uiso   1.00
C158   C     0.58928   0.93201   0.20710   0.00000  Uiso   1.00
C159   C     0.41954   0.64838   0.11268   0.00000  Uiso   1.00
C160   C     0.41021   0.57100   0.15305   0.00000  Uiso   1.00
C161   C     0.40872   0.43490   0.14416   0.00000  Uiso   1.00
H162   H     0.44262   0.65094   0.98942   0.00000  Uiso   1.00
H163   H     0.34318   0.77175   0.87311   0.00000  Uiso   1.00
H164   H     0.55537   0.75315   0.06254   0.00000  Uiso   1.00
H165   H     0.43148   0.41211   0.01935   0.00000  Uiso   1.00
H166   H     0.22961   0.93067   0.76513   0.00000  Uiso   1.00
H167   H     0.67702   0.89142   0.16457   0.00000  Uiso   1.00
H168   H     0.41578   0.17226   0.07350   0.00000  Uiso   1.00
H169   H     0.41692   0.84307   0.15106   0.00000  Uiso   1.00
H170   H     0.31606   0.97442   0.04361   0.00000  Uiso   1.00
H171   H     0.52825   0.95583   0.23305   0.00000  Uiso   1.00
H172   H     0.40436   0.61479   0.18985   0.00000  Uiso   1.00
H173   H     0.20760   0.09516   0.90352   0.00000  Uiso   1.00
H174   H     0.65502   0.05591   0.30297   0.00000  Uiso   1.00
H175   H     0.39377   0.33676   0.21189   0.00000  Uiso   1.00
O176   O     0.15274   0.09589   0.76074   0.00000  Uiso   1.00
O177   O     0.73973   0.04437   0.28479   0.00000  Uiso   1.00
O178   O     0.39698   0.10086   0.16530   0.00000  Uiso   1.00
N179   N     0.23826   0.95133   0.81245   0.00000  Uiso   1.00
N180   N     0.65657   0.91465   0.18589   0.00000  Uiso   1.00
N181   N     0.41234   0.24230   0.10076   0.00000  Uiso   1.00
N182   N     0.22642   0.03985   0.88691   0.00000  Uiso   1.00
N183   N     0.64472   0.00317   0.26036   0.00000  Uiso   1.00
N184   N     0.40050   0.33082   0.17523   0.00000  Uiso   1.00
C185   C     0.93673   0.80504   0.52645   0.00000  Uiso   1.00
C186   C     0.87913   0.71277   0.48567   0.00000  Uiso   1.00
C187   C     0.83731   0.68448   0.40990   0.00000  Uiso   1.00
C188   C     0.78759   0.59754   0.38334   0.00000  Uiso   1.00
C189   C     0.69933   0.46282   0.31279   0.00000  Uiso   1.00
C190   C     0.99442   0.72286   0.58859   0.00000  Uiso   1.00
C191   C     0.04953   0.70307   0.59935   0.00000  Uiso   1.00
C192   C     0.09686   0.62463   0.65944   0.00000  Uiso   1.00
C193   C     0.18759   0.50565   0.74870   0.00000  Uiso   1.00
C194   C     0.92710   0.90816   0.56511   0.00000  Uiso   1.00
C195   C     0.92562   0.04417   0.55616   0.00000  Uiso   1.00
C196   C     0.91629   0.12174   0.59650   0.00000  Uiso   1.00
C197   C     0.90251   0.29046   0.64931   0.00000  Uiso   1.00
C198   C     0.92281   0.70095   0.61403   0.00000  Uiso   1.00
C199   C     0.87157   0.65623   0.53324   0.00000  Uiso   1.00
C200   C     0.82190   0.56932   0.50679   0.00000  Uiso   1.00
C201   C     0.78001   0.54090   0.43099   0.00000  Uiso   1.00
C202   C     0.98686   0.66632   0.63615   0.00000  Uiso   1.00
C203   C     0.03412   0.58790   0.69625   0.00000  Uiso   1.00
C204   C     0.08928   0.56799   0.70710   0.00000  Uiso   1.00
C205   C     0.91954   0.85162   0.61268   0.00000  Uiso   1.00
C206   C     0.91021   0.92900   0.65305   0.00000  Uiso   1.00
C207   C     0.90872   0.06510   0.64416   0.00000  Uiso   1.00
H208   H     0.94262   0.84906   0.48942   0.00000  Uiso   1.00
H209   H     0.84318   0.72825   0.37311   0.00000  Uiso   1.00
H210   H     0.05537   0.74685   0.56254   0.00000  Uiso   1.00
H211   H     0.93148   0.08789   0.51935   0.00000  Uiso   1.00
H212   H     0.72961   0.56933   0.26513   0.00000  Uiso   1.00
H213   H     0.17702   0.60858   0.66457   0.00000  Uiso   1.00
H214   H     0.91578   0.32774   0.57350   0.00000  Uiso   1.00
H215   H     0.91692   0.65693   0.65106   0.00000  Uiso   1.00
H216   H     0.81606   0.52558   0.54361   0.00000  Uiso   1.00
H217   H     0.02825   0.54417   0.73305   0.00000  Uiso   1.00
H218   H     0.90436   0.88521   0.68985   0.00000  Uiso   1.00
H219   H     0.70760   0.40484   0.40352   0.00000  Uiso   1.00
H220   H     0.15502   0.44409   0.80297   0.00000  Uiso   1.00
H221   H     0.89377   0.16324   0.71189   0.00000  Uiso   1.00
O222   O     0.65274   0.40411   0.26074   0.00000  Uiso   1.00
O223   O     0.23973   0.45563   0.78479   0.00000  Uiso   1.00
O224   O     0.89698   0.39914   0.66530   0.00000  Uiso   1.00
N225   N     0.73826   0.54867   0.31245   0.00000  Uiso   1.00
N226   N     0.15657   0.58535   0.68589   0.00000  Uiso   1.00
N227   N     0.91234   0.25770   0.60076   0.00000  Uiso   1.00
N228   N     0.72642   0.46015   0.38691   0.00000  Uiso   1.00
N229   N     0.14472   0.49683   0.76036   0.00000  Uiso   1.00
N230   N     0.90050   0.16918   0.67523   0.00000  Uiso   1.00
C231   C     0.43673   0.30504   0.52645   0.00000  Uiso   1.00
C232   C     0.37913   0.21277   0.48567   0.00000  Uiso   1.00
C233   C     0.33731   0.18448   0.40990   0.00000  Uiso   1.00
C234   C     0.28759   0.09754   0.38334   0.00000  Uiso   1.00
C235   C     0.19933   0.96282   0.31279   0.00000  Uiso   1.00
C236   C     0.49442   0.22286   0.58859   0.00000  Uiso   1.00
C237   C     0.54953   0.20307   0.59935   0.00000  Uiso   1.00
C238   C     0.59686   0.12463   0.65944   0.00000  Uiso   1.00
C239   C     0.68759   0.00565   0.74870   0.00000  Uiso   1.00
C240   C     0.42710   0.40816   0.56511   0.00000  Uiso   1.00
C241   C     0.42562   0.54417   0.55616   0.00000  Uiso   1.00
C242   C     0.41629   0.62174   0.59650   0.00000  Uiso   1.00
C243   C     0.40251   0.79046   0.64931   0.00000  Uiso   1.00
C244   C     0.42281   0.20095   0.61403   0.00000  Uiso   1.00
C245   C     0.37157   0.15623   0.53324   0.00000  Uiso   1.00
C246   C     0.32190   0.06932   0.50679   0.00000  Uiso   1.00
C247   C     0.28001   0.04090   0.43099   0.00000  Uiso   1.00
C248   C     0.48686   0.16632   0.63615   0.00000  Uiso   1.00
C249   C     0.53412   0.08790   0.69625   0.00000  Uiso   1.00
C250   C     0.58928   0.06799   0.70710   0.00000  Uiso   1.00
C251   C     0.41954   0.35162   0.61268   0.00000  Uiso   1.00
C252   C     0.41021   0.42900   0.65305   0.00000  Uiso   1.00
C253   C     0.40872   0.56510   0.64416   0.00000  Uiso   1.00
H254   H     0.44262   0.34906   0.48942   0.00000  Uiso   1.00
H255   H     0.34318   0.22825   0.37311   0.00000  Uiso   1.00
H256   H     0.55537   0.24685   0.56254   0.00000  Uiso   1.00
H257   H     0.43148   0.58789   0.51935   0.00000  Uiso   1.00
H258   H     0.22961   0.06933   0.26513   0.00000  Uiso   1.00
H259   H     0.67702   0.10858   0.66457   0.00000  Uiso   1.00
H260   H     0.41578   0.82774   0.57350   0.00000  Uiso   1.00
H261   H     0.41692   0.15693   0.65106   0.00000  Uiso   1.00
H262   H     0.31606   0.02558   0.54361   0.00000  Uiso   1.00
H263   H     0.52825   0.04417   0.73305   0.00000  Uiso   1.00
H264   H     0.40436   0.38521   0.68985   0.00000  Uiso   1.00
H265   H     0.20760   0.90484   0.40352   0.00000  Uiso   1.00
H266   H     0.65502   0.94409   0.80297   0.00000  Uiso   1.00
H267   H     0.39377   0.66324   0.71189   0.00000  Uiso   1.00
O268   O     0.15274   0.90411   0.26074   0.00000  Uiso   1.00
O269   O     0.73973   0.95563   0.78479   0.00000  Uiso   1.00
O270   O     0.39698   0.89914   0.66530   0.00000  Uiso   1.00
N271   N     0.23826   0.04867   0.31245   0.00000  Uiso   1.00
N272   N     0.65657   0.08535   0.68589   0.00000  Uiso   1.00
N273   N     0.41234   0.75770   0.60076   0.00000  Uiso   1.00
N274   N     0.22642   0.96015   0.38691   0.00000  Uiso   1.00
N275   N     0.64472   0.99683   0.76036   0.00000  Uiso   1.00
N276   N     0.40050   0.66918   0.67523   0.00000  Uiso   1.00
C277   C     0.06327   0.80504   0.97355   0.00000  Uiso   1.00
C278   C     0.12087   0.71277   0.01433   0.00000  Uiso   1.00
C279   C     0.16269   0.68448   0.09010   0.00000  Uiso   1.00
C280   C     0.21241   0.59754   0.11666   0.00000  Uiso   1.00
C281   C     0.30067   0.46282   0.18721   0.00000  Uiso   1.00
C282   C     0.00558   0.72286   0.91141   0.00000  Uiso   1.00
C283   C     0.95047   0.70307   0.90065   0.00000  Uiso   1.00
C284   C     0.90314   0.62463   0.84056   0.00000  Uiso   1.00
C285   C     0.81241   0.50565   0.75130   0.00000  Uiso   1.00
C286   C     0.07290   0.90816   0.93489   0.00000  Uiso   1.00
C287   C     0.07438   0.04417   0.94384   0.00000  Uiso   1.00
C288   C     0.08371   0.12174   0.90350   0.00000  Uiso   1.00
C289   C     0.09749   0.29046   0.85069   0.00000  Uiso   1.00
C290   C     0.07719   0.70095   0.88597   0.00000  Uiso   1.00
C291   C     0.12843   0.65623   0.96676   0.00000  Uiso   1.00
C292   C     0.17810   0.56932   0.99321   0.00000  Uiso   1.00
C293   C     0.21999   0.54090   0.06901   0.00000  Uiso   1.00
C294   C     0.01314   0.66632   0.86385   0.00000  Uiso   1.00
C295   C     0.96588   0.58790   0.80375   0.00000  Uiso   1.00
C296   C     0.91072   0.56799   0.79290   0.00000  Uiso   1.00
C297   C     0.08046   0.85162   0.88732   0.00000  Uiso   1.00
C298   C     0.08979   0.92900   0.84695   0.00000  Uiso   1.00
C299   C     0.09128   0.06510   0.85584   0.00000  Uiso   1.00
H300   H     0.05738   0.84906   0.01058   0.00000  Uiso   1.00
H301   H     0.15682   0.72825   0.12689   0.00000  Uiso   1.00
H302   H     0.94463   0.74685   0.93746   0.00000  Uiso   1.00
H303   H     0.06852   0.08789   0.98065   0.00000  Uiso   1.00
H304   H     0.27039   0.56933   0.23487   0.00000  Uiso   1.00
H305   H     0.82298   0.60858   0.83543   0.00000  Uiso   1.00
H306   H     0.08422   0.32774   0.92650   0.00000  Uiso   1.00
H307   H     0.08308   0.65693   0.84894   0.00000  Uiso   1.00
H308   H     0.18394   0.52558   0.95639   0.00000  Uiso   1.00
H309   H     0.97175   0.54417   0.76695   0.00000  Uiso   1.00
H310   H     0.09564   0.88521   0.81015   0.00000  Uiso   1.00
H311   H     0.29240   0.40484   0.09648   0.00000  Uiso   1.00
H312   H     0.84498   0.44409   0.69703   0.00000  Uiso   1.00
H313   H     0.10623   0.16324   0.78811   0.00000  Uiso   1.00
O314   O     0.34726   0.40411   0.23926   0.00000  Uiso   1.00
O315   O     0.76027   0.45563   0.71521   0.00000  Uiso   1.00
O316   O     0.10302   0.39914   0.83470   0.00000  Uiso   1.00
N317   N     0.26174   0.54867   0.18755   0.00000  Uiso   1.00
N318   N     0.84343   0.58535   0.81411   0.00000  Uiso   1.00
N319   N     0.08766   0.25770   0.89924   0.00000  Uiso   1.00
N320   N     0.27358   0.46015   0.11309   0.00000  Uiso   1.00
N321   N     0.85528   0.49683   0.73964   0.00000  Uiso   1.00
N322   N     0.09950   0.16918   0.82477   0.00000  Uiso   1.00
C323   C     0.56327   0.30504   0.97355   0.00000  Uiso   1.00
C324   C     0.62087   0.21277   0.01433   0.00000  Uiso   1.00
C325   C     0.66269   0.18448   0.09010   0.00000  Uiso   1.00
C326   C     0.71241   0.09754   0.11666   0.00000  Uiso   1.00
C327   C     0.80067   0.96282   0.18721   0.00000  Uiso   1.00
C328   C     0.50558   0.22286   0.91141   0.00000  Uiso   1.00
C329   C     0.45047   0.20307   0.90065   0.00000  Uiso   1.00
C330   C     0.40314   0.12463   0.84056   0.00000  Uiso   1.00
C331   C     0.31241   0.00565   0.75130   0.00000  Uiso   1.00
C332   C     0.57290   0.40816   0.93489   0.00000  Uiso   1.00
C333   C     0.57438   0.54417   0.94384   0.00000  Uiso   1.00
C334   C     0.58371   0.62174   0.90350   0.00000  Uiso   1.00
C335   C     0.59749   0.79046   0.85069   0.00000  Uiso   1.00
C336   C     0.57719   0.20095   0.88597   0.00000  Uiso   1.00
C337   C     0.62843   0.15623   0.96676   0.00000  Uiso   1.00
C338   C     0.67810   0.06932   0.99321   0.00000  Uiso   1.00
C339   C     0.71999   0.04090   0.06901   0.00000  Uiso   1.00
C340   C     0.51314   0.16632   0.86385   0.00000  Uiso   1.00
C341   C     0.46588   0.08790   0.80375   0.00000  Uiso   1.00
C342   C     0.41072   0.06799   0.79290   0.00000  Uiso   1.00
C343   C     0.58046   0.35162   0.88732   0.00000  Uiso   1.00
C344   C     0.58979   0.42900   0.84695   0.00000  Uiso   1.00
C345   C     0.59128   0.56510   0.85584   0.00000  Uiso   1.00
H346   H     0.55738   0.34906   0.01058   0.00000  Uiso   1.00
H347   H     0.65682   0.22825   0.12689   0.00000  Uiso   1.00
H348   H     0.44463   0.24685   0.93746   0.00000  Uiso   1.00
H349   H     0.56852   0.58789   0.98065   0.00000  Uiso   1.00
H350   H     0.77039   0.06933   0.23487   0.00000  Uiso   1.00
H351   H     0.32298   0.10858   0.83543   0.00000  Uiso   1.00
H352   H     0.58422   0.82774   0.92650   0.00000  Uiso   1.00
H353   H     0.58308   0.15693   0.84894   0.00000  Uiso   1.00
H354   H     0.68394   0.02558   0.95639   0.00000  Uiso   1.00
H355   H     0.47175   0.04417   0.76695   0.00000  Uiso   1.00
H356   H     0.59564   0.38521   0.81015   0.00000  Uiso   1.00
H357   H     0.79240   0.90484   0.09648   0.00000  Uiso   1.00
H358   H     0.34498   0.94409   0.69703   0.00000  Uiso   1.00
H359   H     0.60623   0.66324   0.78811   0.00000  Uiso   1.00
O360   O     0.84726   0.90411   0.23926   0.00000  Uiso   1.00
O361   O     0.26027   0.95563   0.71521   0.00000  Uiso   1.00
O362   O     0.60302   0.89914   0.83470   0.00000  Uiso   1.00
N363   N     0.76174   0.04867   0.18755   0.00000  Uiso   1.00
N364   N     0.34343   0.08535   0.81411   0.00000  Uiso   1.00
N365   N     0.58766   0.75770   0.89924   0.00000  Uiso   1.00
N366   N     0.77358   0.96015   0.11309   0.00000  Uiso   1.00
N367   N     0.35528   0.99683   0.73964   0.00000  Uiso   1.00
N368   N     0.59950   0.66918   0.82477   0.00000  Uiso   1.00
