data_job_05347
_audit_creation_date              2018-12-19
_audit_creation_method            'Materials Studio'
_symmetry_space_group_name_H-M    'P1'
_symmetry_Int_Tables_number       1
_symmetry_cell_setting            triclinic
loop_
_symmetry_equiv_pos_as_xyz
  x,y,z
_cell_length_a                    20.3590
_cell_length_b                    18.8626
_cell_length_c                    7.4202
_cell_angle_alpha                 90.0000
_cell_angle_beta                  90.0000
_cell_angle_gamma                 90.0000
loop_
_atom_site_label
_atom_site_type_symbol
_atom_site_fract_x
_atom_site_fract_y
_atom_site_fract_z
_atom_site_U_iso_or_equiv
_atom_site_adp_type
_atom_site_occupancy
C1     C     0.84163   0.04933   0.56545   0.00000  Uiso   1.00
C2     C     0.86274   0.99983   0.41363   0.00000  Uiso   1.00
C3     C     0.89297   0.93444   0.43520   0.00000  Uiso   1.00
C4     C     0.90843   0.89723   0.27942   0.00000  Uiso   1.00
C5     C     0.94342   0.81625   0.06972   0.00000  Uiso   1.00
C6     C     0.87566   0.11992   0.52920   0.00000  Uiso   1.00
C7     C     0.91674   0.15549   0.64795   0.00000  Uiso   1.00
C8     C     0.94305   0.21938   0.58946   0.00000  Uiso   1.00
C9     C     0.99806   0.32486   0.55923   0.00000  Uiso   1.00
C10    C     0.76845   0.06264   0.53764   0.00000  Uiso   1.00
C11    C     0.71939   0.05008   0.66349   0.00000  Uiso   1.00
C12    C     0.65544   0.06577   0.61211   0.00000  Uiso   1.00
C13    C     0.54399   0.08232   0.59498   0.00000  Uiso   1.00
C14    C     0.81531   0.09954   0.25045   0.00000  Uiso   1.00
C15    C     0.84845   0.02711   0.24254   0.00000  Uiso   1.00
C16    C     0.86386   0.98999   0.08668   0.00000  Uiso   1.00
C17    C     0.89410   0.92455   0.10801   0.00000  Uiso   1.00
C18    C     0.86137   0.14719   0.35811   0.00000  Uiso   1.00
C19    C     0.88762   0.21105   0.29944   0.00000  Uiso   1.00
C20    C     0.92873   0.24671   0.41805   0.00000  Uiso   1.00
C21    C     0.75415   0.08992   0.36654   0.00000  Uiso   1.00
C22    C     0.69027   0.10563   0.31497   0.00000  Uiso   1.00
C23    C     0.64112   0.09309   0.44071   0.00000  Uiso   1.00
H24    H     0.85276   0.02810   0.69865   0.00000  Uiso   1.00
H25    H     0.90403   0.91335   0.56763   0.00000  Uiso   1.00
H26    H     0.92779   0.13438   0.78035   0.00000  Uiso   1.00
H27    H     0.73047   0.02898   0.79588   0.00000  Uiso   1.00
H28    H     0.95460   0.79817   0.34691   0.00000  Uiso   1.00
H29    H     0.00467   0.26423   0.79547   0.00000  Uiso   1.00
H30    H     0.58858   0.04197   0.82822   0.00000  Uiso   1.00
H31    H     0.80418   0.12078   0.11724   0.00000  Uiso   1.00
H32    H     0.85279   0.01111   0.95430   0.00000  Uiso   1.00
H33    H     0.87655   0.23214   0.16703   0.00000  Uiso   1.00
H34    H     0.67923   0.12674   0.18255   0.00000  Uiso   1.00
H35    H     0.91301   0.87752   0.84911   0.00000  Uiso   1.00
H36    H     0.96308   0.34358   0.29767   0.00000  Uiso   1.00
H37    H     0.54699   0.12132   0.33042   0.00000  Uiso   1.00
O38    O     0.96668   0.76405   0.00131   0.00000  Uiso   1.00
O39    O     0.03236   0.37550   0.58982   0.00000  Uiso   1.00
O40    O     0.48646   0.08390   0.63278   0.00000  Uiso   1.00
N41    N     0.93813   0.83189   0.25211   0.00000  Uiso   1.00
N42    N     0.98495   0.26762   0.67148   0.00000  Uiso   1.00
N43    N     0.59594   0.05985   0.70212   0.00000  Uiso   1.00
N44    N     0.91575   0.87459   0.98425   0.00000  Uiso   1.00
N45    N     0.96257   0.31032   0.40362   0.00000  Uiso   1.00
N46    N     0.57356   0.10254   0.43425   0.00000  Uiso   1.00
C47    C     0.15837   0.95067   0.56545   0.00000  Uiso   1.00
C48    C     0.13726   0.00017   0.41363   0.00000  Uiso   1.00
C49    C     0.10703   0.06556   0.43520   0.00000  Uiso   1.00
C50    C     0.09157   0.10277   0.27942   0.00000  Uiso   1.00
C51    C     0.05658   0.18375   0.06972   0.00000  Uiso   1.00
C52    C     0.12434   0.88008   0.52920   0.00000  Uiso   1.00
C53    C     0.08326   0.84451   0.64795   0.00000  Uiso   1.00
C54    C     0.05695   0.78062   0.58946   0.00000  Uiso   1.00
C55    C     0.00194   0.67514   0.55923   0.00000  Uiso   1.00
C56    C     0.23155   0.93736   0.53764   0.00000  Uiso   1.00
C57    C     0.28061   0.94992   0.66349   0.00000  Uiso   1.00
C58    C     0.34456   0.93423   0.61211   0.00000  Uiso   1.00
C59    C     0.45601   0.91768   0.59498   0.00000  Uiso   1.00
C60    C     0.18469   0.90046   0.25045   0.00000  Uiso   1.00
C61    C     0.15155   0.97289   0.24254   0.00000  Uiso   1.00
C62    C     0.13614   0.01001   0.08668   0.00000  Uiso   1.00
C63    C     0.10590   0.07545   0.10801   0.00000  Uiso   1.00
C64    C     0.13863   0.85281   0.35811   0.00000  Uiso   1.00
C65    C     0.11238   0.78895   0.29944   0.00000  Uiso   1.00
C66    C     0.07127   0.75329   0.41805   0.00000  Uiso   1.00
C67    C     0.24585   0.91008   0.36654   0.00000  Uiso   1.00
C68    C     0.30973   0.89437   0.31497   0.00000  Uiso   1.00
C69    C     0.35888   0.90691   0.44071   0.00000  Uiso   1.00
H70    H     0.14724   0.97190   0.69865   0.00000  Uiso   1.00
H71    H     0.09597   0.08665   0.56763   0.00000  Uiso   1.00
H72    H     0.07221   0.86562   0.78035   0.00000  Uiso   1.00
H73    H     0.26953   0.97102   0.79588   0.00000  Uiso   1.00
H74    H     0.04540   0.20183   0.34691   0.00000  Uiso   1.00
H75    H     0.99533   0.73577   0.79547   0.00000  Uiso   1.00
H76    H     0.41142   0.95803   0.82822   0.00000  Uiso   1.00
H77    H     0.19582   0.87922   0.11724   0.00000  Uiso   1.00
H78    H     0.14721   0.98889   0.95430   0.00000  Uiso   1.00
H79    H     0.12345   0.76786   0.16703   0.00000  Uiso   1.00
H80    H     0.32077   0.87326   0.18255   0.00000  Uiso   1.00
H81    H     0.08699   0.12248   0.84911   0.00000  Uiso   1.00
H82    H     0.03692   0.65642   0.29767   0.00000  Uiso   1.00
H83    H     0.45301   0.87868   0.33042   0.00000  Uiso   1.00
O84    O     0.03332   0.23595   0.00131   0.00000  Uiso   1.00
O85    O     0.96764   0.62450   0.58982   0.00000  Uiso   1.00
O86    O     0.51354   0.91610   0.63278   0.00000  Uiso   1.00
N87    N     0.06187   0.16811   0.25211   0.00000  Uiso   1.00
N88    N     0.01505   0.73238   0.67148   0.00000  Uiso   1.00
N89    N     0.40406   0.94015   0.70212   0.00000  Uiso   1.00
N90    N     0.08425   0.12541   0.98425   0.00000  Uiso   1.00
N91    N     0.03743   0.68968   0.40362   0.00000  Uiso   1.00
N92    N     0.42644   0.89746   0.43425   0.00000  Uiso   1.00
C93    C     0.34163   0.45067   0.06545   0.00000  Uiso   1.00
C94    C     0.36274   0.50017   0.91363   0.00000  Uiso   1.00
C95    C     0.39297   0.56556   0.93520   0.00000  Uiso   1.00
C96    C     0.40843   0.60277   0.77942   0.00000  Uiso   1.00
C97    C     0.44342   0.68375   0.56972   0.00000  Uiso   1.00
C98    C     0.37566   0.38008   0.02920   0.00000  Uiso   1.00
C99    C     0.41674   0.34451   0.14795   0.00000  Uiso   1.00
C100   C     0.44305   0.28062   0.08946   0.00000  Uiso   1.00
C101   C     0.49806   0.17514   0.05923   0.00000  Uiso   1.00
C102   C     0.26845   0.43736   0.03764   0.00000  Uiso   1.00
C103   C     0.21939   0.44992   0.16349   0.00000  Uiso   1.00
C104   C     0.15544   0.43423   0.11211   0.00000  Uiso   1.00
C105   C     0.04399   0.41768   0.09498   0.00000  Uiso   1.00
C106   C     0.31531   0.40046   0.75045   0.00000  Uiso   1.00
C107   C     0.34845   0.47289   0.74254   0.00000  Uiso   1.00
C108   C     0.36386   0.51001   0.58668   0.00000  Uiso   1.00
C109   C     0.39410   0.57545   0.60801   0.00000  Uiso   1.00
C110   C     0.36137   0.35281   0.85811   0.00000  Uiso   1.00
C111   C     0.38762   0.28895   0.79944   0.00000  Uiso   1.00
C112   C     0.42873   0.25329   0.91805   0.00000  Uiso   1.00
C113   C     0.25415   0.41008   0.86654   0.00000  Uiso   1.00
C114   C     0.19027   0.39437   0.81497   0.00000  Uiso   1.00
C115   C     0.14112   0.40691   0.94071   0.00000  Uiso   1.00
H116   H     0.35276   0.47190   0.19865   0.00000  Uiso   1.00
H117   H     0.40403   0.58665   0.06763   0.00000  Uiso   1.00
H118   H     0.42779   0.36562   0.28035   0.00000  Uiso   1.00
H119   H     0.23047   0.47102   0.29588   0.00000  Uiso   1.00
H120   H     0.45460   0.70183   0.84691   0.00000  Uiso   1.00
H121   H     0.50467   0.23577   0.29547   0.00000  Uiso   1.00
H122   H     0.08858   0.45803   0.32822   0.00000  Uiso   1.00
H123   H     0.30418   0.37922   0.61724   0.00000  Uiso   1.00
H124   H     0.35279   0.48889   0.45430   0.00000  Uiso   1.00
H125   H     0.37655   0.26786   0.66703   0.00000  Uiso   1.00
H126   H     0.17923   0.37326   0.68255   0.00000  Uiso   1.00
H127   H     0.41301   0.62248   0.34911   0.00000  Uiso   1.00
H128   H     0.46308   0.15642   0.79767   0.00000  Uiso   1.00
H129   H     0.04699   0.37868   0.83042   0.00000  Uiso   1.00
O130   O     0.46668   0.73595   0.50131   0.00000  Uiso   1.00
O131   O     0.53236   0.12450   0.08982   0.00000  Uiso   1.00
O132   O     0.98646   0.41610   0.13278   0.00000  Uiso   1.00
N133   N     0.43813   0.66811   0.75211   0.00000  Uiso   1.00
N134   N     0.48495   0.23238   0.17148   0.00000  Uiso   1.00
N135   N     0.09594   0.44015   0.20212   0.00000  Uiso   1.00
N136   N     0.41575   0.62541   0.48425   0.00000  Uiso   1.00
N137   N     0.46257   0.18968   0.90362   0.00000  Uiso   1.00
N138   N     0.07356   0.39746   0.93425   0.00000  Uiso   1.00
C139   C     0.65837   0.54933   0.06545   0.00000  Uiso   1.00
C140   C     0.63726   0.49983   0.91363   0.00000  Uiso   1.00
C141   C     0.60703   0.43444   0.93520   0.00000  Uiso   1.00
C142   C     0.59157   0.39723   0.77942   0.00000  Uiso   1.00
C143   C     0.55658   0.31625   0.56972   0.00000  Uiso   1.00
C144   C     0.62434   0.61992   0.02920   0.00000  Uiso   1.00
C145   C     0.58326   0.65549   0.14795   0.00000  Uiso   1.00
C146   C     0.55695   0.71938   0.08946   0.00000  Uiso   1.00
C147   C     0.50194   0.82486   0.05923   0.00000  Uiso   1.00
C148   C     0.73155   0.56264   0.03764   0.00000  Uiso   1.00
C149   C     0.78061   0.55008   0.16349   0.00000  Uiso   1.00
C150   C     0.84456   0.56577   0.11211   0.00000  Uiso   1.00
C151   C     0.95601   0.58232   0.09498   0.00000  Uiso   1.00
C152   C     0.68469   0.59954   0.75045   0.00000  Uiso   1.00
C153   C     0.65155   0.52711   0.74254   0.00000  Uiso   1.00
C154   C     0.63614   0.48999   0.58668   0.00000  Uiso   1.00
C155   C     0.60590   0.42455   0.60801   0.00000  Uiso   1.00
C156   C     0.63863   0.64719   0.85811   0.00000  Uiso   1.00
C157   C     0.61238   0.71105   0.79944   0.00000  Uiso   1.00
C158   C     0.57127   0.74671   0.91805   0.00000  Uiso   1.00
C159   C     0.74585   0.58992   0.86654   0.00000  Uiso   1.00
C160   C     0.80973   0.60563   0.81497   0.00000  Uiso   1.00
C161   C     0.85888   0.59309   0.94071   0.00000  Uiso   1.00
H162   H     0.64724   0.52810   0.19865   0.00000  Uiso   1.00
H163   H     0.59597   0.41335   0.06763   0.00000  Uiso   1.00
H164   H     0.57221   0.63438   0.28035   0.00000  Uiso   1.00
H165   H     0.76953   0.52898   0.29588   0.00000  Uiso   1.00
H166   H     0.54540   0.29817   0.84691   0.00000  Uiso   1.00
H167   H     0.49533   0.76423   0.29547   0.00000  Uiso   1.00
H168   H     0.91142   0.54197   0.32822   0.00000  Uiso   1.00
H169   H     0.69582   0.62078   0.61724   0.00000  Uiso   1.00
H170   H     0.64721   0.51111   0.45430   0.00000  Uiso   1.00
H171   H     0.62345   0.73214   0.66703   0.00000  Uiso   1.00
H172   H     0.82077   0.62674   0.68255   0.00000  Uiso   1.00
H173   H     0.58699   0.37752   0.34911   0.00000  Uiso   1.00
H174   H     0.53692   0.84358   0.79767   0.00000  Uiso   1.00
H175   H     0.95301   0.62132   0.83042   0.00000  Uiso   1.00
O176   O     0.53332   0.26405   0.50131   0.00000  Uiso   1.00
O177   O     0.46764   0.87550   0.08982   0.00000  Uiso   1.00
O178   O     0.01354   0.58390   0.13278   0.00000  Uiso   1.00
N179   N     0.56187   0.33189   0.75211   0.00000  Uiso   1.00
N180   N     0.51505   0.76762   0.17148   0.00000  Uiso   1.00
N181   N     0.90406   0.55985   0.20212   0.00000  Uiso   1.00
N182   N     0.58425   0.37459   0.48425   0.00000  Uiso   1.00
N183   N     0.53743   0.81032   0.90362   0.00000  Uiso   1.00
N184   N     0.92644   0.60254   0.93425   0.00000  Uiso   1.00
