data_job_00867
_audit_creation_date              2018-12-19
_audit_creation_method            'Materials Studio'
_symmetry_space_group_name_H-M    'P1'
_symmetry_Int_Tables_number       1
_symmetry_cell_setting            triclinic
loop_
_symmetry_equiv_pos_as_xyz
  x,y,z
_cell_length_a                    16.9387
_cell_length_b                    13.7303
_cell_length_c                    22.0711
_cell_angle_alpha                 90.0000
_cell_angle_beta                  90.0000
_cell_angle_gamma                 90.0000
loop_
_atom_site_label
_atom_site_type_symbol
_atom_site_fract_x
_atom_site_fract_y
_atom_site_fract_z
_atom_site_U_iso_or_equiv
_atom_site_adp_type
_atom_site_occupancy
C1     C     0.82324   0.39943   0.80941   0.00000  Uiso   1.00
C2     C     0.88419   0.32520   0.83069   0.00000  Uiso   1.00
C3     C     0.95651   0.34676   0.85702   0.00000  Uiso   1.00
C4     C     0.00389   0.26852   0.87333   0.00000  Uiso   1.00
C5     C     0.10223   0.16790   0.90781   0.00000  Uiso   1.00
C6     C     0.80816   0.37710   0.74273   0.00000  Uiso   1.00
C7     C     0.81653   0.44231   0.69511   0.00000  Uiso   1.00
C8     C     0.79988   0.40776   0.63739   0.00000  Uiso   1.00
C9     C     0.78012   0.38775   0.53532   0.00000  Uiso   1.00
C10    C     0.74690   0.37451   0.84258   0.00000  Uiso   1.00
C11    C     0.70375   0.43754   0.87891   0.00000  Uiso   1.00
C12    C     0.63552   0.40081   0.90525   0.00000  Uiso   1.00
C13    C     0.52064   0.37676   0.95822   0.00000  Uiso   1.00
C14    C     0.77878   0.22215   0.79156   0.00000  Uiso   1.00
C15    C     0.86004   0.22891   0.82099   0.00000  Uiso   1.00
C16    C     0.90732   0.15061   0.83727   0.00000  Uiso   1.00
C17    C     0.97969   0.17205   0.86362   0.00000  Uiso   1.00
C18    C     0.78401   0.28081   0.73303   0.00000  Uiso   1.00
C19    C     0.76734   0.24616   0.67536   0.00000  Uiso   1.00
C20    C     0.77569   0.31129   0.62767   0.00000  Uiso   1.00
C21    C     0.72275   0.27821   0.83289   0.00000  Uiso   1.00
C22    C     0.65456   0.24139   0.85917   0.00000  Uiso   1.00
C23    C     0.61132   0.30434   0.89553   0.00000  Uiso   1.00
H24    H     0.84204   0.47440   0.81696   0.00000  Uiso   1.00
H25    H     0.97518   0.42129   0.86451   0.00000  Uiso   1.00
H26    H     0.83521   0.51682   0.70263   0.00000  Uiso   1.00
H27    H     0.72246   0.51205   0.88641   0.00000  Uiso   1.00
H28    H     0.11216   0.31994   0.91294   0.00000  Uiso   1.00
H29    H     0.81700   0.52139   0.57161   0.00000  Uiso   1.00
H30    H     0.57923   0.51132   0.95913   0.00000  Uiso   1.00
H31    H     0.75997   0.14718   0.78401   0.00000  Uiso   1.00
H32    H     0.88862   0.07610   0.82976   0.00000  Uiso   1.00
H33    H     0.74865   0.17164   0.66788   0.00000  Uiso   1.00
H34    H     0.63589   0.16687   0.85165   0.00000  Uiso   1.00
H35    H     0.04190   0.03977   0.88473   0.00000  Uiso   1.00
H36    H     0.74674   0.24123   0.54340   0.00000  Uiso   1.00
H37    H     0.50897   0.23115   0.93092   0.00000  Uiso   1.00
O38    O     0.16314   0.13901   0.92950   0.00000  Uiso   1.00
O39    O     0.77590   0.40331   0.48169   0.00000  Uiso   1.00
O40    O     0.46395   0.39010   0.99012   0.00000  Uiso   1.00
N41    N     0.07796   0.26376   0.90003   0.00000  Uiso   1.00
N42    N     0.80202   0.45209   0.58091   0.00000  Uiso   1.00
N43    N     0.57971   0.44269   0.94320   0.00000  Uiso   1.00
N44    N     0.04015   0.11300   0.88485   0.00000  Uiso   1.00
N45    N     0.76421   0.30134   0.56573   0.00000  Uiso   1.00
N46    N     0.54191   0.29193   0.92802   0.00000  Uiso   1.00
C47    C     0.67676   0.60057   0.30941   0.00000  Uiso   1.00
C48    C     0.61581   0.67480   0.33069   0.00000  Uiso   1.00
C49    C     0.54349   0.65324   0.35702   0.00000  Uiso   1.00
C50    C     0.49611   0.73148   0.37333   0.00000  Uiso   1.00
C51    C     0.39777   0.83210   0.40781   0.00000  Uiso   1.00
C52    C     0.69184   0.62290   0.24273   0.00000  Uiso   1.00
C53    C     0.68347   0.55769   0.19511   0.00000  Uiso   1.00
C54    C     0.70012   0.59224   0.13739   0.00000  Uiso   1.00
C55    C     0.71988   0.61225   0.03532   0.00000  Uiso   1.00
C56    C     0.75310   0.62549   0.34258   0.00000  Uiso   1.00
C57    C     0.79625   0.56246   0.37891   0.00000  Uiso   1.00
C58    C     0.86448   0.59919   0.40525   0.00000  Uiso   1.00
C59    C     0.97936   0.62324   0.45822   0.00000  Uiso   1.00
C60    C     0.72122   0.77785   0.29156   0.00000  Uiso   1.00
C61    C     0.63996   0.77109   0.32099   0.00000  Uiso   1.00
C62    C     0.59268   0.84939   0.33727   0.00000  Uiso   1.00
C63    C     0.52031   0.82795   0.36362   0.00000  Uiso   1.00
C64    C     0.71599   0.71919   0.23303   0.00000  Uiso   1.00
C65    C     0.73266   0.75384   0.17536   0.00000  Uiso   1.00
C66    C     0.72431   0.68871   0.12767   0.00000  Uiso   1.00
C67    C     0.77725   0.72179   0.33289   0.00000  Uiso   1.00
C68    C     0.84544   0.75861   0.35917   0.00000  Uiso   1.00
C69    C     0.88868   0.69566   0.39553   0.00000  Uiso   1.00
H70    H     0.65796   0.52560   0.31696   0.00000  Uiso   1.00
H71    H     0.52482   0.57871   0.36451   0.00000  Uiso   1.00
H72    H     0.66479   0.48318   0.20263   0.00000  Uiso   1.00
H73    H     0.77754   0.48795   0.38641   0.00000  Uiso   1.00
H74    H     0.38784   0.68006   0.41294   0.00000  Uiso   1.00
H75    H     0.68300   0.47861   0.07161   0.00000  Uiso   1.00
H76    H     0.92077   0.48868   0.45913   0.00000  Uiso   1.00
H77    H     0.74003   0.85282   0.28401   0.00000  Uiso   1.00
H78    H     0.61138   0.92390   0.32976   0.00000  Uiso   1.00
H79    H     0.75135   0.82836   0.16788   0.00000  Uiso   1.00
H80    H     0.86411   0.83313   0.35165   0.00000  Uiso   1.00
H81    H     0.45810   0.96023   0.38473   0.00000  Uiso   1.00
H82    H     0.75326   0.75877   0.04340   0.00000  Uiso   1.00
H83    H     0.99103   0.76885   0.43092   0.00000  Uiso   1.00
O84    O     0.33686   0.86099   0.42950   0.00000  Uiso   1.00
O85    O     0.72410   0.59669   0.98169   0.00000  Uiso   1.00
O86    O     0.03605   0.60990   0.49012   0.00000  Uiso   1.00
N87    N     0.42204   0.73624   0.40003   0.00000  Uiso   1.00
N88    N     0.69798   0.54791   0.08091   0.00000  Uiso   1.00
N89    N     0.92029   0.55731   0.44320   0.00000  Uiso   1.00
N90    N     0.45985   0.88700   0.38485   0.00000  Uiso   1.00
N91    N     0.73579   0.69866   0.06573   0.00000  Uiso   1.00
N92    N     0.95809   0.70807   0.42802   0.00000  Uiso   1.00
C93    C     0.17676   0.89943   0.69059   0.00000  Uiso   1.00
C94    C     0.11581   0.82520   0.66931   0.00000  Uiso   1.00
C95    C     0.04349   0.84676   0.64298   0.00000  Uiso   1.00
C96    C     0.99611   0.76852   0.62667   0.00000  Uiso   1.00
C97    C     0.89777   0.66790   0.59219   0.00000  Uiso   1.00
C98    C     0.19184   0.87710   0.75727   0.00000  Uiso   1.00
C99    C     0.18347   0.94231   0.80489   0.00000  Uiso   1.00
C100   C     0.20012   0.90776   0.86261   0.00000  Uiso   1.00
C101   C     0.21988   0.88775   0.96468   0.00000  Uiso   1.00
C102   C     0.25310   0.87451   0.65742   0.00000  Uiso   1.00
C103   C     0.29625   0.93754   0.62109   0.00000  Uiso   1.00
C104   C     0.36448   0.90081   0.59475   0.00000  Uiso   1.00
C105   C     0.47936   0.87676   0.54178   0.00000  Uiso   1.00
C106   C     0.22122   0.72215   0.70844   0.00000  Uiso   1.00
C107   C     0.13996   0.72891   0.67901   0.00000  Uiso   1.00
C108   C     0.09268   0.65061   0.66273   0.00000  Uiso   1.00
C109   C     0.02031   0.67205   0.63638   0.00000  Uiso   1.00
C110   C     0.21599   0.78081   0.76697   0.00000  Uiso   1.00
C111   C     0.23266   0.74616   0.82464   0.00000  Uiso   1.00
C112   C     0.22431   0.81129   0.87233   0.00000  Uiso   1.00
C113   C     0.27725   0.77821   0.66711   0.00000  Uiso   1.00
C114   C     0.34544   0.74139   0.64083   0.00000  Uiso   1.00
C115   C     0.38868   0.80434   0.60447   0.00000  Uiso   1.00
H116   H     0.15796   0.97440   0.68304   0.00000  Uiso   1.00
H117   H     0.02482   0.92129   0.63549   0.00000  Uiso   1.00
H118   H     0.16479   0.01682   0.79737   0.00000  Uiso   1.00
H119   H     0.27754   0.01205   0.61359   0.00000  Uiso   1.00
H120   H     0.88784   0.81994   0.58706   0.00000  Uiso   1.00
H121   H     0.18300   0.02139   0.92839   0.00000  Uiso   1.00
H122   H     0.42077   0.01132   0.54087   0.00000  Uiso   1.00
H123   H     0.24003   0.64718   0.71599   0.00000  Uiso   1.00
H124   H     0.11138   0.57610   0.67024   0.00000  Uiso   1.00
H125   H     0.25135   0.67164   0.83212   0.00000  Uiso   1.00
H126   H     0.36411   0.66687   0.64835   0.00000  Uiso   1.00
H127   H     0.95810   0.53977   0.61527   0.00000  Uiso   1.00
H128   H     0.25326   0.74123   0.95660   0.00000  Uiso   1.00
H129   H     0.49103   0.73115   0.56908   0.00000  Uiso   1.00
O130   O     0.83686   0.63901   0.57050   0.00000  Uiso   1.00
O131   O     0.22410   0.90331   0.01831   0.00000  Uiso   1.00
O132   O     0.53605   0.89010   0.50988   0.00000  Uiso   1.00
N133   N     0.92204   0.76376   0.59997   0.00000  Uiso   1.00
N134   N     0.19798   0.95209   0.91909   0.00000  Uiso   1.00
N135   N     0.42029   0.94269   0.55680   0.00000  Uiso   1.00
N136   N     0.95985   0.61300   0.61515   0.00000  Uiso   1.00
N137   N     0.23579   0.80134   0.93427   0.00000  Uiso   1.00
N138   N     0.45809   0.79193   0.57198   0.00000  Uiso   1.00
C139   C     0.32324   0.10057   0.19059   0.00000  Uiso   1.00
C140   C     0.38419   0.17480   0.16931   0.00000  Uiso   1.00
C141   C     0.45651   0.15324   0.14298   0.00000  Uiso   1.00
C142   C     0.50389   0.23148   0.12667   0.00000  Uiso   1.00
C143   C     0.60223   0.33210   0.09219   0.00000  Uiso   1.00
C144   C     0.30816   0.12290   0.25727   0.00000  Uiso   1.00
C145   C     0.31653   0.05769   0.30489   0.00000  Uiso   1.00
C146   C     0.29988   0.09224   0.36261   0.00000  Uiso   1.00
C147   C     0.28012   0.11225   0.46468   0.00000  Uiso   1.00
C148   C     0.24690   0.12549   0.15742   0.00000  Uiso   1.00
C149   C     0.20375   0.06246   0.12109   0.00000  Uiso   1.00
C150   C     0.13552   0.09919   0.09475   0.00000  Uiso   1.00
C151   C     0.02064   0.12324   0.04178   0.00000  Uiso   1.00
C152   C     0.27878   0.27785   0.20844   0.00000  Uiso   1.00
C153   C     0.36004   0.27109   0.17901   0.00000  Uiso   1.00
C154   C     0.40732   0.34939   0.16273   0.00000  Uiso   1.00
C155   C     0.47969   0.32795   0.13638   0.00000  Uiso   1.00
C156   C     0.28401   0.21919   0.26697   0.00000  Uiso   1.00
C157   C     0.26734   0.25384   0.32464   0.00000  Uiso   1.00
C158   C     0.27569   0.18871   0.37233   0.00000  Uiso   1.00
C159   C     0.22275   0.22179   0.16711   0.00000  Uiso   1.00
C160   C     0.15456   0.25861   0.14083   0.00000  Uiso   1.00
C161   C     0.11132   0.19566   0.10447   0.00000  Uiso   1.00
H162   H     0.34204   0.02560   0.18304   0.00000  Uiso   1.00
H163   H     0.47518   0.07871   0.13549   0.00000  Uiso   1.00
H164   H     0.33521   0.98318   0.29737   0.00000  Uiso   1.00
H165   H     0.22246   0.98795   0.11359   0.00000  Uiso   1.00
H166   H     0.61216   0.18006   0.08706   0.00000  Uiso   1.00
H167   H     0.31700   0.97861   0.42839   0.00000  Uiso   1.00
H168   H     0.07923   0.98868   0.04087   0.00000  Uiso   1.00
H169   H     0.25997   0.35282   0.21599   0.00000  Uiso   1.00
H170   H     0.38862   0.42390   0.17024   0.00000  Uiso   1.00
H171   H     0.24865   0.32836   0.33212   0.00000  Uiso   1.00
H172   H     0.13589   0.33313   0.14835   0.00000  Uiso   1.00
H173   H     0.54190   0.46023   0.11527   0.00000  Uiso   1.00
H174   H     0.24674   0.25877   0.45660   0.00000  Uiso   1.00
H175   H     0.00897   0.26885   0.06908   0.00000  Uiso   1.00
O176   O     0.66314   0.36099   0.07050   0.00000  Uiso   1.00
O177   O     0.27590   0.09669   0.51831   0.00000  Uiso   1.00
O178   O     0.96395   0.10990   0.00988   0.00000  Uiso   1.00
N179   N     0.57796   0.23624   0.09997   0.00000  Uiso   1.00
N180   N     0.30202   0.04791   0.41909   0.00000  Uiso   1.00
N181   N     0.07971   0.05731   0.05680   0.00000  Uiso   1.00
N182   N     0.54015   0.38700   0.11515   0.00000  Uiso   1.00
N183   N     0.26421   0.19866   0.43427   0.00000  Uiso   1.00
N184   N     0.04191   0.20807   0.07198   0.00000  Uiso   1.00
C185   C     0.17676   0.60057   0.19059   0.00000  Uiso   1.00
C186   C     0.11581   0.67480   0.16931   0.00000  Uiso   1.00
C187   C     0.04349   0.65324   0.14298   0.00000  Uiso   1.00
C188   C     0.99611   0.73148   0.12667   0.00000  Uiso   1.00
C189   C     0.89777   0.83210   0.09219   0.00000  Uiso   1.00
C190   C     0.19184   0.62290   0.25727   0.00000  Uiso   1.00
C191   C     0.18347   0.55769   0.30489   0.00000  Uiso   1.00
C192   C     0.20012   0.59224   0.36261   0.00000  Uiso   1.00
C193   C     0.21988   0.61225   0.46468   0.00000  Uiso   1.00
C194   C     0.25310   0.62549   0.15742   0.00000  Uiso   1.00
C195   C     0.29625   0.56246   0.12109   0.00000  Uiso   1.00
C196   C     0.36448   0.59919   0.09475   0.00000  Uiso   1.00
C197   C     0.47936   0.62324   0.04178   0.00000  Uiso   1.00
C198   C     0.22122   0.77785   0.20844   0.00000  Uiso   1.00
C199   C     0.13996   0.77109   0.17901   0.00000  Uiso   1.00
C200   C     0.09268   0.84939   0.16273   0.00000  Uiso   1.00
C201   C     0.02031   0.82795   0.13638   0.00000  Uiso   1.00
C202   C     0.21599   0.71919   0.26697   0.00000  Uiso   1.00
C203   C     0.23266   0.75384   0.32464   0.00000  Uiso   1.00
C204   C     0.22431   0.68871   0.37233   0.00000  Uiso   1.00
C205   C     0.27725   0.72179   0.16711   0.00000  Uiso   1.00
C206   C     0.34544   0.75861   0.14083   0.00000  Uiso   1.00
C207   C     0.38868   0.69566   0.10447   0.00000  Uiso   1.00
H208   H     0.15796   0.52560   0.18304   0.00000  Uiso   1.00
H209   H     0.02482   0.57871   0.13549   0.00000  Uiso   1.00
H210   H     0.16479   0.48318   0.29737   0.00000  Uiso   1.00
H211   H     0.27754   0.48795   0.11359   0.00000  Uiso   1.00
H212   H     0.88784   0.68006   0.08706   0.00000  Uiso   1.00
H213   H     0.18300   0.47861   0.42839   0.00000  Uiso   1.00
H214   H     0.42077   0.48868   0.04087   0.00000  Uiso   1.00
H215   H     0.24003   0.85282   0.21599   0.00000  Uiso   1.00
H216   H     0.11138   0.92390   0.17024   0.00000  Uiso   1.00
H217   H     0.25135   0.82836   0.33212   0.00000  Uiso   1.00
H218   H     0.36411   0.83313   0.14835   0.00000  Uiso   1.00
H219   H     0.95810   0.96023   0.11527   0.00000  Uiso   1.00
H220   H     0.25326   0.75877   0.45660   0.00000  Uiso   1.00
H221   H     0.49103   0.76885   0.06908   0.00000  Uiso   1.00
O222   O     0.83686   0.86099   0.07050   0.00000  Uiso   1.00
O223   O     0.22410   0.59669   0.51831   0.00000  Uiso   1.00
O224   O     0.53605   0.60990   0.00988   0.00000  Uiso   1.00
N225   N     0.92204   0.73624   0.09997   0.00000  Uiso   1.00
N226   N     0.19798   0.54791   0.41909   0.00000  Uiso   1.00
N227   N     0.42029   0.55731   0.05680   0.00000  Uiso   1.00
N228   N     0.95985   0.88700   0.11515   0.00000  Uiso   1.00
N229   N     0.23579   0.69866   0.43427   0.00000  Uiso   1.00
N230   N     0.45809   0.70807   0.07198   0.00000  Uiso   1.00
C231   C     0.32324   0.39943   0.69059   0.00000  Uiso   1.00
C232   C     0.38419   0.32520   0.66931   0.00000  Uiso   1.00
C233   C     0.45651   0.34676   0.64298   0.00000  Uiso   1.00
C234   C     0.50389   0.26852   0.62667   0.00000  Uiso   1.00
C235   C     0.60223   0.16790   0.59219   0.00000  Uiso   1.00
C236   C     0.30816   0.37710   0.75727   0.00000  Uiso   1.00
C237   C     0.31653   0.44231   0.80489   0.00000  Uiso   1.00
C238   C     0.29988   0.40776   0.86261   0.00000  Uiso   1.00
C239   C     0.28012   0.38775   0.96468   0.00000  Uiso   1.00
C240   C     0.24690   0.37451   0.65742   0.00000  Uiso   1.00
C241   C     0.20375   0.43754   0.62109   0.00000  Uiso   1.00
C242   C     0.13552   0.40081   0.59475   0.00000  Uiso   1.00
C243   C     0.02064   0.37676   0.54178   0.00000  Uiso   1.00
C244   C     0.27878   0.22215   0.70844   0.00000  Uiso   1.00
C245   C     0.36004   0.22891   0.67901   0.00000  Uiso   1.00
C246   C     0.40732   0.15061   0.66273   0.00000  Uiso   1.00
C247   C     0.47969   0.17205   0.63638   0.00000  Uiso   1.00
C248   C     0.28401   0.28081   0.76697   0.00000  Uiso   1.00
C249   C     0.26734   0.24616   0.82464   0.00000  Uiso   1.00
C250   C     0.27569   0.31129   0.87233   0.00000  Uiso   1.00
C251   C     0.22275   0.27821   0.66711   0.00000  Uiso   1.00
C252   C     0.15456   0.24139   0.64083   0.00000  Uiso   1.00
C253   C     0.11132   0.30434   0.60447   0.00000  Uiso   1.00
H254   H     0.34204   0.47440   0.68304   0.00000  Uiso   1.00
H255   H     0.47518   0.42129   0.63549   0.00000  Uiso   1.00
H256   H     0.33521   0.51682   0.79737   0.00000  Uiso   1.00
H257   H     0.22246   0.51205   0.61359   0.00000  Uiso   1.00
H258   H     0.61216   0.31994   0.58706   0.00000  Uiso   1.00
H259   H     0.31700   0.52139   0.92839   0.00000  Uiso   1.00
H260   H     0.07923   0.51132   0.54087   0.00000  Uiso   1.00
H261   H     0.25997   0.14718   0.71599   0.00000  Uiso   1.00
H262   H     0.38862   0.07610   0.67024   0.00000  Uiso   1.00
H263   H     0.24865   0.17164   0.83212   0.00000  Uiso   1.00
H264   H     0.13589   0.16687   0.64835   0.00000  Uiso   1.00
H265   H     0.54190   0.03977   0.61527   0.00000  Uiso   1.00
H266   H     0.24674   0.24123   0.95660   0.00000  Uiso   1.00
H267   H     0.00897   0.23115   0.56908   0.00000  Uiso   1.00
O268   O     0.66314   0.13901   0.57050   0.00000  Uiso   1.00
O269   O     0.27590   0.40331   0.01831   0.00000  Uiso   1.00
O270   O     0.96395   0.39010   0.50988   0.00000  Uiso   1.00
N271   N     0.57796   0.26376   0.59997   0.00000  Uiso   1.00
N272   N     0.30202   0.45209   0.91909   0.00000  Uiso   1.00
N273   N     0.07971   0.44269   0.55680   0.00000  Uiso   1.00
N274   N     0.54015   0.11300   0.61515   0.00000  Uiso   1.00
N275   N     0.26421   0.30134   0.93427   0.00000  Uiso   1.00
N276   N     0.04191   0.29193   0.57198   0.00000  Uiso   1.00
C277   C     0.82324   0.10057   0.30941   0.00000  Uiso   1.00
C278   C     0.88419   0.17480   0.33069   0.00000  Uiso   1.00
C279   C     0.95651   0.15324   0.35702   0.00000  Uiso   1.00
C280   C     0.00389   0.23148   0.37333   0.00000  Uiso   1.00
C281   C     0.10223   0.33210   0.40781   0.00000  Uiso   1.00
C282   C     0.80816   0.12290   0.24273   0.00000  Uiso   1.00
C283   C     0.81653   0.05769   0.19511   0.00000  Uiso   1.00
C284   C     0.79988   0.09224   0.13739   0.00000  Uiso   1.00
C285   C     0.78012   0.11225   0.03532   0.00000  Uiso   1.00
C286   C     0.74690   0.12549   0.34258   0.00000  Uiso   1.00
C287   C     0.70375   0.06246   0.37891   0.00000  Uiso   1.00
C288   C     0.63552   0.09919   0.40525   0.00000  Uiso   1.00
C289   C     0.52064   0.12324   0.45822   0.00000  Uiso   1.00
C290   C     0.77878   0.27785   0.29156   0.00000  Uiso   1.00
C291   C     0.86004   0.27109   0.32099   0.00000  Uiso   1.00
C292   C     0.90732   0.34939   0.33727   0.00000  Uiso   1.00
C293   C     0.97969   0.32795   0.36362   0.00000  Uiso   1.00
C294   C     0.78401   0.21919   0.23303   0.00000  Uiso   1.00
C295   C     0.76734   0.25384   0.17536   0.00000  Uiso   1.00
C296   C     0.77569   0.18871   0.12767   0.00000  Uiso   1.00
C297   C     0.72275   0.22179   0.33289   0.00000  Uiso   1.00
C298   C     0.65456   0.25861   0.35917   0.00000  Uiso   1.00
C299   C     0.61132   0.19566   0.39553   0.00000  Uiso   1.00
H300   H     0.84204   0.02560   0.31696   0.00000  Uiso   1.00
H301   H     0.97518   0.07871   0.36451   0.00000  Uiso   1.00
H302   H     0.83521   0.98318   0.20263   0.00000  Uiso   1.00
H303   H     0.72246   0.98795   0.38641   0.00000  Uiso   1.00
H304   H     0.11216   0.18006   0.41294   0.00000  Uiso   1.00
H305   H     0.81700   0.97861   0.07161   0.00000  Uiso   1.00
H306   H     0.57923   0.98868   0.45913   0.00000  Uiso   1.00
H307   H     0.75997   0.35282   0.28401   0.00000  Uiso   1.00
H308   H     0.88862   0.42390   0.32976   0.00000  Uiso   1.00
H309   H     0.74865   0.32836   0.16788   0.00000  Uiso   1.00
H310   H     0.63589   0.33313   0.35165   0.00000  Uiso   1.00
H311   H     0.04190   0.46023   0.38473   0.00000  Uiso   1.00
H312   H     0.74674   0.25877   0.04340   0.00000  Uiso   1.00
H313   H     0.50897   0.26885   0.43092   0.00000  Uiso   1.00
O314   O     0.16314   0.36099   0.42950   0.00000  Uiso   1.00
O315   O     0.77590   0.09669   0.98169   0.00000  Uiso   1.00
O316   O     0.46395   0.10990   0.49012   0.00000  Uiso   1.00
N317   N     0.07796   0.23624   0.40003   0.00000  Uiso   1.00
N318   N     0.80202   0.04791   0.08091   0.00000  Uiso   1.00
N319   N     0.57971   0.05731   0.44320   0.00000  Uiso   1.00
N320   N     0.04015   0.38700   0.38485   0.00000  Uiso   1.00
N321   N     0.76421   0.19866   0.06573   0.00000  Uiso   1.00
N322   N     0.54191   0.20807   0.42802   0.00000  Uiso   1.00
C323   C     0.67676   0.89943   0.80941   0.00000  Uiso   1.00
C324   C     0.61581   0.82520   0.83069   0.00000  Uiso   1.00
C325   C     0.54349   0.84676   0.85702   0.00000  Uiso   1.00
C326   C     0.49611   0.76852   0.87333   0.00000  Uiso   1.00
C327   C     0.39777   0.66790   0.90781   0.00000  Uiso   1.00
C328   C     0.69184   0.87710   0.74273   0.00000  Uiso   1.00
C329   C     0.68347   0.94231   0.69511   0.00000  Uiso   1.00
C330   C     0.70012   0.90776   0.63739   0.00000  Uiso   1.00
C331   C     0.71988   0.88775   0.53532   0.00000  Uiso   1.00
C332   C     0.75310   0.87451   0.84258   0.00000  Uiso   1.00
C333   C     0.79625   0.93754   0.87891   0.00000  Uiso   1.00
C334   C     0.86448   0.90081   0.90525   0.00000  Uiso   1.00
C335   C     0.97936   0.87676   0.95822   0.00000  Uiso   1.00
C336   C     0.72122   0.72215   0.79156   0.00000  Uiso   1.00
C337   C     0.63996   0.72891   0.82099   0.00000  Uiso   1.00
C338   C     0.59268   0.65061   0.83727   0.00000  Uiso   1.00
C339   C     0.52031   0.67205   0.86362   0.00000  Uiso   1.00
C340   C     0.71599   0.78081   0.73303   0.00000  Uiso   1.00
C341   C     0.73266   0.74616   0.67536   0.00000  Uiso   1.00
C342   C     0.72431   0.81129   0.62767   0.00000  Uiso   1.00
C343   C     0.77725   0.77821   0.83289   0.00000  Uiso   1.00
C344   C     0.84544   0.74139   0.85917   0.00000  Uiso   1.00
C345   C     0.88868   0.80434   0.89553   0.00000  Uiso   1.00
H346   H     0.65796   0.97440   0.81696   0.00000  Uiso   1.00
H347   H     0.52482   0.92129   0.86451   0.00000  Uiso   1.00
H348   H     0.66479   0.01682   0.70263   0.00000  Uiso   1.00
H349   H     0.77754   0.01205   0.88641   0.00000  Uiso   1.00
H350   H     0.38784   0.81994   0.91294   0.00000  Uiso   1.00
H351   H     0.68300   0.02139   0.57161   0.00000  Uiso   1.00
H352   H     0.92077   0.01132   0.95913   0.00000  Uiso   1.00
H353   H     0.74003   0.64718   0.78401   0.00000  Uiso   1.00
H354   H     0.61138   0.57610   0.82976   0.00000  Uiso   1.00
H355   H     0.75135   0.67164   0.66788   0.00000  Uiso   1.00
H356   H     0.86411   0.66687   0.85165   0.00000  Uiso   1.00
H357   H     0.45810   0.53977   0.88473   0.00000  Uiso   1.00
H358   H     0.75326   0.74123   0.54340   0.00000  Uiso   1.00
H359   H     0.99103   0.73115   0.93092   0.00000  Uiso   1.00
O360   O     0.33686   0.63901   0.92950   0.00000  Uiso   1.00
O361   O     0.72410   0.90331   0.48169   0.00000  Uiso   1.00
O362   O     0.03605   0.89010   0.99012   0.00000  Uiso   1.00
N363   N     0.42204   0.76376   0.90003   0.00000  Uiso   1.00
N364   N     0.69798   0.95209   0.58091   0.00000  Uiso   1.00
N365   N     0.92029   0.94269   0.94320   0.00000  Uiso   1.00
N366   N     0.45985   0.61300   0.88485   0.00000  Uiso   1.00
N367   N     0.73579   0.80134   0.56573   0.00000  Uiso   1.00
N368   N     0.95809   0.79193   0.92802   0.00000  Uiso   1.00
