data_job_00585
_audit_creation_date              2018-12-19
_audit_creation_method            'Materials Studio'
_symmetry_space_group_name_H-M    'P1'
_symmetry_Int_Tables_number       1
_symmetry_cell_setting            triclinic
loop_
_symmetry_equiv_pos_as_xyz
  x,y,z
_cell_length_a                    13.2675
_cell_length_b                    21.8552
_cell_length_c                    18.0153
_cell_angle_alpha                 90.0000
_cell_angle_beta                  90.0000
_cell_angle_gamma                 90.0000
loop_
_atom_site_label
_atom_site_type_symbol
_atom_site_fract_x
_atom_site_fract_y
_atom_site_fract_z
_atom_site_U_iso_or_equiv
_atom_site_adp_type
_atom_site_occupancy
C1     C     0.86415   0.67833   0.16739   0.00000  Uiso   1.00
C2     C     0.94065   0.65954   0.10847   0.00000  Uiso   1.00
C3     C     0.91793   0.63710   0.03838   0.00000  Uiso   1.00
C4     C     0.99864   0.62251   0.99263   0.00000  Uiso   1.00
C5     C     0.10223   0.59214   0.89757   0.00000  Uiso   1.00
C6     C     0.88896   0.64056   0.23618   0.00000  Uiso   1.00
C7     C     0.82278   0.60217   0.27346   0.00000  Uiso   1.00
C8     C     0.85998   0.57161   0.33523   0.00000  Uiso   1.00
C9     C     0.88331   0.51181   0.43846   0.00000  Uiso   1.00
C10    C     0.88877   0.74448   0.18728   0.00000  Uiso   1.00
C11    C     0.82243   0.79348   0.18346   0.00000  Uiso   1.00
C12    C     0.85947   0.85042   0.20407   0.00000  Uiso   1.00
C13    C     0.88250   0.95198   0.23138   0.00000  Uiso   1.00
C14    C     0.04789   0.69233   0.21079   0.00000  Uiso   1.00
C15    C     0.04045   0.66714   0.13205   0.00000  Uiso   1.00
C16    C     0.12122   0.65258   0.08639   0.00000  Uiso   1.00
C17    C     0.09862   0.63013   0.01624   0.00000  Uiso   1.00
C18    C     0.98876   0.64816   0.25975   0.00000  Uiso   1.00
C19    C     0.02606   0.61765   0.32148   0.00000  Uiso   1.00
C20    C     0.95996   0.57922   0.35884   0.00000  Uiso   1.00
C21    C     0.98857   0.75209   0.21085   0.00000  Uiso   1.00
C22    C     0.02572   0.80896   0.23147   0.00000  Uiso   1.00
C23    C     0.95944   0.85803   0.22769   0.00000  Uiso   1.00
H24    H     0.78646   0.67241   0.14905   0.00000  Uiso   1.00
H25    H     0.84068   0.63122   0.02016   0.00000  Uiso   1.00
H26    H     0.74555   0.59630   0.25521   0.00000  Uiso   1.00
H27    H     0.74520   0.78758   0.16522   0.00000  Uiso   1.00
H28    H     0.94482   0.58888   0.88767   0.00000  Uiso   1.00
H29    H     0.74421   0.51527   0.38331   0.00000  Uiso   1.00
H30    H     0.74347   0.91861   0.19354   0.00000  Uiso   1.00
H31    H     0.12560   0.69825   0.22915   0.00000  Uiso   1.00
H32    H     0.19844   0.65847   0.10465   0.00000  Uiso   1.00
H33    H     0.10330   0.62355   0.33971   0.00000  Uiso   1.00
H34    H     0.10295   0.81483   0.24971   0.00000  Uiso   1.00
H35    H     0.23519   0.61099   0.95625   0.00000  Uiso   1.00
H36    H     0.03457   0.53738   0.45189   0.00000  Uiso   1.00
H37    H     0.03384   0.94073   0.26212   0.00000  Uiso   1.00
O38    O     0.13180   0.57329   0.83862   0.00000  Uiso   1.00
O39    O     0.86860   0.47672   0.48889   0.00000  Uiso   1.00
O40    O     0.86764   0.00590   0.23992   0.00000  Uiso   1.00
N41    N     0.00316   0.59955   0.92089   0.00000  Uiso   1.00
N42    N     0.81561   0.53072   0.38427   0.00000  Uiso   1.00
N43    N     0.81491   0.90782   0.20688   0.00000  Uiso   1.00
N44    N     0.15940   0.61146   0.95779   0.00000  Uiso   1.00
N45    N     0.97185   0.54262   0.42117   0.00000  Uiso   1.00
N46    N     0.97115   0.91972   0.24378   0.00000  Uiso   1.00
C47    C     0.63585   0.32167   0.66739   0.00000  Uiso   1.00
C48    C     0.55935   0.34046   0.60847   0.00000  Uiso   1.00
C49    C     0.58207   0.36290   0.53838   0.00000  Uiso   1.00
C50    C     0.50136   0.37749   0.49263   0.00000  Uiso   1.00
C51    C     0.39777   0.40786   0.39757   0.00000  Uiso   1.00
C52    C     0.61104   0.35944   0.73618   0.00000  Uiso   1.00
C53    C     0.67722   0.39783   0.77346   0.00000  Uiso   1.00
C54    C     0.64002   0.42839   0.83523   0.00000  Uiso   1.00
C55    C     0.61669   0.48819   0.93846   0.00000  Uiso   1.00
C56    C     0.61123   0.25552   0.68728   0.00000  Uiso   1.00
C57    C     0.67757   0.20652   0.68346   0.00000  Uiso   1.00
C58    C     0.64053   0.14958   0.70407   0.00000  Uiso   1.00
C59    C     0.61750   0.04802   0.73138   0.00000  Uiso   1.00
C60    C     0.45211   0.30767   0.71079   0.00000  Uiso   1.00
C61    C     0.45955   0.33286   0.63205   0.00000  Uiso   1.00
C62    C     0.37878   0.34742   0.58639   0.00000  Uiso   1.00
C63    C     0.40138   0.36987   0.51624   0.00000  Uiso   1.00
C64    C     0.51124   0.35184   0.75975   0.00000  Uiso   1.00
C65    C     0.47394   0.38235   0.82148   0.00000  Uiso   1.00
C66    C     0.54004   0.42078   0.85884   0.00000  Uiso   1.00
C67    C     0.51143   0.24791   0.71085   0.00000  Uiso   1.00
C68    C     0.47428   0.19104   0.73147   0.00000  Uiso   1.00
C69    C     0.54056   0.14197   0.72769   0.00000  Uiso   1.00
H70    H     0.71354   0.32759   0.64905   0.00000  Uiso   1.00
H71    H     0.65932   0.36878   0.52016   0.00000  Uiso   1.00
H72    H     0.75445   0.40370   0.75521   0.00000  Uiso   1.00
H73    H     0.75480   0.21242   0.66522   0.00000  Uiso   1.00
H74    H     0.55518   0.41112   0.38767   0.00000  Uiso   1.00
H75    H     0.75579   0.48473   0.88331   0.00000  Uiso   1.00
H76    H     0.75653   0.08139   0.69354   0.00000  Uiso   1.00
H77    H     0.37440   0.30175   0.72915   0.00000  Uiso   1.00
H78    H     0.30156   0.34153   0.60465   0.00000  Uiso   1.00
H79    H     0.39670   0.37645   0.83971   0.00000  Uiso   1.00
H80    H     0.39705   0.18517   0.74971   0.00000  Uiso   1.00
H81    H     0.26481   0.38901   0.45625   0.00000  Uiso   1.00
H82    H     0.46543   0.46262   0.95189   0.00000  Uiso   1.00
H83    H     0.46616   0.05927   0.76212   0.00000  Uiso   1.00
O84    O     0.36820   0.42671   0.33862   0.00000  Uiso   1.00
O85    O     0.63140   0.52328   0.98889   0.00000  Uiso   1.00
O86    O     0.63236   0.99410   0.73992   0.00000  Uiso   1.00
N87    N     0.49684   0.40045   0.42089   0.00000  Uiso   1.00
N88    N     0.68439   0.46928   0.88427   0.00000  Uiso   1.00
N89    N     0.68509   0.09218   0.70688   0.00000  Uiso   1.00
N90    N     0.34060   0.38854   0.45779   0.00000  Uiso   1.00
N91    N     0.52815   0.45738   0.92117   0.00000  Uiso   1.00
N92    N     0.52885   0.08028   0.74378   0.00000  Uiso   1.00
C93    C     0.13585   0.17833   0.33261   0.00000  Uiso   1.00
C94    C     0.05935   0.15954   0.39153   0.00000  Uiso   1.00
C95    C     0.08207   0.13710   0.46162   0.00000  Uiso   1.00
C96    C     0.00136   0.12251   0.50737   0.00000  Uiso   1.00
C97    C     0.89777   0.09214   0.60243   0.00000  Uiso   1.00
C98    C     0.11104   0.14056   0.26382   0.00000  Uiso   1.00
C99    C     0.17722   0.10217   0.22654   0.00000  Uiso   1.00
C100   C     0.14002   0.07161   0.16477   0.00000  Uiso   1.00
C101   C     0.11669   0.01181   0.06154   0.00000  Uiso   1.00
C102   C     0.11123   0.24448   0.31272   0.00000  Uiso   1.00
C103   C     0.17757   0.29348   0.31654   0.00000  Uiso   1.00
C104   C     0.14053   0.35042   0.29593   0.00000  Uiso   1.00
C105   C     0.11750   0.45198   0.26862   0.00000  Uiso   1.00
C106   C     0.95211   0.19233   0.28921   0.00000  Uiso   1.00
C107   C     0.95955   0.16714   0.36795   0.00000  Uiso   1.00
C108   C     0.87878   0.15258   0.41361   0.00000  Uiso   1.00
C109   C     0.90138   0.13013   0.48376   0.00000  Uiso   1.00
C110   C     0.01124   0.14816   0.24025   0.00000  Uiso   1.00
C111   C     0.97394   0.11765   0.17852   0.00000  Uiso   1.00
C112   C     0.04004   0.07922   0.14116   0.00000  Uiso   1.00
C113   C     0.01143   0.25209   0.28915   0.00000  Uiso   1.00
C114   C     0.97428   0.30896   0.26853   0.00000  Uiso   1.00
C115   C     0.04056   0.35803   0.27231   0.00000  Uiso   1.00
H116   H     0.21354   0.17241   0.35095   0.00000  Uiso   1.00
H117   H     0.15932   0.13122   0.47984   0.00000  Uiso   1.00
H118   H     0.25445   0.09630   0.24479   0.00000  Uiso   1.00
H119   H     0.25480   0.28758   0.33478   0.00000  Uiso   1.00
H120   H     0.05518   0.08888   0.61233   0.00000  Uiso   1.00
H121   H     0.25579   0.01527   0.11669   0.00000  Uiso   1.00
H122   H     0.25653   0.41861   0.30646   0.00000  Uiso   1.00
H123   H     0.87440   0.19825   0.27085   0.00000  Uiso   1.00
H124   H     0.80156   0.15847   0.39535   0.00000  Uiso   1.00
H125   H     0.89670   0.12355   0.16029   0.00000  Uiso   1.00
H126   H     0.89705   0.31483   0.25029   0.00000  Uiso   1.00
H127   H     0.76481   0.11099   0.54375   0.00000  Uiso   1.00
H128   H     0.96543   0.03738   0.04811   0.00000  Uiso   1.00
H129   H     0.96616   0.44073   0.23788   0.00000  Uiso   1.00
O130   O     0.86820   0.07329   0.66138   0.00000  Uiso   1.00
O131   O     0.13140   0.97672   0.01111   0.00000  Uiso   1.00
O132   O     0.13236   0.50590   0.26008   0.00000  Uiso   1.00
N133   N     0.99684   0.09955   0.57911   0.00000  Uiso   1.00
N134   N     0.18439   0.03072   0.11573   0.00000  Uiso   1.00
N135   N     0.18509   0.40782   0.29312   0.00000  Uiso   1.00
N136   N     0.84060   0.11146   0.54221   0.00000  Uiso   1.00
N137   N     0.02815   0.04262   0.07883   0.00000  Uiso   1.00
N138   N     0.02885   0.41972   0.25622   0.00000  Uiso   1.00
C139   C     0.36415   0.82167   0.83261   0.00000  Uiso   1.00
C140   C     0.44065   0.84046   0.89153   0.00000  Uiso   1.00
C141   C     0.41793   0.86290   0.96162   0.00000  Uiso   1.00
C142   C     0.49864   0.87749   0.00737   0.00000  Uiso   1.00
C143   C     0.60223   0.90786   0.10243   0.00000  Uiso   1.00
C144   C     0.38896   0.85944   0.76382   0.00000  Uiso   1.00
C145   C     0.32278   0.89783   0.72654   0.00000  Uiso   1.00
C146   C     0.35998   0.92839   0.66477   0.00000  Uiso   1.00
C147   C     0.38331   0.98819   0.56154   0.00000  Uiso   1.00
C148   C     0.38877   0.75552   0.81272   0.00000  Uiso   1.00
C149   C     0.32243   0.70652   0.81654   0.00000  Uiso   1.00
C150   C     0.35947   0.64958   0.79593   0.00000  Uiso   1.00
C151   C     0.38250   0.54802   0.76862   0.00000  Uiso   1.00
C152   C     0.54789   0.80767   0.78921   0.00000  Uiso   1.00
C153   C     0.54045   0.83286   0.86795   0.00000  Uiso   1.00
C154   C     0.62122   0.84742   0.91361   0.00000  Uiso   1.00
C155   C     0.59862   0.86987   0.98376   0.00000  Uiso   1.00
C156   C     0.48876   0.85184   0.74025   0.00000  Uiso   1.00
C157   C     0.52606   0.88235   0.67852   0.00000  Uiso   1.00
C158   C     0.45996   0.92078   0.64116   0.00000  Uiso   1.00
C159   C     0.48857   0.74791   0.78915   0.00000  Uiso   1.00
C160   C     0.52572   0.69104   0.76853   0.00000  Uiso   1.00
C161   C     0.45944   0.64197   0.77231   0.00000  Uiso   1.00
H162   H     0.28646   0.82759   0.85095   0.00000  Uiso   1.00
H163   H     0.34068   0.86878   0.97984   0.00000  Uiso   1.00
H164   H     0.24555   0.90370   0.74479   0.00000  Uiso   1.00
H165   H     0.24520   0.71242   0.83478   0.00000  Uiso   1.00
H166   H     0.44482   0.91112   0.11233   0.00000  Uiso   1.00
H167   H     0.24421   0.98473   0.61669   0.00000  Uiso   1.00
H168   H     0.24347   0.58139   0.80646   0.00000  Uiso   1.00
H169   H     0.62560   0.80175   0.77085   0.00000  Uiso   1.00
H170   H     0.69844   0.84153   0.89535   0.00000  Uiso   1.00
H171   H     0.60330   0.87645   0.66029   0.00000  Uiso   1.00
H172   H     0.60295   0.68517   0.75029   0.00000  Uiso   1.00
H173   H     0.73519   0.88901   0.04375   0.00000  Uiso   1.00
H174   H     0.53457   0.96262   0.54811   0.00000  Uiso   1.00
H175   H     0.53384   0.55927   0.73788   0.00000  Uiso   1.00
O176   O     0.63180   0.92671   0.16138   0.00000  Uiso   1.00
O177   O     0.36860   0.02328   0.51111   0.00000  Uiso   1.00
O178   O     0.36764   0.49410   0.76008   0.00000  Uiso   1.00
N179   N     0.50316   0.90045   0.07911   0.00000  Uiso   1.00
N180   N     0.31561   0.96928   0.61573   0.00000  Uiso   1.00
N181   N     0.31491   0.59218   0.79312   0.00000  Uiso   1.00
N182   N     0.65940   0.88854   0.04221   0.00000  Uiso   1.00
N183   N     0.47185   0.95738   0.57883   0.00000  Uiso   1.00
N184   N     0.47115   0.58028   0.75622   0.00000  Uiso   1.00
C185   C     0.13585   0.32167   0.83261   0.00000  Uiso   1.00
C186   C     0.05935   0.34046   0.89153   0.00000  Uiso   1.00
C187   C     0.08207   0.36290   0.96162   0.00000  Uiso   1.00
C188   C     0.00136   0.37749   0.00737   0.00000  Uiso   1.00
C189   C     0.89777   0.40786   0.10243   0.00000  Uiso   1.00
C190   C     0.11104   0.35944   0.76382   0.00000  Uiso   1.00
C191   C     0.17722   0.39783   0.72654   0.00000  Uiso   1.00
C192   C     0.14002   0.42839   0.66477   0.00000  Uiso   1.00
C193   C     0.11669   0.48819   0.56154   0.00000  Uiso   1.00
C194   C     0.11123   0.25552   0.81272   0.00000  Uiso   1.00
C195   C     0.17757   0.20652   0.81654   0.00000  Uiso   1.00
C196   C     0.14053   0.14958   0.79593   0.00000  Uiso   1.00
C197   C     0.11750   0.04802   0.76862   0.00000  Uiso   1.00
C198   C     0.95211   0.30767   0.78921   0.00000  Uiso   1.00
C199   C     0.95955   0.33286   0.86795   0.00000  Uiso   1.00
C200   C     0.87878   0.34742   0.91361   0.00000  Uiso   1.00
C201   C     0.90138   0.36987   0.98376   0.00000  Uiso   1.00
C202   C     0.01124   0.35184   0.74025   0.00000  Uiso   1.00
C203   C     0.97394   0.38235   0.67852   0.00000  Uiso   1.00
C204   C     0.04004   0.42078   0.64116   0.00000  Uiso   1.00
C205   C     0.01143   0.24791   0.78915   0.00000  Uiso   1.00
C206   C     0.97428   0.19104   0.76853   0.00000  Uiso   1.00
C207   C     0.04056   0.14197   0.77231   0.00000  Uiso   1.00
H208   H     0.21354   0.32759   0.85095   0.00000  Uiso   1.00
H209   H     0.15932   0.36878   0.97984   0.00000  Uiso   1.00
H210   H     0.25445   0.40370   0.74479   0.00000  Uiso   1.00
H211   H     0.25480   0.21242   0.83478   0.00000  Uiso   1.00
H212   H     0.05518   0.41112   0.11233   0.00000  Uiso   1.00
H213   H     0.25579   0.48473   0.61669   0.00000  Uiso   1.00
H214   H     0.25653   0.08139   0.80646   0.00000  Uiso   1.00
H215   H     0.87440   0.30175   0.77085   0.00000  Uiso   1.00
H216   H     0.80156   0.34153   0.89535   0.00000  Uiso   1.00
H217   H     0.89670   0.37645   0.66029   0.00000  Uiso   1.00
H218   H     0.89705   0.18517   0.75029   0.00000  Uiso   1.00
H219   H     0.76481   0.38901   0.04375   0.00000  Uiso   1.00
H220   H     0.96543   0.46262   0.54811   0.00000  Uiso   1.00
H221   H     0.96616   0.05927   0.73788   0.00000  Uiso   1.00
O222   O     0.86820   0.42671   0.16138   0.00000  Uiso   1.00
O223   O     0.13140   0.52328   0.51111   0.00000  Uiso   1.00
O224   O     0.13236   0.99410   0.76008   0.00000  Uiso   1.00
N225   N     0.99684   0.40045   0.07911   0.00000  Uiso   1.00
N226   N     0.18439   0.46928   0.61573   0.00000  Uiso   1.00
N227   N     0.18509   0.09218   0.79312   0.00000  Uiso   1.00
N228   N     0.84060   0.38854   0.04221   0.00000  Uiso   1.00
N229   N     0.02815   0.45738   0.57883   0.00000  Uiso   1.00
N230   N     0.02885   0.08028   0.75622   0.00000  Uiso   1.00
C231   C     0.36415   0.67833   0.33261   0.00000  Uiso   1.00
C232   C     0.44065   0.65954   0.39153   0.00000  Uiso   1.00
C233   C     0.41793   0.63710   0.46162   0.00000  Uiso   1.00
C234   C     0.49864   0.62251   0.50737   0.00000  Uiso   1.00
C235   C     0.60223   0.59214   0.60243   0.00000  Uiso   1.00
C236   C     0.38896   0.64056   0.26382   0.00000  Uiso   1.00
C237   C     0.32278   0.60217   0.22654   0.00000  Uiso   1.00
C238   C     0.35998   0.57161   0.16477   0.00000  Uiso   1.00
C239   C     0.38331   0.51181   0.06154   0.00000  Uiso   1.00
C240   C     0.38877   0.74448   0.31272   0.00000  Uiso   1.00
C241   C     0.32243   0.79348   0.31654   0.00000  Uiso   1.00
C242   C     0.35947   0.85042   0.29593   0.00000  Uiso   1.00
C243   C     0.38250   0.95198   0.26862   0.00000  Uiso   1.00
C244   C     0.54789   0.69233   0.28921   0.00000  Uiso   1.00
C245   C     0.54045   0.66714   0.36795   0.00000  Uiso   1.00
C246   C     0.62122   0.65258   0.41361   0.00000  Uiso   1.00
C247   C     0.59862   0.63013   0.48376   0.00000  Uiso   1.00
C248   C     0.48876   0.64816   0.24025   0.00000  Uiso   1.00
C249   C     0.52606   0.61765   0.17852   0.00000  Uiso   1.00
C250   C     0.45996   0.57922   0.14116   0.00000  Uiso   1.00
C251   C     0.48857   0.75209   0.28915   0.00000  Uiso   1.00
C252   C     0.52572   0.80896   0.26853   0.00000  Uiso   1.00
C253   C     0.45944   0.85803   0.27231   0.00000  Uiso   1.00
H254   H     0.28646   0.67241   0.35095   0.00000  Uiso   1.00
H255   H     0.34068   0.63122   0.47984   0.00000  Uiso   1.00
H256   H     0.24555   0.59630   0.24479   0.00000  Uiso   1.00
H257   H     0.24520   0.78758   0.33478   0.00000  Uiso   1.00
H258   H     0.44482   0.58888   0.61233   0.00000  Uiso   1.00
H259   H     0.24421   0.51527   0.11669   0.00000  Uiso   1.00
H260   H     0.24347   0.91861   0.30646   0.00000  Uiso   1.00
H261   H     0.62560   0.69825   0.27085   0.00000  Uiso   1.00
H262   H     0.69844   0.65847   0.39535   0.00000  Uiso   1.00
H263   H     0.60330   0.62355   0.16029   0.00000  Uiso   1.00
H264   H     0.60295   0.81483   0.25029   0.00000  Uiso   1.00
H265   H     0.73519   0.61099   0.54375   0.00000  Uiso   1.00
H266   H     0.53457   0.53738   0.04811   0.00000  Uiso   1.00
H267   H     0.53384   0.94073   0.23788   0.00000  Uiso   1.00
O268   O     0.63180   0.57329   0.66138   0.00000  Uiso   1.00
O269   O     0.36860   0.47672   0.01111   0.00000  Uiso   1.00
O270   O     0.36764   0.00590   0.26008   0.00000  Uiso   1.00
N271   N     0.50316   0.59955   0.57911   0.00000  Uiso   1.00
N272   N     0.31561   0.53072   0.11573   0.00000  Uiso   1.00
N273   N     0.31491   0.90782   0.29312   0.00000  Uiso   1.00
N274   N     0.65940   0.61146   0.54221   0.00000  Uiso   1.00
N275   N     0.47185   0.54262   0.07883   0.00000  Uiso   1.00
N276   N     0.47115   0.91972   0.25622   0.00000  Uiso   1.00
C277   C     0.86415   0.82167   0.66739   0.00000  Uiso   1.00
C278   C     0.94065   0.84046   0.60847   0.00000  Uiso   1.00
C279   C     0.91793   0.86290   0.53838   0.00000  Uiso   1.00
C280   C     0.99864   0.87749   0.49263   0.00000  Uiso   1.00
C281   C     0.10223   0.90786   0.39757   0.00000  Uiso   1.00
C282   C     0.88896   0.85944   0.73618   0.00000  Uiso   1.00
C283   C     0.82278   0.89783   0.77346   0.00000  Uiso   1.00
C284   C     0.85998   0.92839   0.83523   0.00000  Uiso   1.00
C285   C     0.88331   0.98819   0.93846   0.00000  Uiso   1.00
C286   C     0.88877   0.75552   0.68728   0.00000  Uiso   1.00
C287   C     0.82243   0.70652   0.68346   0.00000  Uiso   1.00
C288   C     0.85947   0.64958   0.70407   0.00000  Uiso   1.00
C289   C     0.88250   0.54802   0.73138   0.00000  Uiso   1.00
C290   C     0.04789   0.80767   0.71079   0.00000  Uiso   1.00
C291   C     0.04045   0.83286   0.63205   0.00000  Uiso   1.00
C292   C     0.12122   0.84742   0.58639   0.00000  Uiso   1.00
C293   C     0.09862   0.86987   0.51624   0.00000  Uiso   1.00
C294   C     0.98876   0.85184   0.75975   0.00000  Uiso   1.00
C295   C     0.02606   0.88235   0.82148   0.00000  Uiso   1.00
C296   C     0.95996   0.92078   0.85884   0.00000  Uiso   1.00
C297   C     0.98857   0.74791   0.71085   0.00000  Uiso   1.00
C298   C     0.02572   0.69104   0.73147   0.00000  Uiso   1.00
C299   C     0.95944   0.64197   0.72769   0.00000  Uiso   1.00
H300   H     0.78646   0.82759   0.64905   0.00000  Uiso   1.00
H301   H     0.84068   0.86878   0.52016   0.00000  Uiso   1.00
H302   H     0.74555   0.90370   0.75521   0.00000  Uiso   1.00
H303   H     0.74520   0.71242   0.66522   0.00000  Uiso   1.00
H304   H     0.94482   0.91112   0.38767   0.00000  Uiso   1.00
H305   H     0.74421   0.98473   0.88331   0.00000  Uiso   1.00
H306   H     0.74347   0.58139   0.69354   0.00000  Uiso   1.00
H307   H     0.12560   0.80175   0.72915   0.00000  Uiso   1.00
H308   H     0.19844   0.84153   0.60465   0.00000  Uiso   1.00
H309   H     0.10330   0.87645   0.83971   0.00000  Uiso   1.00
H310   H     0.10295   0.68517   0.74971   0.00000  Uiso   1.00
H311   H     0.23519   0.88901   0.45625   0.00000  Uiso   1.00
H312   H     0.03457   0.96262   0.95189   0.00000  Uiso   1.00
H313   H     0.03384   0.55927   0.76212   0.00000  Uiso   1.00
O314   O     0.13180   0.92671   0.33862   0.00000  Uiso   1.00
O315   O     0.86860   0.02328   0.98889   0.00000  Uiso   1.00
O316   O     0.86764   0.49410   0.73992   0.00000  Uiso   1.00
N317   N     0.00316   0.90045   0.42089   0.00000  Uiso   1.00
N318   N     0.81561   0.96928   0.88427   0.00000  Uiso   1.00
N319   N     0.81491   0.59218   0.70688   0.00000  Uiso   1.00
N320   N     0.15940   0.88854   0.45779   0.00000  Uiso   1.00
N321   N     0.97185   0.95738   0.92117   0.00000  Uiso   1.00
N322   N     0.97115   0.58028   0.74378   0.00000  Uiso   1.00
C323   C     0.63585   0.17833   0.16739   0.00000  Uiso   1.00
C324   C     0.55935   0.15954   0.10847   0.00000  Uiso   1.00
C325   C     0.58207   0.13710   0.03838   0.00000  Uiso   1.00
C326   C     0.50136   0.12251   0.99263   0.00000  Uiso   1.00
C327   C     0.39777   0.09214   0.89757   0.00000  Uiso   1.00
C328   C     0.61104   0.14056   0.23618   0.00000  Uiso   1.00
C329   C     0.67722   0.10217   0.27346   0.00000  Uiso   1.00
C330   C     0.64002   0.07161   0.33523   0.00000  Uiso   1.00
C331   C     0.61669   0.01181   0.43846   0.00000  Uiso   1.00
C332   C     0.61123   0.24448   0.18728   0.00000  Uiso   1.00
C333   C     0.67757   0.29348   0.18346   0.00000  Uiso   1.00
C334   C     0.64053   0.35042   0.20407   0.00000  Uiso   1.00
C335   C     0.61750   0.45198   0.23138   0.00000  Uiso   1.00
C336   C     0.45211   0.19233   0.21079   0.00000  Uiso   1.00
C337   C     0.45955   0.16714   0.13205   0.00000  Uiso   1.00
C338   C     0.37878   0.15258   0.08639   0.00000  Uiso   1.00
C339   C     0.40138   0.13013   0.01624   0.00000  Uiso   1.00
C340   C     0.51124   0.14816   0.25975   0.00000  Uiso   1.00
C341   C     0.47394   0.11765   0.32148   0.00000  Uiso   1.00
C342   C     0.54004   0.07922   0.35884   0.00000  Uiso   1.00
C343   C     0.51143   0.25209   0.21085   0.00000  Uiso   1.00
C344   C     0.47428   0.30896   0.23147   0.00000  Uiso   1.00
C345   C     0.54056   0.35803   0.22769   0.00000  Uiso   1.00
H346   H     0.71354   0.17241   0.14905   0.00000  Uiso   1.00
H347   H     0.65932   0.13122   0.02016   0.00000  Uiso   1.00
H348   H     0.75445   0.09630   0.25521   0.00000  Uiso   1.00
H349   H     0.75480   0.28758   0.16522   0.00000  Uiso   1.00
H350   H     0.55518   0.08888   0.88767   0.00000  Uiso   1.00
H351   H     0.75579   0.01527   0.38331   0.00000  Uiso   1.00
H352   H     0.75653   0.41861   0.19354   0.00000  Uiso   1.00
H353   H     0.37440   0.19825   0.22915   0.00000  Uiso   1.00
H354   H     0.30156   0.15847   0.10465   0.00000  Uiso   1.00
H355   H     0.39670   0.12355   0.33971   0.00000  Uiso   1.00
H356   H     0.39705   0.31483   0.24971   0.00000  Uiso   1.00
H357   H     0.26481   0.11099   0.95625   0.00000  Uiso   1.00
H358   H     0.46543   0.03738   0.45189   0.00000  Uiso   1.00
H359   H     0.46616   0.44073   0.26212   0.00000  Uiso   1.00
O360   O     0.36820   0.07329   0.83862   0.00000  Uiso   1.00
O361   O     0.63140   0.97672   0.48889   0.00000  Uiso   1.00
O362   O     0.63236   0.50590   0.23992   0.00000  Uiso   1.00
N363   N     0.49684   0.09955   0.92089   0.00000  Uiso   1.00
N364   N     0.68439   0.03072   0.38427   0.00000  Uiso   1.00
N365   N     0.68509   0.40782   0.20688   0.00000  Uiso   1.00
N366   N     0.34060   0.11146   0.95779   0.00000  Uiso   1.00
N367   N     0.52815   0.04262   0.42117   0.00000  Uiso   1.00
N368   N     0.52885   0.41972   0.24378   0.00000  Uiso   1.00
