data_job_06921
_audit_creation_date              2018-12-19
_audit_creation_method            'Materials Studio'
_symmetry_space_group_name_H-M    'P1'
_symmetry_Int_Tables_number       1
_symmetry_cell_setting            triclinic
loop_
_symmetry_equiv_pos_as_xyz
  x,y,z
_cell_length_a                    17.3823
_cell_length_b                    23.2828
_cell_length_c                    23.9642
_cell_angle_alpha                 72.6986
_cell_angle_beta                  102.5976
_cell_angle_gamma                 110.2295
loop_
_atom_site_label
_atom_site_type_symbol
_atom_site_fract_x
_atom_site_fract_y
_atom_site_fract_z
_atom_site_U_iso_or_equiv
_atom_site_adp_type
_atom_site_occupancy
C1     C     0.75039   0.09642   0.69816   0.00000  Uiso   1.00
C2     C     0.72284   0.12529   0.63411   0.00000  Uiso   1.00
C3     C     0.65337   0.14577   0.61378   0.00000  Uiso   1.00
C4     C     0.63885   0.17077   0.55358   0.00000  Uiso   1.00
C5     C     0.58797   0.21492   0.45997   0.00000  Uiso   1.00
C6     C     0.75674   0.03238   0.69925   0.00000  Uiso   1.00
C7     C     0.71578   0.97474   0.73370   0.00000  Uiso   1.00
C8     C     0.72980   0.92153   0.72833   0.00000  Uiso   1.00
C9     C     0.73160   0.82143   0.73588   0.00000  Uiso   1.00
C10    C     0.83856   0.13707   0.71262   0.00000  Uiso   1.00
C11    C     0.86642   0.16744   0.75832   0.00000  Uiso   1.00
C12    C     0.94934   0.20236   0.76421   0.00000  Uiso   1.00
C13    C     0.07819   0.26481   0.79252   0.00000  Uiso   1.00
C14    C     0.84813   0.10443   0.62739   0.00000  Uiso   1.00
C15    C     0.77593   0.12964   0.59567   0.00000  Uiso   1.00
C16    C     0.76151   0.15463   0.53548   0.00000  Uiso   1.00
C17    C     0.69203   0.17514   0.51506   0.00000  Uiso   1.00
C18    C     0.80982   0.03673   0.66081   0.00000  Uiso   1.00
C19    C     0.82392   0.98360   0.65539   0.00000  Uiso   1.00
C20    C     0.78299   0.92589   0.68982   0.00000  Uiso   1.00
C21    C     0.89165   0.14142   0.67418   0.00000  Uiso   1.00
C22    C     0.97455   0.17630   0.68001   0.00000  Uiso   1.00
C23    C     0.00253   0.20672   0.72570   0.00000  Uiso   1.00
H24    H     0.70906   0.09303   0.72809   0.00000  Uiso   1.00
H25    H     0.61230   0.14238   0.64355   0.00000  Uiso   1.00
H26    H     0.67471   0.97138   0.76345   0.00000  Uiso   1.00
H27    H     0.82532   0.16406   0.78806   0.00000  Uiso   1.00
H28    H     0.52842   0.19900   0.53286   0.00000  Uiso   1.00
H29    H     0.66003   0.83844   0.78569   0.00000  Uiso   1.00
H30    H     0.97763   0.24473   0.83758   0.00000  Uiso   1.00
H31    H     0.88946   0.10782   0.59746   0.00000  Uiso   1.00
H32    H     0.80260   0.15799   0.50574   0.00000  Uiso   1.00
H33    H     0.86501   0.98699   0.62564   0.00000  Uiso   1.00
H34    H     0.01562   0.17966   0.65025   0.00000  Uiso   1.00
H35    H     0.68287   0.21167   0.42101   0.00000  Uiso   1.00
H36    H     0.81449   0.85110   0.67384   0.00000  Uiso   1.00
H37    H     0.13208   0.25740   0.72573   0.00000  Uiso   1.00
O38    O     0.54523   0.23805   0.41895   0.00000  Uiso   1.00
O39    O     0.71792   0.76501   0.75066   0.00000  Uiso   1.00
O40    O     0.13460   0.29806   0.81875   0.00000  Uiso   1.00
N41    N     0.57670   0.19511   0.51912   0.00000  Uiso   1.00
N42    N     0.69974   0.85800   0.75549   0.00000  Uiso   1.00
N43    N     0.99667   0.23784   0.80402   0.00000  Uiso   1.00
N44    N     0.65981   0.20192   0.45894   0.00000  Uiso   1.00
N45    N     0.78285   0.86482   0.69531   0.00000  Uiso   1.00
N46    N     0.07978   0.24465   0.74384   0.00000  Uiso   1.00
C47    C     0.13729   0.12751   0.90004   0.00000  Uiso   1.00
C48    C     0.20293   0.10389   0.88904   0.00000  Uiso   1.00
C49    C     0.24550   0.12829   0.84030   0.00000  Uiso   1.00
C50    C     0.30311   0.10009   0.83843   0.00000  Uiso   1.00
C51    C     0.40281   0.07111   0.81445   0.00000  Uiso   1.00
C52    C     0.06018   0.07056   0.90852   0.00000  Uiso   1.00
C53    C     0.98272   0.06695   0.87617   0.00000  Uiso   1.00
C54    C     0.92018   0.01070   0.89071   0.00000  Uiso   1.00
C55    C     0.79823   0.93000   0.89701   0.00000  Uiso   1.00
C56    C     0.16701   0.14404   0.95968   0.00000  Uiso   1.00
C57    C     0.17935   0.20220   0.97035   0.00000  Uiso   1.00
C58    C     0.20672   0.20781   0.02797   0.00000  Uiso   1.00
C59    C     0.25064   0.24118   0.11369   0.00000  Uiso   1.00
C60    C     0.16393   0.03406   0.98340   0.00000  Uiso   1.00
C61    C     0.21740   0.05312   0.93431   0.00000  Uiso   1.00
C62    C     0.27497   0.02489   0.93253   0.00000  Uiso   1.00
C63    C     0.31762   0.04924   0.88379   0.00000  Uiso   1.00
C64    C     0.07465   0.01980   0.95380   0.00000  Uiso   1.00
C65    C     0.01220   0.96355   0.96840   0.00000  Uiso   1.00
C66    C     0.93467   0.95984   0.93607   0.00000  Uiso   1.00
C67    C     0.18148   0.09328   0.00496   0.00000  Uiso   1.00
C68    C     0.20883   0.09880   0.06257   0.00000  Uiso   1.00
C69    C     0.22121   0.15695   0.07333   0.00000  Uiso   1.00
H70    H     0.12602   0.16703   0.86479   0.00000  Uiso   1.00
H71    H     0.23427   0.16757   0.80526   0.00000  Uiso   1.00
H72    H     0.97154   0.10624   0.84114   0.00000  Uiso   1.00
H73    H     0.16814   0.24147   0.93530   0.00000  Uiso   1.00
H74    H     0.36065   0.14576   0.75923   0.00000  Uiso   1.00
H75    H     0.80667   0.01645   0.83488   0.00000  Uiso   1.00
H76    H     0.22123   0.30161   0.03344   0.00000  Uiso   1.00
H77    H     0.17520   0.99453   0.01865   0.00000  Uiso   1.00
H78    H     0.28616   0.98561   0.96757   0.00000  Uiso   1.00
H79    H     0.02342   0.92428   0.00344   0.00000  Uiso   1.00
H80    H     0.22002   0.05950   0.09760   0.00000  Uiso   1.00
H81    H     0.40276   0.99807   0.89096   0.00000  Uiso   1.00
H82    H     0.84877   0.86877   0.96661   0.00000  Uiso   1.00
H83    H     0.26333   0.15392   0.16517   0.00000  Uiso   1.00
O84    O     0.45379   0.06914   0.78871   0.00000  Uiso   1.00
O85    O     0.72698   0.89950   0.88797   0.00000  Uiso   1.00
O86    O     0.27087   0.27362   0.14847   0.00000  Uiso   1.00
N87    N     0.35535   0.11224   0.79725   0.00000  Uiso   1.00
N88    N     0.83740   0.99134   0.86797   0.00000  Uiso   1.00
N89    N     0.22496   0.25793   0.05361   0.00000  Uiso   1.00
N90    N     0.37801   0.03277   0.86813   0.00000  Uiso   1.00
N91    N     0.86006   0.91187   0.93885   0.00000  Uiso   1.00
N92    N     0.24762   0.17846   0.12449   0.00000  Uiso   1.00
C93    C     0.94606   0.07565   0.22280   0.00000  Uiso   1.00
C94    C     0.88892   0.09426   0.24955   0.00000  Uiso   1.00
C95    C     0.91374   0.13107   0.29017   0.00000  Uiso   1.00
C96    C     0.85198   0.14277   0.30929   0.00000  Uiso   1.00
C97    C     0.77596   0.17533   0.35400   0.00000  Uiso   1.00
C98    C     0.91672   0.00376   0.23645   0.00000  Uiso   1.00
C99    C     0.96491   0.96448   0.26606   0.00000  Uiso   1.00
C100   C     0.92655   0.89999   0.27415   0.00000  Uiso   1.00
C101   C     0.89370   0.79205   0.29849   0.00000  Uiso   1.00
C102   C     0.92712   0.09829   0.15618   0.00000  Uiso   1.00
C103   C     0.98407   0.13848   0.11829   0.00000  Uiso   1.00
C104   C     0.95447   0.15356   0.05880   0.00000  Uiso   1.00
C105   C     0.93778   0.19239   0.95852   0.00000  Uiso   1.00
C106   C     0.79223   0.03095   0.18452   0.00000  Uiso   1.00
C107   C     0.80537   0.06998   0.22875   0.00000  Uiso   1.00
C108   C     0.74355   0.08162   0.24781   0.00000  Uiso   1.00
C109   C     0.76827   0.11845   0.28846   0.00000  Uiso   1.00
C110   C     0.83317   0.97948   0.21566   0.00000  Uiso   1.00
C111   C     0.79472   0.91503   0.22370   0.00000  Uiso   1.00
C112   C     0.84284   0.87567   0.25332   0.00000  Uiso   1.00
C113   C     0.84357   0.07401   0.13539   0.00000  Uiso   1.00
C114   C     0.81388   0.08903   0.07594   0.00000  Uiso   1.00
C115   C     0.87077   0.12924   0.03797   0.00000  Uiso   1.00
H116   H     0.01111   0.09454   0.23899   0.00000  Uiso   1.00
H117   H     0.97841   0.14985   0.30625   0.00000  Uiso   1.00
H118   H     0.02957   0.98328   0.28214   0.00000  Uiso   1.00
H119   H     0.04872   0.15725   0.13440   0.00000  Uiso   1.00
H120   H     0.90530   0.20044   0.37167   0.00000  Uiso   1.00
H121   H     0.01319   0.84923   0.32081   0.00000  Uiso   1.00
H122   H     0.05358   0.21608   0.00927   0.00000  Uiso   1.00
H123   H     0.72718   0.01205   0.16833   0.00000  Uiso   1.00
H124   H     0.67890   0.06283   0.23172   0.00000  Uiso   1.00
H125   H     0.73006   0.89626   0.20760   0.00000  Uiso   1.00
H126   H     0.74922   0.07023   0.05987   0.00000  Uiso   1.00
H127   H     0.66221   0.12981   0.31118   0.00000  Uiso   1.00
H128   H     0.77010   0.77859   0.26031   0.00000  Uiso   1.00
H129   H     0.81049   0.14545   0.94878   0.00000  Uiso   1.00
O130   O     0.75711   0.20000   0.38441   0.00000  Uiso   1.00
O131   O     0.89867   0.73922   0.31767   0.00000  Uiso   1.00
O132   O     0.95166   0.22053   0.90894   0.00000  Uiso   1.00
N133   N     0.85472   0.17686   0.34873   0.00000  Uiso   1.00
N134   N     0.95559   0.84849   0.30118   0.00000  Uiso   1.00
N135   N     0.99335   0.19146   0.00992   0.00000  Uiso   1.00
N136   N     0.72391   0.13885   0.31618   0.00000  Uiso   1.00
N137   N     0.82478   0.81049   0.26863   0.00000  Uiso   1.00
N138   N     0.86255   0.15345   0.97737   0.00000  Uiso   1.00
C139   C     0.35775   0.47416   0.28266   0.00000  Uiso   1.00
C140   C     0.40528   0.45355   0.24961   0.00000  Uiso   1.00
C141   C     0.48567   0.45060   0.26685   0.00000  Uiso   1.00
C142   C     0.51809   0.43054   0.23059   0.00000  Uiso   1.00
C143   C     0.59893   0.40102   0.18714   0.00000  Uiso   1.00
C144   C     0.27875   0.41967   0.29436   0.00000  Uiso   1.00
C145   C     0.25276   0.38825   0.34922   0.00000  Uiso   1.00
C146   C     0.17866   0.33968   0.35063   0.00000  Uiso   1.00
C147   C     0.06303   0.25759   0.37666   0.00000  Uiso   1.00
C148   C     0.33072   0.52843   0.23888   0.00000  Uiso   1.00
C149   C     0.34840   0.58844   0.24710   0.00000  Uiso   1.00
C150   C     0.31804   0.63144   0.20181   0.00000  Uiso   1.00
C151   C     0.28310   0.71822   0.14169   0.00000  Uiso   1.00
C152   C     0.27237   0.44378   0.18762   0.00000  Uiso   1.00
C153   C     0.35890   0.43705   0.19799   0.00000  Uiso   1.00
C154   C     0.39121   0.41699   0.16170   0.00000  Uiso   1.00
C155   C     0.47164   0.41402   0.17887   0.00000  Uiso   1.00
C156   C     0.23237   0.40317   0.24275   0.00000  Uiso   1.00
C157   C     0.15829   0.35464   0.24407   0.00000  Uiso   1.00
C158   C     0.13220   0.32315   0.29892   0.00000  Uiso   1.00
C159   C     0.28434   0.51193   0.18726   0.00000  Uiso   1.00
C160   C     0.25394   0.55484   0.14195   0.00000  Uiso   1.00
C161   C     0.27158   0.61491   0.15009   0.00000  Uiso   1.00
H162   H     0.39385   0.48700   0.32285   0.00000  Uiso   1.00
H163   H     0.52154   0.46336   0.30680   0.00000  Uiso   1.00
H164   H     0.28865   0.40103   0.38916   0.00000  Uiso   1.00
H165   H     0.38429   0.60119   0.28705   0.00000  Uiso   1.00
H166   H     0.64264   0.42987   0.26625   0.00000  Uiso   1.00
H167   H     0.15158   0.29844   0.43991   0.00000  Uiso   1.00
H168   H     0.35324   0.72053   0.22460   0.00000  Uiso   1.00
H169   H     0.23626   0.43094   0.14743   0.00000  Uiso   1.00
H170   H     0.35530   0.40423   0.12175   0.00000  Uiso   1.00
H171   H     0.12242   0.34189   0.20412   0.00000  Uiso   1.00
H172   H     0.21806   0.54206   0.10201   0.00000  Uiso   1.00
H173   H     0.50772   0.38187   0.11606   0.00000  Uiso   1.00
H174   H     0.01665   0.25044   0.28972   0.00000  Uiso   1.00
H175   H     0.21832   0.67253   0.07441   0.00000  Uiso   1.00
O176   O     0.65632   0.38929   0.17744   0.00000  Uiso   1.00
O177   O     0.01206   0.21687   0.40528   0.00000  Uiso   1.00
O178   O     0.27665   0.77064   0.12279   0.00000  Uiso   1.00
N179   N     0.59455   0.42225   0.23442   0.00000  Uiso   1.00
N180   N     0.13545   0.29936   0.39679   0.00000  Uiso   1.00
N181   N     0.32397   0.69398   0.19549   0.00000  Uiso   1.00
N182   N     0.52195   0.39642   0.15360   0.00000  Uiso   1.00
N183   N     0.06285   0.27353   0.31597   0.00000  Uiso   1.00
N184   N     0.25137   0.66815   0.11467   0.00000  Uiso   1.00
C185   C     0.22927   0.60852   0.63087   0.00000  Uiso   1.00
C186   C     0.16835   0.55146   0.66537   0.00000  Uiso   1.00
C187   C     0.08776   0.54661   0.66931   0.00000  Uiso   1.00
C188   C     0.04197   0.49049   0.70304   0.00000  Uiso   1.00
C189   C     0.94225   0.40940   0.75222   0.00000  Uiso   1.00
C190   C     0.25673   0.58425   0.58837   0.00000  Uiso   1.00
C191   C     0.25047   0.60698   0.52758   0.00000  Uiso   1.00
C192   C     0.27910   0.57846   0.49650   0.00000  Uiso   1.00
C193   C     0.31665   0.54831   0.42614   0.00000  Uiso   1.00
C194   C     0.30520   0.62744   0.67510   0.00000  Uiso   1.00
C195   C     0.33970   0.68650   0.68724   0.00000  Uiso   1.00
C196   C     0.40914   0.69435   0.72917   0.00000  Uiso   1.00
C197   C     0.52194   0.73126   0.79348   0.00000  Uiso   1.00
C198   C     0.29125   0.51746   0.68375   0.00000  Uiso   1.00
C199   C     0.20202   0.50200   0.69409   0.00000  Uiso   1.00
C200   C     0.15634   0.44587   0.72783   0.00000  Uiso   1.00
C201   C     0.07570   0.44094   0.73183   0.00000  Uiso   1.00
C202   C     0.29040   0.53479   0.61709   0.00000  Uiso   1.00
C203   C     0.31905   0.50623   0.58609   0.00000  Uiso   1.00
C204   C     0.31283   0.52891   0.52528   0.00000  Uiso   1.00
C205   C     0.33886   0.57798   0.70383   0.00000  Uiso   1.00
C206   C     0.40827   0.58575   0.74575   0.00000  Uiso   1.00
C207   C     0.44287   0.64480   0.75795   0.00000  Uiso   1.00
H208   H     0.20306   0.64702   0.60850   0.00000  Uiso   1.00
H209   H     0.06173   0.58490   0.64707   0.00000  Uiso   1.00
H210   H     0.22442   0.64525   0.50536   0.00000  Uiso   1.00
H211   H     0.31363   0.72476   0.66500   0.00000  Uiso   1.00
H212   H     0.91988   0.49420   0.70249   0.00000  Uiso   1.00
H213   H     0.26295   0.62148   0.40369   0.00000  Uiso   1.00
H214   H     0.45107   0.78913   0.74030   0.00000  Uiso   1.00
H215   H     0.31746   0.47895   0.70612   0.00000  Uiso   1.00
H216   H     0.18241   0.40760   0.75005   0.00000  Uiso   1.00
H217   H     0.34510   0.46796   0.60834   0.00000  Uiso   1.00
H218   H     0.43431   0.54746   0.76797   0.00000  Uiso   1.00
H219   H     0.01782   0.35030   0.78607   0.00000  Uiso   1.00
H220   H     0.36090   0.47758   0.48727   0.00000  Uiso   1.00
H221   H     0.54901   0.64523   0.82388   0.00000  Uiso   1.00
O222   O     0.87793   0.37834   0.77140   0.00000  Uiso   1.00
O223   O     0.32805   0.54534   0.37939   0.00000  Uiso   1.00
O224   O     0.57484   0.76529   0.82102   0.00000  Uiso   1.00
N225   N     0.96147   0.47013   0.71614   0.00000  Uiso   1.00
N226   N     0.28221   0.58912   0.43678   0.00000  Uiso   1.00
N227   N     0.45809   0.74587   0.75147   0.00000  Uiso   1.00
N228   N     0.01417   0.39270   0.76111   0.00000  Uiso   1.00
N229   N     0.33491   0.51169   0.48175   0.00000  Uiso   1.00
N230   N     0.51080   0.66844   0.79645   0.00000  Uiso   1.00
C231   C     0.62423   0.51561   0.78467   0.00000  Uiso   1.00
C232   C     0.70304   0.50725   0.82438   0.00000  Uiso   1.00
C233   C     0.72506   0.51350   0.88201   0.00000  Uiso   1.00
C234   C     0.79969   0.50396   0.91089   0.00000  Uiso   1.00
C235   C     0.91433   0.49327   0.97678   0.00000  Uiso   1.00
C236   C     0.58152   0.45427   0.76506   0.00000  Uiso   1.00
C237   C     0.50135   0.41599   0.77281   0.00000  Uiso   1.00
C238   C     0.47369   0.36186   0.75175   0.00000  Uiso   1.00
C239   C     0.39964   0.26894   0.72551   0.00000  Uiso   1.00
C240   C     0.65213   0.56606   0.72950   0.00000  Uiso   1.00
C241   C     0.63133   0.62177   0.70735   0.00000  Uiso   1.00
C242   C     0.66310   0.66176   0.65635   0.00000  Uiso   1.00
C243   C     0.69869   0.74242   0.57490   0.00000  Uiso   1.00
C244   C     0.71763   0.48755   0.73347   0.00000  Uiso   1.00
C245   C     0.75377   0.49201   0.79656   0.00000  Uiso   1.00
C246   C     0.82840   0.48246   0.82536   0.00000  Uiso   1.00
C247   C     0.85052   0.48870   0.88303   0.00000  Uiso   1.00
C248   C     0.63225   0.43903   0.73725   0.00000  Uiso   1.00
C249   C     0.60469   0.38495   0.71616   0.00000  Uiso   1.00
C250   C     0.52451   0.34659   0.72389   0.00000  Uiso   1.00
C251   C     0.70287   0.55083   0.70169   0.00000  Uiso   1.00
C252   C     0.73467   0.59073   0.65071   0.00000  Uiso   1.00
C253   C     0.71392   0.64649   0.62849   0.00000  Uiso   1.00
H254   H     0.58473   0.52747   0.80633   0.00000  Uiso   1.00
H255   H     0.68577   0.52529   0.90352   0.00000  Uiso   1.00
H256   H     0.46211   0.42780   0.79433   0.00000  Uiso   1.00
H257   H     0.59206   0.63355   0.72889   0.00000  Uiso   1.00
H258   H     0.82016   0.51614   0.99902   0.00000  Uiso   1.00
H259   H     0.34854   0.31057   0.76878   0.00000  Uiso   1.00
H260   H     0.62257   0.74444   0.63077   0.00000  Uiso   1.00
H261   H     0.75713   0.47568   0.71182   0.00000  Uiso   1.00
H262   H     0.86764   0.47067   0.80383   0.00000  Uiso   1.00
H263   H     0.64397   0.37317   0.69464   0.00000  Uiso   1.00
H264   H     0.77393   0.57892   0.62920   0.00000  Uiso   1.00
H265   H     0.96777   0.47180   0.91811   0.00000  Uiso   1.00
H266   H     0.49614   0.26624   0.68786   0.00000  Uiso   1.00
H267   H     0.77018   0.70010   0.54986   0.00000  Uiso   1.00
O268   O     0.96354   0.49158   0.02080   0.00000  Uiso   1.00
O269   O     0.34478   0.22190   0.71872   0.00000  Uiso   1.00
O270   O     0.70432   0.79113   0.53767   0.00000  Uiso   1.00
N271   N     0.83974   0.50640   0.96735   0.00000  Uiso   1.00
N272   N     0.39880   0.31421   0.75209   0.00000  Uiso   1.00
N273   N     0.65499   0.71983   0.62306   0.00000  Uiso   1.00
N274   N     0.91917   0.48254   0.92381   0.00000  Uiso   1.00
N275   N     0.47823   0.29035   0.70855   0.00000  Uiso   1.00
N276   N     0.73442   0.69597   0.57952   0.00000  Uiso   1.00
C277   C     0.08945   0.83708   0.46426   0.00000  Uiso   1.00
C278   C     0.11452   0.84749   0.52641   0.00000  Uiso   1.00
C279   C     0.16336   0.81779   0.57144   0.00000  Uiso   1.00
C280   C     0.17927   0.83377   0.62511   0.00000  Uiso   1.00
C281   C     0.22308   0.84324   0.72035   0.00000  Uiso   1.00
C282   C     0.11846   0.90191   0.42263   0.00000  Uiso   1.00
C283   C     0.17060   0.91797   0.38040   0.00000  Uiso   1.00
C284   C     0.18983   0.97976   0.34671   0.00000  Uiso   1.00
C285   C     0.23970   0.07372   0.28079   0.00000  Uiso   1.00
C286   C     0.99522   0.81748   0.45418   0.00000  Uiso   1.00
C287   C     0.94374   0.76256   0.43846   0.00000  Uiso   1.00
C288   C     0.85921   0.75327   0.43132   0.00000  Uiso   1.00
C289   C     0.71774   0.71614   0.41439   0.00000  Uiso   1.00
C290   C     0.03086   0.91827   0.47950   0.00000  Uiso   1.00
C291   C     0.08270   0.89159   0.53468   0.00000  Uiso   1.00
C292   C     0.09854   0.90761   0.58831   0.00000  Uiso   1.00
C293   C     0.14739   0.87794   0.63341   0.00000  Uiso   1.00
C294   C     0.08664   0.94601   0.43091   0.00000  Uiso   1.00
C295   C     0.10579   0.00779   0.39726   0.00000  Uiso   1.00
C296   C     0.15795   0.02394   0.35500   0.00000  Uiso   1.00
C297   C     0.96340   0.86158   0.46246   0.00000  Uiso   1.00
C298   C     0.87893   0.85238   0.45533   0.00000  Uiso   1.00
C299   C     0.82733   0.79745   0.43961   0.00000  Uiso   1.00
H300   H     0.11422   0.80275   0.45781   0.00000  Uiso   1.00
H301   H     0.18798   0.78367   0.56501   0.00000  Uiso   1.00
H302   H     0.19521   0.88383   0.37400   0.00000  Uiso   1.00
H303   H     0.96839   0.72844   0.43206   0.00000  Uiso   1.00
H304   H     0.25574   0.78198   0.68751   0.00000  Uiso   1.00
H305   H     0.27098   0.99317   0.28474   0.00000  Uiso   1.00
H306   H     0.79267   0.66550   0.40716   0.00000  Uiso   1.00
H307   H     0.00609   0.95260   0.48594   0.00000  Uiso   1.00
H308   H     0.07391   0.94174   0.59470   0.00000  Uiso   1.00
H309   H     0.08114   0.04190   0.40368   0.00000  Uiso   1.00
H310   H     0.85432   0.88651   0.46174   0.00000  Uiso   1.00
H311   H     0.16316   0.91027   0.71161   0.00000  Uiso   1.00
H312   H     0.17839   0.12147   0.30883   0.00000  Uiso   1.00
H313   H     0.70009   0.79380   0.43126   0.00000  Uiso   1.00
O314   O     0.25604   0.83629   0.77059   0.00000  Uiso   1.00
O315   O     0.27601   0.11337   0.24215   0.00000  Uiso   1.00
O316   O     0.64850   0.68347   0.40278   0.00000  Uiso   1.00
N317   N     0.22463   0.81365   0.67826   0.00000  Uiso   1.00
N318   N     0.23889   0.01111   0.30170   0.00000  Uiso   1.00
N319   N     0.79171   0.70477   0.41614   0.00000  Uiso   1.00
N320   N     0.17481   0.88269   0.69123   0.00000  Uiso   1.00
N321   N     0.18907   0.08015   0.31466   0.00000  Uiso   1.00
N322   N     0.74190   0.77381   0.42911   0.00000  Uiso   1.00
C323   C     0.75999   0.72763   0.15133   0.00000  Uiso   1.00
C324   C     0.69370   0.74431   0.17022   0.00000  Uiso   1.00
C325   C     0.65520   0.71266   0.22051   0.00000  Uiso   1.00
C326   C     0.59617   0.73528   0.22998   0.00000  Uiso   1.00
C327   C     0.49627   0.75323   0.26533   0.00000  Uiso   1.00
C328   C     0.83410   0.78706   0.14457   0.00000  Uiso   1.00
C329   C     0.91366   0.79135   0.17330   0.00000  Uiso   1.00
C330   C     0.97282   0.84995   0.16116   0.00000  Uiso   1.00
C331   C     0.09092   0.93426   0.15666   0.00000  Uiso   1.00
C332   C     0.72725   0.71760   0.08942   0.00000  Uiso   1.00
C333   C     0.71698   0.66350   0.07176   0.00000  Uiso   1.00
C334   C     0.68619   0.66363   0.01318   0.00000  Uiso   1.00
C335   C     0.63838   0.64010   0.92305   0.00000  Uiso   1.00
C336   C     0.72361   0.82406   0.07870   0.00000  Uiso   1.00
C337   C     0.67394   0.79669   0.13077   0.00000  Uiso   1.00
C338   C     0.61495   0.81935   0.14016   0.00000  Uiso   1.00
C339   C     0.57637   0.78775   0.19045   0.00000  Uiso   1.00
C340   C     0.81435   0.83943   0.10512   0.00000  Uiso   1.00
C341   C     0.87341   0.89804   0.09294   0.00000  Uiso   1.00
C342   C     0.95303   0.90242   0.12164   0.00000  Uiso   1.00
C343   C     0.70749   0.76998   0.04997   0.00000  Uiso   1.00
C344   C     0.67672   0.77019   0.99141   0.00000  Uiso   1.00
C345   C     0.66640   0.71610   0.97366   0.00000  Uiso   1.00
H346   H     0.77538   0.68685   0.18204   0.00000  Uiso   1.00
H347   H     0.67051   0.67214   0.25104   0.00000  Uiso   1.00
H348   H     0.92893   0.75081   0.20382   0.00000  Uiso   1.00
H349   H     0.73228   0.62298   0.10230   0.00000  Uiso   1.00
H350   H     0.54556   0.67893   0.31014   0.00000  Uiso   1.00
H351   H     0.09045   0.84481   0.21057   0.00000  Uiso   1.00
H352   H     0.67577   0.57526   0.99650   0.00000  Uiso   1.00
H353   H     0.70823   0.86484   0.04798   0.00000  Uiso   1.00
H354   H     0.59967   0.85989   0.10962   0.00000  Uiso   1.00
H355   H     0.85809   0.93856   0.06240   0.00000  Uiso   1.00
H356   H     0.66144   0.81073   0.96089   0.00000  Uiso   1.00
H357   H     0.48806   0.83132   0.19537   0.00000  Uiso   1.00
H358   H     0.03296   0.99720   0.09579   0.00000  Uiso   1.00
H359   H     0.61827   0.72765   0.88172   0.00000  Uiso   1.00
O360   O     0.44663   0.74867   0.29573   0.00000  Uiso   1.00
O361   O     0.16151   0.96629   0.16508   0.00000  Uiso   1.00
O362   O     0.61746   0.61265   0.88424   0.00000  Uiso   1.00
N363   N     0.54691   0.71547   0.27467   0.00000  Uiso   1.00
N364   N     0.05635   0.87056   0.18157   0.00000  Uiso   1.00
N365   N     0.66868   0.61856   0.98144   0.00000  Uiso   1.00
N366   N     0.51598   0.79747   0.21290   0.00000  Uiso   1.00
N367   N     0.02542   0.95256   0.11981   0.00000  Uiso   1.00
N368   N     0.63774   0.70056   0.91968   0.00000  Uiso   1.00
C369   C     0.96283   0.82040   0.84717   0.00000  Uiso   1.00
C370   C     0.97310   0.77225   0.82021   0.00000  Uiso   1.00
C371   C     0.90960   0.72975   0.79333   0.00000  Uiso   1.00
C372   C     0.93176   0.68960   0.77141   0.00000  Uiso   1.00
C373   C     0.93512   0.61451   0.72879   0.00000  Uiso   1.00
C374   C     0.01653   0.88453   0.81641   0.00000  Uiso   1.00
C375   C     0.98954   0.93643   0.78636   0.00000  Uiso   1.00
C376   C     0.04827   0.99080   0.76125   0.00000  Uiso   1.00
C377   C     0.11906   0.09003   0.71277   0.00000  Uiso   1.00
C378   C     0.00324   0.80735   0.91096   0.00000  Uiso   1.00
C379   C     0.96508   0.79438   0.96040   0.00000  Uiso   1.00
C380   C     0.01263   0.78378   0.01489   0.00000  Uiso   1.00
C381   C     0.06279   0.76319   0.11321   0.00000  Uiso   1.00
C382   C     0.11512   0.82467   0.85604   0.00000  Uiso   1.00
C383   C     0.05582   0.77457   0.82502   0.00000  Uiso   1.00
C384   C     0.07809   0.73448   0.80314   0.00000  Uiso   1.00
C385   C     0.01463   0.69192   0.77624   0.00000  Uiso   1.00
C386   C     0.09924   0.88685   0.82123   0.00000  Uiso   1.00
C387   C     0.15803   0.94115   0.79616   0.00000  Uiso   1.00
C388   C     0.13114   0.99312   0.76607   0.00000  Uiso   1.00
C389   C     0.08596   0.80967   0.91577   0.00000  Uiso   1.00
C390   C     0.13357   0.79910   0.97020   0.00000  Uiso   1.00
C391   C     0.09550   0.78611   0.01971   0.00000  Uiso   1.00
H392   H     0.89844   0.81860   0.84342   0.00000  Uiso   1.00
H393   H     0.84559   0.72798   0.78961   0.00000  Uiso   1.00
H394   H     0.92553   0.93462   0.78264   0.00000  Uiso   1.00
H395   H     0.90107   0.79259   0.95665   0.00000  Uiso   1.00
H396   H     0.82348   0.62854   0.73206   0.00000  Uiso   1.00
H397   H     0.99203   0.06427   0.71738   0.00000  Uiso   1.00
H398   H     0.94047   0.76477   0.08432   0.00000  Uiso   1.00
H399   H     0.17952   0.82648   0.85978   0.00000  Uiso   1.00
H400   H     0.14210   0.73628   0.80687   0.00000  Uiso   1.00
H401   H     0.22203   0.94293   0.79990   0.00000  Uiso   1.00
H402   H     0.19758   0.80090   0.97391   0.00000  Uiso   1.00
H403   H     0.06414   0.63529   0.74606   0.00000  Uiso   1.00
H404   H     0.23269   0.07102   0.73139   0.00000  Uiso   1.00
H405   H     0.18113   0.77152   0.09832   0.00000  Uiso   1.00
O406   O     0.91412   0.57246   0.70394   0.00000  Uiso   1.00
O407   O     0.13526   0.14412   0.68470   0.00000  Uiso   1.00
O408   O     0.06761   0.75118   0.16610   0.00000  Uiso   1.00
N409   N     0.88525   0.64250   0.74263   0.00000  Uiso   1.00
N410   N     0.04284   0.04988   0.72890   0.00000  Uiso   1.00
N411   N     0.99464   0.76989   0.07195   0.00000  Uiso   1.00
N412   N     0.01475   0.64613   0.75016   0.00000  Uiso   1.00
N413   N     0.17233   0.05351   0.73643   0.00000  Uiso   1.00
N414   N     0.12413   0.77351   0.07949   0.00000  Uiso   1.00
C415   C     0.45454   0.23131   0.93610   0.00000  Uiso   1.00
C416   C     0.49186   0.22026   0.00072   0.00000  Uiso   1.00
C417   C     0.46378   0.16679   0.04479   0.00000  Uiso   1.00
C418   C     0.50633   0.16577   0.10112   0.00000  Uiso   1.00
C419   C     0.55389   0.14092   0.19967   0.00000  Uiso   1.00
C420   C     0.43307   0.29278   0.92158   0.00000  Uiso   1.00
C421   C     0.35557   0.30029   0.89910   0.00000  Uiso   1.00
C422   C     0.34864   0.36033   0.88880   0.00000  Uiso   1.00
C423   C     0.30495   0.44808   0.86444   0.00000  Uiso   1.00
C424   C     0.52469   0.24481   0.90086   0.00000  Uiso   1.00
C425   C     0.52421   0.21199   0.86094   0.00000  Uiso   1.00
C426   C     0.59442   0.23166   0.83319   0.00000  Uiso   1.00
C427   C     0.69298   0.24493   0.77666   0.00000  Uiso   1.00
C428   C     0.58006   0.32459   0.95779   0.00000  Uiso   1.00
C429   C     0.56004   0.27093   0.01250   0.00000  Uiso   1.00
C430   C     0.60265   0.27000   0.06878   0.00000  Uiso   1.00
C431   C     0.57464   0.21653   0.11292   0.00000  Uiso   1.00
C432   C     0.50125   0.34345   0.93336   0.00000  Uiso   1.00
C433   C     0.49444   0.40350   0.92309   0.00000  Uiso   1.00
C434   C     0.41694   0.41109   0.90060   0.00000  Uiso   1.00
C435   C     0.59287   0.29548   0.91264   0.00000  Uiso   1.00
C436   C     0.66309   0.31520   0.88494   0.00000  Uiso   1.00
C437   C     0.66272   0.28242   0.84499   0.00000  Uiso   1.00
H438   H     0.40145   0.19186   0.92693   0.00000  Uiso   1.00
H439   H     0.41101   0.12759   0.03565   0.00000  Uiso   1.00
H440   H     0.30282   0.26107   0.88998   0.00000  Uiso   1.00
H441   H     0.47144   0.17279   0.85184   0.00000  Uiso   1.00
H442   H     0.45164   0.07868   0.16139   0.00000  Uiso   1.00
H443   H     0.22353   0.36014   0.85422   0.00000  Uiso   1.00
H444   H     0.57910   0.17398   0.77378   0.00000  Uiso   1.00
H445   H     0.63314   0.36405   0.96696   0.00000  Uiso   1.00
H446   H     0.65541   0.30922   0.07788   0.00000  Uiso   1.00
H447   H     0.54722   0.44270   0.93221   0.00000  Uiso   1.00
H448   H     0.71584   0.35442   0.89406   0.00000  Uiso   1.00
H449   H     0.65001   0.22610   0.19567   0.00000  Uiso   1.00
H450   H     0.42189   0.50756   0.88848   0.00000  Uiso   1.00
H451   H     0.77747   0.32140   0.80805   0.00000  Uiso   1.00
O452   O     0.56128   0.11322   0.25078   0.00000  Uiso   1.00
O453   O     0.26200   0.48249   0.84776   0.00000  Uiso   1.00
O454   O     0.72851   0.23825   0.74224   0.00000  Uiso   1.00
N455   N     0.49528   0.12089   0.15423   0.00000  Uiso   1.00
N456   N     0.28201   0.38404   0.86705   0.00000  Uiso   1.00
N457   N     0.61443   0.21000   0.79184   0.00000  Uiso   1.00
N458   N     0.60202   0.20022   0.17268   0.00000  Uiso   1.00
N459   N     0.38874   0.46336   0.88549   0.00000  Uiso   1.00
N460   N     0.72117   0.28933   0.81028   0.00000  Uiso   1.00
C461   C     0.51103   0.34781   0.55789   0.00000  Uiso   1.00
C462   C     0.59552   0.34245   0.55643   0.00000  Uiso   1.00
C463   C     0.64188   0.31231   0.60316   0.00000  Uiso   1.00
C464   C     0.71764   0.31261   0.59293   0.00000  Uiso   1.00
C465   C     0.84453   0.29984   0.59903   0.00000  Uiso   1.00
C466   C     0.52004   0.41817   0.53947   0.00000  Uiso   1.00
C467   C     0.50292   0.45169   0.57194   0.00000  Uiso   1.00
C468   C     0.51513   0.51573   0.54744   0.00000  Uiso   1.00
C469   C     0.52479   0.62050   0.52719   0.00000  Uiso   1.00
C470   C     0.45325   0.31991   0.50839   0.00000  Uiso   1.00
C471   C     0.37997   0.27083   0.51474   0.00000  Uiso   1.00
C472   C     0.33594   0.25216   0.46406   0.00000  Uiso   1.00
C473   C     0.24190   0.20437   0.39557   0.00000  Uiso   1.00
C474   C     0.56313   0.40193   0.45663   0.00000  Uiso   1.00
C475   C     0.62382   0.37185   0.50142   0.00000  Uiso   1.00
C476   C     0.69952   0.37219   0.49112   0.00000  Uiso   1.00
C477   C     0.74599   0.34206   0.53783   0.00000  Uiso   1.00
C478   C     0.54834   0.44756   0.48447   0.00000  Uiso   1.00
C479   C     0.56057   0.51157   0.45991   0.00000  Uiso   1.00
C480   C     0.54348   0.54518   0.49234   0.00000  Uiso   1.00
C481   C     0.48155   0.34931   0.45339   0.00000  Uiso   1.00
C482   C     0.43762   0.33071   0.40270   0.00000  Uiso   1.00
C483   C     0.36429   0.28161   0.40896   0.00000  Uiso   1.00
H484   H     0.48900   0.32493   0.60072   0.00000  Uiso   1.00
H485   H     0.61996   0.28957   0.64572   0.00000  Uiso   1.00
H486   H     0.48101   0.42893   0.61450   0.00000  Uiso   1.00
H487   H     0.35809   0.24809   0.55731   0.00000  Uiso   1.00
H488   H     0.77764   0.26336   0.67137   0.00000  Uiso   1.00
H489   H     0.48465   0.55719   0.60553   0.00000  Uiso   1.00
H490   H     0.22543   0.17587   0.48492   0.00000  Uiso   1.00
H491   H     0.58517   0.42482   0.41381   0.00000  Uiso   1.00
H492   H     0.72141   0.39494   0.44855   0.00000  Uiso   1.00
H493   H     0.58246   0.53430   0.41734   0.00000  Uiso   1.00
H494   H     0.45954   0.35347   0.36014   0.00000  Uiso   1.00
H495   H     0.85999   0.34888   0.51134   0.00000  Uiso   1.00
H496   H     0.56699   0.64271   0.44551   0.00000  Uiso   1.00
H497   H     0.30777   0.26140   0.32490   0.00000  Uiso   1.00
O498   O     0.90671   0.28468   0.61759   0.00000  Uiso   1.00
O499   O     0.52230   0.67017   0.53122   0.00000  Uiso   1.00
O500   O     0.18221   0.16989   0.37298   0.00000  Uiso   1.00
N501   N     0.77832   0.28757   0.62893   0.00000  Uiso   1.00
N502   N     0.50440   0.56229   0.56739   0.00000  Uiso   1.00
N503   N     0.26204   0.20580   0.45463   0.00000  Uiso   1.00
N504   N     0.82263   0.33359   0.54282   0.00000  Uiso   1.00
N505   N     0.54871   0.60831   0.48128   0.00000  Uiso   1.00
N506   N     0.30634   0.25182   0.36852   0.00000  Uiso   1.00
C507   C     0.08599   0.46920   0.36363   0.00000  Uiso   1.00
C508   C     0.00360   0.43001   0.33733   0.00000  Uiso   1.00
C509   C     0.99289   0.39912   0.29352   0.00000  Uiso   1.00
C510   C     0.91255   0.36575   0.27543   0.00000  Uiso   1.00
C511   C     0.79483   0.30529   0.23079   0.00000  Uiso   1.00
C512   C     0.07704   0.53427   0.35505   0.00000  Uiso   1.00
C513   C     0.12808   0.59103   0.32614   0.00000  Uiso   1.00
C514   C     0.10955   0.64542   0.32298   0.00000  Uiso   1.00
C515   C     0.10588   0.74682   0.30588   0.00000  Uiso   1.00
C516   C     0.09261   0.44037   0.42990   0.00000  Uiso   1.00
C517   C     0.15676   0.41819   0.46393   0.00000  Uiso   1.00
C518   C     0.15136   0.39355   0.52379   0.00000  Uiso   1.00
C519   C     0.17187   0.34916   0.62290   0.00000  Uiso   1.00
C520   C     0.96235   0.46489   0.40943   0.00000  Uiso   1.00
C521   C     0.93645   0.42767   0.36221   0.00000  Uiso   1.00
C522   C     0.85610   0.39434   0.34419   0.00000  Uiso   1.00
C523   C     0.84527   0.36340   0.30036   0.00000  Uiso   1.00
C524   C     0.00988   0.53193   0.37992   0.00000  Uiso   1.00
C525   C     0.99128   0.58625   0.37681   0.00000  Uiso   1.00
C526   C     0.04228   0.64308   0.34790   0.00000  Uiso   1.00
C527   C     0.02545   0.43803   0.45477   0.00000  Uiso   1.00
C528   C     0.01996   0.41342   0.51459   0.00000  Uiso   1.00
C529   C     0.08408   0.39120   0.54871   0.00000  Uiso   1.00
H530   H     0.13828   0.47103   0.34426   0.00000  Uiso   1.00
H531   H     0.04488   0.40095   0.27427   0.00000  Uiso   1.00
H532   H     0.18005   0.59282   0.30690   0.00000  Uiso   1.00
H533   H     0.20872   0.42002   0.44466   0.00000  Uiso   1.00
H534   H     0.91171   0.32223   0.20763   0.00000  Uiso   1.00
H535   H     0.19673   0.72682   0.27644   0.00000  Uiso   1.00
H536   H     0.25720   0.36242   0.56694   0.00000  Uiso   1.00
H537   H     0.91007   0.46307   0.42880   0.00000  Uiso   1.00
H538   H     0.80414   0.39254   0.36344   0.00000  Uiso   1.00
H539   H     0.93931   0.58442   0.39607   0.00000  Uiso   1.00
H540   H     0.96798   0.41161   0.53383   0.00000  Uiso   1.00
H541   H     0.71631   0.31541   0.28000   0.00000  Uiso   1.00
H542   H     0.00135   0.72000   0.34881   0.00000  Uiso   1.00
H543   H     0.06181   0.35560   0.63931   0.00000  Uiso   1.00
O544   O     0.74844   0.27259   0.19929   0.00000  Uiso   1.00
O545   O     0.12240   0.80339   0.28957   0.00000  Uiso   1.00
O546   O     0.20172   0.32531   0.67070   0.00000  Uiso   1.00
N547   N     0.88026   0.33029   0.23364   0.00000  Uiso   1.00
N548   N     0.14674   0.70856   0.29796   0.00000  Uiso   1.00
N549   N     0.20328   0.36789   0.56956   0.00000  Uiso   1.00
N550   N     0.77512   0.32662   0.27258   0.00000  Uiso   1.00
N551   N     0.04160   0.70489   0.33690   0.00000  Uiso   1.00
N552   N     0.09814   0.36422   0.60850   0.00000  Uiso   1.00
