data_job_06929
_audit_creation_date              2018-12-19
_audit_creation_method            'Materials Studio'
_symmetry_space_group_name_H-M    'P1'
_symmetry_Int_Tables_number       1
_symmetry_cell_setting            triclinic
loop_
_symmetry_equiv_pos_as_xyz
  x,y,z
_cell_length_a                    21.6364
_cell_length_b                    21.7895
_cell_length_c                    22.3709
_cell_angle_alpha                 60.9722
_cell_angle_beta                  77.5907
_cell_angle_gamma                 93.1256
loop_
_atom_site_label
_atom_site_type_symbol
_atom_site_fract_x
_atom_site_fract_y
_atom_site_fract_z
_atom_site_U_iso_or_equiv
_atom_site_adp_type
_atom_site_occupancy
C1     C     0.41491   0.67116   0.16814   0.00000  Uiso   1.00
C2     C     0.47924   0.68477   0.11544   0.00000  Uiso   1.00
C3     C     0.49886   0.64014   0.09006   0.00000  Uiso   1.00
C4     C     0.55949   0.66210   0.04216   0.00000  Uiso   1.00
C5     C     0.65338   0.67344   0.96367   0.00000  Uiso   1.00
C6     C     0.43120   0.67376   0.22998   0.00000  Uiso   1.00
C7     C     0.41042   0.61987   0.30091   0.00000  Uiso   1.00
C8     C     0.43061   0.63258   0.34943   0.00000  Uiso   1.00
C9     C     0.44988   0.62684   0.44877   0.00000  Uiso   1.00
C10    C     0.38416   0.73607   0.13162   0.00000  Uiso   1.00
C11    C     0.32382   0.73457   0.11986   0.00000  Uiso   1.00
C12    C     0.30439   0.79973   0.08558   0.00000  Uiso   1.00
C13    C     0.25062   0.89074   0.03220   0.00000  Uiso   1.00
C14    C     0.48768   0.78955   0.12820   0.00000  Uiso   1.00
C15    C     0.51877   0.74907   0.09375   0.00000  Uiso   1.00
C16    C     0.57938   0.77112   0.04588   0.00000  Uiso   1.00
C17    C     0.59909   0.72652   0.02043   0.00000  Uiso   1.00
C18    C     0.47073   0.73806   0.20830   0.00000  Uiso   1.00
C19    C     0.49094   0.75085   0.25673   0.00000  Uiso   1.00
C20    C     0.47020   0.69700   0.32770   0.00000  Uiso   1.00
C21    C     0.42369   0.80037   0.10993   0.00000  Uiso   1.00
C22    C     0.40434   0.86555   0.07567   0.00000  Uiso   1.00
C23    C     0.34399   0.86415   0.06386   0.00000  Uiso   1.00
H24    H     0.38413   0.62110   0.18503   0.00000  Uiso   1.00
H25    H     0.46826   0.59037   0.10686   0.00000  Uiso   1.00
H26    H     0.37983   0.57012   0.31768   0.00000  Uiso   1.00
H27    H     0.29325   0.68480   0.13665   0.00000  Uiso   1.00
H28    H     0.57897   0.58466   0.01066   0.00000  Uiso   1.00
H29    H     0.39250   0.54196   0.45518   0.00000  Uiso   1.00
H30    H     0.20991   0.78378   0.07345   0.00000  Uiso   1.00
H31    H     0.51846   0.83961   0.11132   0.00000  Uiso   1.00
H32    H     0.60996   0.82088   0.02910   0.00000  Uiso   1.00
H33    H     0.52153   0.80062   0.23992   0.00000  Uiso   1.00
H34    H     0.43494   0.91530   0.05890   0.00000  Uiso   1.00
H35    H     0.69398   0.77174   0.94755   0.00000  Uiso   1.00
H36    H     0.50750   0.72904   0.39207   0.00000  Uiso   1.00
H37    H     0.32492   0.97086   0.01034   0.00000  Uiso   1.00
O38    O     0.69425   0.66193   0.92637   0.00000  Uiso   1.00
O39    O     0.44959   0.60591   0.50956   0.00000  Uiso   1.00
O40    O     0.21004   0.92317   0.00874   0.00000  Uiso   1.00
N41    N     0.59348   0.63127   0.00708   0.00000  Uiso   1.00
N42    N     0.41914   0.59134   0.42267   0.00000  Uiso   1.00
N43    N     0.24843   0.81742   0.06581   0.00000  Uiso   1.00
N44    N     0.65536   0.73194   0.97312   0.00000  Uiso   1.00
N45    N     0.48102   0.69201   0.38871   0.00000  Uiso   1.00
N46    N     0.31031   0.91809   0.03185   0.00000  Uiso   1.00
C47    C     0.47805   0.24995   0.17181   0.00000  Uiso   1.00
C48    C     0.54681   0.24554   0.17758   0.00000  Uiso   1.00
C49    C     0.59982   0.30057   0.13637   0.00000  Uiso   1.00
C50    C     0.65862   0.28584   0.14985   0.00000  Uiso   1.00
C51    C     0.76455   0.28922   0.15075   0.00000  Uiso   1.00
C52    C     0.45756   0.19038   0.15881   0.00000  Uiso   1.00
C53    C     0.43552   0.19903   0.10182   0.00000  Uiso   1.00
C54    C     0.41917   0.13786   0.09951   0.00000  Uiso   1.00
C55    C     0.38649   0.05560   0.07129   0.00000  Uiso   1.00
C56    C     0.43674   0.22895   0.24567   0.00000  Uiso   1.00
C57    C     0.39717   0.27002   0.26172   0.00000  Uiso   1.00
C58    C     0.36328   0.24132   0.33254   0.00000  Uiso   1.00
C59    C     0.29827   0.21895   0.43918   0.00000  Uiso   1.00
C60    C     0.48820   0.12593   0.26904   0.00000  Uiso   1.00
C61    C     0.55233   0.17818   0.23039   0.00000  Uiso   1.00
C62    C     0.61105   0.16336   0.24394   0.00000  Uiso   1.00
C63    C     0.66414   0.21836   0.20276   0.00000  Uiso   1.00
C64    C     0.46307   0.12302   0.21162   0.00000  Uiso   1.00
C65    C     0.44675   0.06182   0.20939   0.00000  Uiso   1.00
C66    C     0.42469   0.07037   0.15241   0.00000  Uiso   1.00
C67    C     0.44225   0.16159   0.29848   0.00000  Uiso   1.00
C68    C     0.40841   0.13281   0.36929   0.00000  Uiso   1.00
C69    C     0.36880   0.17383   0.38544   0.00000  Uiso   1.00
H70    H     0.47376   0.30240   0.13070   0.00000  Uiso   1.00
H71    H     0.59554   0.35269   0.09550   0.00000  Uiso   1.00
H72    H     0.43125   0.25117   0.06097   0.00000  Uiso   1.00
H73    H     0.39291   0.32215   0.22084   0.00000  Uiso   1.00
H74    H     0.73299   0.37874   0.07975   0.00000  Uiso   1.00
H75    H     0.38656   0.16467   0.00695   0.00000  Uiso   1.00
H76    H     0.30572   0.31435   0.34406   0.00000  Uiso   1.00
H77    H     0.49250   0.07348   0.31015   0.00000  Uiso   1.00
H78    H     0.61531   0.11122   0.28481   0.00000  Uiso   1.00
H79    H     0.45102   0.00970   0.25027   0.00000  Uiso   1.00
H80    H     0.41269   0.08068   0.41014   0.00000  Uiso   1.00
H81    H     0.74903   0.18275   0.23340   0.00000  Uiso   1.00
H82    H     0.40260   0.96868   0.16059   0.00000  Uiso   1.00
H83    H     0.32177   0.11836   0.49771   0.00000  Uiso   1.00
O84    O     0.82146   0.30970   0.13665   0.00000  Uiso   1.00
O85    O     0.36696   0.02884   0.04113   0.00000  Uiso   1.00
O86    O     0.26090   0.22522   0.48342   0.00000  Uiso   1.00
N87    N     0.71991   0.32744   0.11940   0.00000  Uiso   1.00
N88    N     0.39603   0.12729   0.05132   0.00000  Uiso   1.00
N89    N     0.32044   0.26723   0.36650   0.00000  Uiso   1.00
N90    N     0.72854   0.22198   0.20208   0.00000  Uiso   1.00
N91    N     0.40466   0.02184   0.13400   0.00000  Uiso   1.00
N92    N     0.32907   0.16177   0.44917   0.00000  Uiso   1.00
C93    C     0.49841   0.75038   0.73406   0.00000  Uiso   1.00
C94    C     0.57075   0.75142   0.71913   0.00000  Uiso   1.00
C95    C     0.60602   0.73453   0.76829   0.00000  Uiso   1.00
C96    C     0.67170   0.73875   0.74415   0.00000  Uiso   1.00
C97    C     0.77956   0.73729   0.73173   0.00000  Uiso   1.00
C98    C     0.49033   0.82499   0.68123   0.00000  Uiso   1.00
C99    C     0.45797   0.86995   0.69854   0.00000  Uiso   1.00
C100   C     0.45595   0.93609   0.64249   0.00000  Uiso   1.00
C101   C     0.43892   0.04884   0.57123   0.00000  Uiso   1.00
C102   C     0.47113   0.70045   0.71252   0.00000  Uiso   1.00
C103   C     0.42263   0.64071   0.75611   0.00000  Uiso   1.00
C104   C     0.40444   0.60201   0.72640   0.00000  Uiso   1.00
C105   C     0.35761   0.52139   0.70372   0.00000  Uiso   1.00
C106   C     0.55235   0.78789   0.60376   0.00000  Uiso   1.00
C107   C     0.60004   0.77179   0.64836   0.00000  Uiso   1.00
C108   C     0.66569   0.77603   0.62414   0.00000  Uiso   1.00
C109   C     0.70105   0.75915   0.67326   0.00000  Uiso   1.00
C110   C     0.51962   0.84536   0.61047   0.00000  Uiso   1.00
C111   C     0.51764   0.91145   0.55438   0.00000  Uiso   1.00
C112   C     0.48530   0.95651   0.57159   0.00000  Uiso   1.00
C113   C     0.50043   0.72082   0.64175   0.00000  Uiso   1.00
C114   C     0.48231   0.68221   0.61196   0.00000  Uiso   1.00
C115   C     0.43379   0.62242   0.65551   0.00000  Uiso   1.00
H116   H     0.47561   0.73452   0.78915   0.00000  Uiso   1.00
H117   H     0.58333   0.71877   0.82305   0.00000  Uiso   1.00
H118   H     0.43530   0.85417   0.75330   0.00000  Uiso   1.00
H119   H     0.39997   0.62496   0.81088   0.00000  Uiso   1.00
H120   H     0.71568   0.71032   0.82943   0.00000  Uiso   1.00
H121   H     0.40354   0.99580   0.68236   0.00000  Uiso   1.00
H122   H     0.32903   0.51247   0.80375   0.00000  Uiso   1.00
H123   H     0.57516   0.80376   0.54867   0.00000  Uiso   1.00
H124   H     0.68835   0.79180   0.56937   0.00000  Uiso   1.00
H125   H     0.54032   0.92720   0.49962   0.00000  Uiso   1.00
H126   H     0.50499   0.69799   0.55719   0.00000  Uiso   1.00
H127   H     0.80092   0.76960   0.62353   0.00000  Uiso   1.00
H128   H     0.48877   0.05508   0.47646   0.00000  Uiso   1.00
H129   H     0.41427   0.57175   0.59786   0.00000  Uiso   1.00
O130   O     0.83096   0.73087   0.74443   0.00000  Uiso   1.00
O131   O     0.42143   0.10540   0.55148   0.00000  Uiso   1.00
O132   O     0.32369   0.47129   0.71076   0.00000  Uiso   1.00
N133   N     0.72021   0.72590   0.77813   0.00000  Uiso   1.00
N134   N     0.42838   0.99281   0.64063   0.00000  Uiso   1.00
N135   N     0.35871   0.54095   0.75412   0.00000  Uiso   1.00
N136   N     0.76607   0.75779   0.66734   0.00000  Uiso   1.00
N137   N     0.47424   0.02470   0.52984   0.00000  Uiso   1.00
N138   N     0.40458   0.57285   0.64333   0.00000  Uiso   1.00
C139   C     0.89474   0.72755   0.06038   0.00000  Uiso   1.00
C140   C     0.96808   0.74420   0.03380   0.00000  Uiso   1.00
C141   C     0.00512   0.80800   0.97649   0.00000  Uiso   1.00
C142   C     0.07148   0.81269   0.96068   0.00000  Uiso   1.00
C143   C     0.18107   0.84724   0.91333   0.00000  Uiso   1.00
C144   C     0.87829   0.70616   0.13855   0.00000  Uiso   1.00
C145   C     0.83983   0.73798   0.16931   0.00000  Uiso   1.00
C146   C     0.83059   0.71063   0.24168   0.00000  Uiso   1.00
C147   C     0.80073   0.68610   0.35696   0.00000  Uiso   1.00
C148   C     0.87348   0.66024   0.05940   0.00000  Uiso   1.00
C149   C     0.83096   0.65344   0.02361   0.00000  Uiso   1.00
C150   C     0.81766   0.58743   0.02935   0.00000  Uiso   1.00
C151   C     0.78033   0.49160   0.02173   0.00000  Uiso   1.00
C152   C     0.94672   0.62242   0.13422   0.00000  Uiso   1.00
C153   C     0.99631   0.68710   0.07391   0.00000  Uiso   1.00
C154   C     0.06263   0.69169   0.05818   0.00000  Uiso   1.00
C155   C     0.09977   0.75548   0.00085   0.00000  Uiso   1.00
C156   C     0.90652   0.64906   0.17866   0.00000  Uiso   1.00
C157   C     0.89734   0.62166   0.25100   0.00000  Uiso   1.00
C158   C     0.85888   0.65343   0.28186   0.00000  Uiso   1.00
C159   C     0.90171   0.60314   0.09950   0.00000  Uiso   1.00
C160   C     0.88847   0.53713   0.10530   0.00000  Uiso   1.00
C161   C     0.84594   0.53022   0.06953   0.00000  Uiso   1.00
H162   H     0.87276   0.77200   0.02917   0.00000  Uiso   1.00
H163   H     0.98326   0.85218   0.94547   0.00000  Uiso   1.00
H164   H     0.81798   0.78216   0.13827   0.00000  Uiso   1.00
H165   H     0.80912   0.69764   0.99259   0.00000  Uiso   1.00
H166   H     0.11821   0.91590   0.87039   0.00000  Uiso   1.00
H167   H     0.76971   0.76824   0.27690   0.00000  Uiso   1.00
H168   H     0.75101   0.59001   0.96971   0.00000  Uiso   1.00
H169   H     0.96870   0.57796   0.16544   0.00000  Uiso   1.00
H170   H     0.08447   0.64749   0.08922   0.00000  Uiso   1.00
H171   H     0.91919   0.57747   0.28201   0.00000  Uiso   1.00
H172   H     0.91033   0.49295   0.13633   0.00000  Uiso   1.00
H173   H     0.20036   0.74977   0.98706   0.00000  Uiso   1.00
H174   H     0.85185   0.60211   0.39358   0.00000  Uiso   1.00
H175   H     0.83315   0.42388   0.08638   0.00000  Uiso   1.00
O176   O     0.23371   0.88208   0.87614   0.00000  Uiso   1.00
O177   O     0.77647   0.68835   0.40947   0.00000  Uiso   1.00
O178   O     0.75194   0.45452   0.00644   0.00000  Uiso   1.00
N179   N     0.12166   0.86725   0.90830   0.00000  Uiso   1.00
N180   N     0.79583   0.72921   0.28836   0.00000  Uiso   1.00
N181   N     0.77834   0.56257   0.00118   0.00000  Uiso   1.00
N182   N     0.16586   0.77786   0.97108   0.00000  Uiso   1.00
N183   N     0.84003   0.63981   0.35114   0.00000  Uiso   1.00
N184   N     0.82254   0.47318   0.06396   0.00000  Uiso   1.00
C185   C     0.94215   0.22401   0.18905   0.00000  Uiso   1.00
C186   C     0.97613   0.22107   0.12354   0.00000  Uiso   1.00
C187   C     0.95032   0.23099   0.06848   0.00000  Uiso   1.00
C188   C     0.98912   0.22621   0.01332   0.00000  Uiso   1.00
C189   C     0.03241   0.22385   0.91158   0.00000  Uiso   1.00
C190   C     0.98583   0.28036   0.19044   0.00000  Uiso   1.00
C191   C     0.96817   0.34012   0.19165   0.00000  Uiso   1.00
C192   C     0.01514   0.38525   0.19282   0.00000  Uiso   1.00
C193   C     0.07347   0.47491   0.19501   0.00000  Uiso   1.00
C194   C     0.94317   0.15269   0.25312   0.00000  Uiso   1.00
C195   C     0.88964   0.10511   0.30704   0.00000  Uiso   1.00
C196   C     0.90070   0.04276   0.36098   0.00000  Uiso   1.00
C197   C     0.89279   0.93419   0.46048   0.00000  Uiso   1.00
C198   C     0.05695   0.19789   0.18898   0.00000  Uiso   1.00
C199   C     0.03849   0.20689   0.12350   0.00000  Uiso   1.00
C200   C     0.07734   0.20209   0.06841   0.00000  Uiso   1.00
C201   C     0.05159   0.21200   0.01328   0.00000  Uiso   1.00
C202   C     0.04818   0.26618   0.19041   0.00000  Uiso   1.00
C203   C     0.09519   0.31123   0.19158   0.00000  Uiso   1.00
C204   C     0.07761   0.37104   0.19279   0.00000  Uiso   1.00
C205   C     0.00552   0.13851   0.25308   0.00000  Uiso   1.00
C206   C     0.01666   0.07622   0.30696   0.00000  Uiso   1.00
C207   C     0.96317   0.02855   0.36095   0.00000  Uiso   1.00
H208   H     0.89360   0.23505   0.18908   0.00000  Uiso   1.00
H209   H     0.90206   0.24197   0.06853   0.00000  Uiso   1.00
H210   H     0.91991   0.35108   0.19169   0.00000  Uiso   1.00
H211   H     0.84139   0.11611   0.30705   0.00000  Uiso   1.00
H212   H     0.93895   0.24341   0.93484   0.00000  Uiso   1.00
H213   H     0.97657   0.47346   0.19456   0.00000  Uiso   1.00
H214   H     0.81101   0.97798   0.43782   0.00000  Uiso   1.00
H215   H     0.10551   0.18685   0.18896   0.00000  Uiso   1.00
H216   H     0.12560   0.19112   0.06840   0.00000  Uiso   1.00
H217   H     0.14344   0.30023   0.19156   0.00000  Uiso   1.00
H218   H     0.06493   0.06526   0.30692   0.00000  Uiso   1.00
H219   H     0.12038   0.20214   0.93474   0.00000  Uiso   1.00
H220   H     0.15800   0.43219   0.19446   0.00000  Uiso   1.00
H221   H     0.99244   0.93670   0.43771   0.00000  Uiso   1.00
O222   O     0.03907   0.22647   0.85547   0.00000  Uiso   1.00
O223   O     0.08842   0.52829   0.19622   0.00000  Uiso   1.00
O224   O     0.87121   0.87822   0.51537   0.00000  Uiso   1.00
N225   N     0.97889   0.23309   0.95137   0.00000  Uiso   1.00
N226   N     0.01407   0.44819   0.19418   0.00000  Uiso   1.00
N227   N     0.85928   0.98496   0.42162   0.00000  Uiso   1.00
N228   N     0.07651   0.21089   0.95131   0.00000  Uiso   1.00
N229   N     0.11169   0.42598   0.19412   0.00000  Uiso   1.00
N230   N     0.95691   0.96275   0.42156   0.00000  Uiso   1.00
C231   C     0.82589   0.32037   0.70819   0.00000  Uiso   1.00
C232   C     0.89914   0.33651   0.68047   0.00000  Uiso   1.00
C233   C     0.94121   0.30211   0.71926   0.00000  Uiso   1.00
C234   C     0.00654   0.32468   0.68427   0.00000  Uiso   1.00
C235   C     0.11687   0.34135   0.65205   0.00000  Uiso   1.00
C236   C     0.80080   0.30331   0.65821   0.00000  Uiso   1.00
C237   C     0.76018   0.24099   0.67829   0.00000  Uiso   1.00
C238   C     0.74273   0.23562   0.62456   0.00000  Uiso   1.00
C239   C     0.70036   0.20077   0.55778   0.00000  Uiso   1.00
C240   C     0.80596   0.39068   0.69605   0.00000  Uiso   1.00
C241   C     0.76966   0.40183   0.74794   0.00000  Uiso   1.00
C242   C     0.75654   0.47002   0.72607   0.00000  Uiso   1.00
C243   C     0.72218   0.57082   0.71804   0.00000  Uiso   1.00
C244   C     0.86710   0.42163   0.57708   0.00000  Uiso   1.00
C245   C     0.92153   0.39151   0.60925   0.00000  Uiso   1.00
C246   C     0.98681   0.41415   0.57420   0.00000  Uiso   1.00
C247   C     0.02897   0.37979   0.61293   0.00000  Uiso   1.00
C248   C     0.82319   0.35831   0.58699   0.00000  Uiso   1.00
C249   C     0.80579   0.35303   0.53322   0.00000  Uiso   1.00
C250   C     0.76515   0.29072   0.55321   0.00000  Uiso   1.00
C251   C     0.82835   0.44569   0.62483   0.00000  Uiso   1.00
C252   C     0.81527   0.51387   0.60288   0.00000  Uiso   1.00
C253   C     0.77896   0.52512   0.65472   0.00000  Uiso   1.00
H254   H     0.80845   0.27755   0.76364   0.00000  Uiso   1.00
H255   H     0.92386   0.25954   0.77437   0.00000  Uiso   1.00
H256   H     0.74286   0.19844   0.73340   0.00000  Uiso   1.00
H257   H     0.75235   0.35925   0.80304   0.00000  Uiso   1.00
H258   H     0.06168   0.26382   0.75486   0.00000  Uiso   1.00
H259   H     0.68002   0.13500   0.66848   0.00000  Uiso   1.00
H260   H     0.70001   0.47410   0.81533   0.00000  Uiso   1.00
H261   H     0.88453   0.46446   0.52163   0.00000  Uiso   1.00
H262   H     0.00412   0.45671   0.51909   0.00000  Uiso   1.00
H263   H     0.82312   0.39561   0.47812   0.00000  Uiso   1.00
H264   H     0.83261   0.55642   0.54776   0.00000  Uiso   1.00
H265   H     0.12682   0.42384   0.54766   0.00000  Uiso   1.00
H266   H     0.74515   0.29502   0.46128   0.00000  Uiso   1.00
H267   H     0.76516   0.63413   0.60813   0.00000  Uiso   1.00
O268   O     0.17155   0.33535   0.65394   0.00000  Uiso   1.00
O269   O     0.67080   0.16634   0.54062   0.00000  Uiso   1.00
O270   O     0.69705   0.61124   0.73329   0.00000  Uiso   1.00
N271   N     0.06060   0.30255   0.70645   0.00000  Uiso   1.00
N272   N     0.70378   0.18211   0.62569   0.00000  Uiso   1.00
N273   N     0.72246   0.49913   0.76298   0.00000  Uiso   1.00
N274   N     0.09566   0.38866   0.59495   0.00000  Uiso   1.00
N275   N     0.73883   0.26822   0.51419   0.00000  Uiso   1.00
N276   N     0.75751   0.58524   0.65149   0.00000  Uiso   1.00
C277   C     0.54350   0.45590   0.85704   0.00000  Uiso   1.00
C278   C     0.47504   0.41305   0.89475   0.00000  Uiso   1.00
C279   C     0.42617   0.42839   0.93403   0.00000  Uiso   1.00
C280   C     0.36690   0.38269   0.96435   0.00000  Uiso   1.00
C281   C     0.26211   0.32513   0.02421   0.00000  Uiso   1.00
C282   C     0.55503   0.47711   0.77924   0.00000  Uiso   1.00
C283   C     0.57342   0.54630   0.72139   0.00000  Uiso   1.00
C284   C     0.58149   0.55452   0.65447   0.00000  Uiso   1.00
C285   C     0.60092   0.59641   0.53498   0.00000  Uiso   1.00
C286   C     0.58786   0.40324   0.88616   0.00000  Uiso   1.00
C287   C     0.63387   0.41035   0.91820   0.00000  Uiso   1.00
C288   C     0.66959   0.35639   0.94128   0.00000  Uiso   1.00
C289   C     0.73999   0.28359   0.98781   0.00000  Uiso   1.00
C290   C     0.52514   0.34746   0.84105   0.00000  Uiso   1.00
C291   C     0.46507   0.35415   0.88607   0.00000  Uiso   1.00
C292   C     0.40586   0.30841   0.91634   0.00000  Uiso   1.00
C293   C     0.35691   0.32368   0.95566   0.00000  Uiso   1.00
C294   C     0.54505   0.41821   0.77055   0.00000  Uiso   1.00
C295   C     0.55311   0.42633   0.70370   0.00000  Uiso   1.00
C296   C     0.57150   0.49552   0.64577   0.00000  Uiso   1.00
C297   C     0.57788   0.34434   0.87748   0.00000  Uiso   1.00
C298   C     0.61355   0.29037   0.90051   0.00000  Uiso   1.00
C299   C     0.65960   0.29738   0.93258   0.00000  Uiso   1.00
H300   H     0.55127   0.50176   0.86379   0.00000  Uiso   1.00
H301   H     0.43391   0.47398   0.94073   0.00000  Uiso   1.00
H302   H     0.58114   0.59187   0.72812   0.00000  Uiso   1.00
H303   H     0.64157   0.45593   0.92491   0.00000  Uiso   1.00
H304   H     0.29939   0.41722   0.02218   0.00000  Uiso   1.00
H305   H     0.60986   0.66580   0.57389   0.00000  Uiso   1.00
H306   H     0.73729   0.37915   0.98884   0.00000  Uiso   1.00
H307   H     0.51738   0.30160   0.83429   0.00000  Uiso   1.00
H308   H     0.39815   0.26284   0.90961   0.00000  Uiso   1.00
H309   H     0.54539   0.38073   0.69700   0.00000  Uiso   1.00
H310   H     0.60582   0.24479   0.89379   0.00000  Uiso   1.00
H311   H     0.27037   0.24585   0.99692   0.00000  Uiso   1.00
H312   H     0.58084   0.49443   0.54862   0.00000  Uiso   1.00
H313   H     0.70827   0.20778   0.96358   0.00000  Uiso   1.00
O314   O     0.20705   0.30966   0.05961   0.00000  Uiso   1.00
O315   O     0.61439   0.63579   0.47147   0.00000  Uiso   1.00
O316   O     0.78157   0.25970   0.01588   0.00000  Uiso   1.00
N317   N     0.30892   0.38220   0.00591   0.00000  Uiso   1.00
N318   N     0.59918   0.61461   0.58678   0.00000  Uiso   1.00
N319   N     0.71833   0.34662   0.97471   0.00000  Uiso   1.00
N320   N     0.29331   0.28999   0.99232   0.00000  Uiso   1.00
N321   N     0.58357   0.52240   0.57319   0.00000  Uiso   1.00
N322   N     0.70272   0.25441   0.96112   0.00000  Uiso   1.00
C323   C     0.60139   0.89961   0.82466   0.00000  Uiso   1.00
C324   C     0.52836   0.87611   0.85001   0.00000  Uiso   1.00
C325   C     0.49492   0.80768   0.90107   0.00000  Uiso   1.00
C326   C     0.42819   0.79702   0.91684   0.00000  Uiso   1.00
C327   C     0.31967   0.75204   0.96141   0.00000  Uiso   1.00
C328   C     0.61539   0.96150   0.83671   0.00000  Uiso   1.00
C329   C     0.65512   0.96486   0.87658   0.00000  Uiso   1.00
C330   C     0.66166   0.02608   0.88114   0.00000  Uiso   1.00
C331   C     0.68829   0.11369   0.90501   0.00000  Uiso   1.00
C332   C     0.61998   0.93165   0.74425   0.00000  Uiso   1.00
C333   C     0.66358   0.90994   0.70637   0.00000  Uiso   1.00
C334   C     0.67400   0.94605   0.63308   0.00000  Uiso   1.00
C335   C     0.70775   0.98732   0.51339   0.00000  Uiso   1.00
C336   C     0.54237   0.00236   0.76186   0.00000  Uiso   1.00
C337   C     0.49630   0.93192   0.81590   0.00000  Uiso   1.00
C338   C     0.42961   0.92136   0.83159   0.00000  Uiso   1.00
C339   C     0.39607   0.85293   0.88266   0.00000  Uiso   1.00
C340   C     0.58333   0.01730   0.80260   0.00000  Uiso   1.00
C341   C     0.58982   0.07854   0.80709   0.00000  Uiso   1.00
C342   C     0.62955   0.08199   0.84696   0.00000  Uiso   1.00
C343   C     0.58792   0.98746   0.71013   0.00000  Uiso   1.00
C344   C     0.59828   0.02362   0.63689   0.00000  Uiso   1.00
C345   C     0.64189   0.00196   0.59891   0.00000  Uiso   1.00
H346   H     0.62635   0.85617   0.85122   0.00000  Uiso   1.00
H347   H     0.51974   0.76450   0.92746   0.00000  Uiso   1.00
H348   H     0.67993   0.92167   0.90296   0.00000  Uiso   1.00
H349   H     0.68838   0.86675   0.73279   0.00000  Uiso   1.00
H350   H     0.38741   0.68750   0.99697   0.00000  Uiso   1.00
H351   H     0.72518   0.01889   0.94529   0.00000  Uiso   1.00
H352   H     0.74302   0.90309   0.58643   0.00000  Uiso   1.00
H353   H     0.51741   0.04582   0.73530   0.00000  Uiso   1.00
H354   H     0.40482   0.96456   0.80518   0.00000  Uiso   1.00
H355   H     0.56500   0.12172   0.78068   0.00000  Uiso   1.00
H356   H     0.57346   0.06680   0.61051   0.00000  Uiso   1.00
H357   H     0.29413   0.84987   0.89772   0.00000  Uiso   1.00
H358   H     0.63191   0.18126   0.84604   0.00000  Uiso   1.00
H359   H     0.64974   0.06546   0.48718   0.00000  Uiso   1.00
O360   O     0.26867   0.71182   0.99542   0.00000  Uiso   1.00
O361   O     0.71183   0.14659   0.92761   0.00000  Uiso   1.00
O362   O     0.73522   0.99466   0.45680   0.00000  Uiso   1.00
N363   N     0.38091   0.73686   0.96401   0.00000  Uiso   1.00
N364   N     0.69670   0.04669   0.91570   0.00000  Uiso   1.00
N365   N     0.71339   0.93844   0.58020   0.00000  Uiso   1.00
N366   N     0.33071   0.82423   0.91060   0.00000  Uiso   1.00
N367   N     0.64651   0.13406   0.86230   0.00000  Uiso   1.00
N368   N     0.66319   0.02581   0.52679   0.00000  Uiso   1.00
C369   C     0.49190   0.44980   0.30838   0.00000  Uiso   1.00
C370   C     0.42462   0.43341   0.35738   0.00000  Uiso   1.00
C371   C     0.36755   0.43643   0.33809   0.00000  Uiso   1.00
C372   C     0.31101   0.41947   0.39069   0.00000  Uiso   1.00
C373   C     0.20646   0.39692   0.45623   0.00000  Uiso   1.00
C374   C     0.52111   0.38337   0.34387   0.00000  Uiso   1.00
C375   C     0.54517   0.34432   0.31322   0.00000  Uiso   1.00
C376   C     0.56986   0.28524   0.35445   0.00000  Uiso   1.00
C377   C     0.61515   0.18503   0.39900   0.00000  Uiso   1.00
C378   C     0.53070   0.50830   0.31141   0.00000  Uiso   1.00
C379   C     0.56283   0.57428   0.25345   0.00000  Uiso   1.00
C380   C     0.59560   0.62037   0.26734   0.00000  Uiso   1.00
C381   C     0.65578   0.71413   0.26148   0.00000  Uiso   1.00
C382   C     0.49298   0.41431   0.43609   0.00000  Uiso   1.00
C383   C     0.42521   0.41414   0.42675   0.00000  Uiso   1.00
C384   C     0.36875   0.39717   0.47939   0.00000  Uiso   1.00
C385   C     0.31160   0.40016   0.46018   0.00000  Uiso   1.00
C386   C     0.52170   0.36409   0.41324   0.00000  Uiso   1.00
C387   C     0.54637   0.30506   0.45452   0.00000  Uiso   1.00
C388   C     0.57045   0.26593   0.42394   0.00000  Uiso   1.00
C389   C     0.53128   0.48902   0.38077   0.00000  Uiso   1.00
C390   C     0.56402   0.53502   0.39475   0.00000  Uiso   1.00
C391   C     0.59619   0.60106   0.33683   0.00000  Uiso   1.00
H392   H     0.49144   0.46481   0.25438   0.00000  Uiso   1.00
H393   H     0.36711   0.45135   0.28441   0.00000  Uiso   1.00
H394   H     0.54471   0.35926   0.25954   0.00000  Uiso   1.00
H395   H     0.56236   0.58918   0.19978   0.00000  Uiso   1.00
H396   H     0.22953   0.42790   0.34830   0.00000  Uiso   1.00
H397   H     0.60403   0.23374   0.29585   0.00000  Uiso   1.00
H398   H     0.64125   0.71857   0.16984   0.00000  Uiso   1.00
H399   H     0.49344   0.39930   0.49010   0.00000  Uiso   1.00
H400   H     0.36922   0.38225   0.53306   0.00000  Uiso   1.00
H401   H     0.54682   0.29016   0.50819   0.00000  Uiso   1.00
H402   H     0.56447   0.52008   0.44844   0.00000  Uiso   1.00
H403   H     0.23124   0.37181   0.55012   0.00000  Uiso   1.00
H404   H     0.60574   0.17766   0.49767   0.00000  Uiso   1.00
H405   H     0.64296   0.66249   0.37166   0.00000  Uiso   1.00
O406   O     0.14863   0.38980   0.47322   0.00000  Uiso   1.00
O407   O     0.63997   0.13508   0.40441   0.00000  Uiso   1.00
O408   O     0.68880   0.77117   0.23909   0.00000  Uiso   1.00
N409   N     0.24698   0.41705   0.38990   0.00000  Uiso   1.00
N410   N     0.59710   0.23552   0.34086   0.00000  Uiso   1.00
N411   N     0.63192   0.68879   0.22306   0.00000  Uiso   1.00
N412   N     0.24790   0.38688   0.49849   0.00000  Uiso   1.00
N413   N     0.59802   0.20534   0.44946   0.00000  Uiso   1.00
N414   N     0.63284   0.65861   0.33165   0.00000  Uiso   1.00
C415   C     0.08252   0.45657   0.84825   0.00000  Uiso   1.00
C416   C     0.02357   0.49201   0.84079   0.00000  Uiso   1.00
C417   C     0.96017   0.45676   0.86519   0.00000  Uiso   1.00
C418   C     0.91313   0.49880   0.85314   0.00000  Uiso   1.00
C419   C     0.81918   0.54249   0.84686   0.00000  Uiso   1.00
C420   C     0.12672   0.48915   0.77302   0.00000  Uiso   1.00
C421   C     0.15005   0.45149   0.74047   0.00000  Uiso   1.00
C422   C     0.18985   0.49113   0.67138   0.00000  Uiso   1.00
C423   C     0.25608   0.53038   0.55992   0.00000  Uiso   1.00
C424   C     0.11729   0.48266   0.88653   0.00000  Uiso   1.00
C425   C     0.13272   0.43954   0.94941   0.00000  Uiso   1.00
C426   C     0.16460   0.47370   0.97587   0.00000  Uiso   1.00
C427   C     0.21619   0.50287   0.04066   0.00000  Uiso   1.00
C428   C     0.11172   0.59392   0.78345   0.00000  Uiso   1.00
C429   C     0.03943   0.56662   0.80558   0.00000  Uiso   1.00
C430   C     0.99247   0.60873   0.79349   0.00000  Uiso   1.00
C431   C     0.92901   0.57354   0.81788   0.00000  Uiso   1.00
C432   C     0.14257   0.56376   0.73782   0.00000  Uiso   1.00
C433   C     0.18235   0.60346   0.66877   0.00000  Uiso   1.00
C434   C     0.20574   0.56587   0.63611   0.00000  Uiso   1.00
C435   C     0.13315   0.55727   0.85134   0.00000  Uiso   1.00
C436   C     0.16501   0.59150   0.87771   0.00000  Uiso   1.00
C437   C     0.18048   0.54844   0.94061   0.00000  Uiso   1.00
H438   H     0.07018   0.39848   0.87565   0.00000  Uiso   1.00
H439   H     0.94792   0.39902   0.89242   0.00000  Uiso   1.00
H440   H     0.13778   0.39376   0.76772   0.00000  Uiso   1.00
H441   H     0.12044   0.38181   0.97663   0.00000  Uiso   1.00
H442   H     0.81936   0.43252   0.89547   0.00000  Uiso   1.00
H443   H     0.21971   0.42142   0.63254   0.00000  Uiso   1.00
H444   H     0.18316   0.39621   0.07306   0.00000  Uiso   1.00
H445   H     0.12406   0.65201   0.75604   0.00000  Uiso   1.00
H446   H     0.00475   0.66646   0.76625   0.00000  Uiso   1.00
H447   H     0.19462   0.66119   0.64155   0.00000  Uiso   1.00
H448   H     0.17728   0.64924   0.85045   0.00000  Uiso   1.00
H449   H     0.86549   0.64958   0.79306   0.00000  Uiso   1.00
H450   H     0.26584   0.63848   0.53013   0.00000  Uiso   1.00
H451   H     0.22929   0.61327   0.97065   0.00000  Uiso   1.00
O452   O     0.76297   0.54598   0.85312   0.00000  Uiso   1.00
O453   O     0.28822   0.53141   0.50817   0.00000  Uiso   1.00
O454   O     0.24026   0.49835   0.08612   0.00000  Uiso   1.00
N455   N     0.84659   0.48162   0.86998   0.00000  Uiso   1.00
N456   N     0.22089   0.47124   0.62415   0.00000  Uiso   1.00
N457   N     0.18672   0.44768   0.03599   0.00000  Uiso   1.00
N458   N     0.87141   0.59842   0.81488   0.00000  Uiso   1.00
N459   N     0.24571   0.58804   0.56905   0.00000  Uiso   1.00
N460   N     0.21155   0.56448   0.98089   0.00000  Uiso   1.00
C461   C     0.10622   0.97359   0.68946   0.00000  Uiso   1.00
C462   C     0.03666   0.93357   0.72304   0.00000  Uiso   1.00
C463   C     0.99110   0.93862   0.77381   0.00000  Uiso   1.00
C464   C     0.93011   0.89766   0.79786   0.00000  Uiso   1.00
C465   C     0.82436   0.84224   0.85395   0.00000  Uiso   1.00
C466   C     0.14802   0.91659   0.70341   0.00000  Uiso   1.00
C467   C     0.19610   0.90738   0.73767   0.00000  Uiso   1.00
C468   C     0.22886   0.85213   0.74519   0.00000  Uiso   1.00
C469   C     0.29603   0.77039   0.77076   0.00000  Uiso   1.00
C470   C     0.11529   0.01461   0.60934   0.00000  Uiso   1.00
C471   C     0.13586   0.08780   0.56450   0.00000  Uiso   1.00
C472   C     0.14109   0.11508   0.49281   0.00000  Uiso   1.00
C473   C     0.15744   0.18552   0.37232   0.00000  Uiso   1.00
C474   C     0.07893   0.89188   0.64187   0.00000  Uiso   1.00
C475   C     0.02183   0.88919   0.69719   0.00000  Uiso   1.00
C476   C     0.96090   0.84821   0.72116   0.00000  Uiso   1.00
C477   C     0.91526   0.85320   0.77196   0.00000  Uiso   1.00
C478   C     0.13320   0.87221   0.67756   0.00000  Uiso   1.00
C479   C     0.16590   0.81697   0.68502   0.00000  Uiso   1.00
C480   C     0.21401   0.80767   0.71929   0.00000  Uiso   1.00
C481   C     0.10046   0.97023   0.58349   0.00000  Uiso   1.00
C482   C     0.10566   0.99739   0.51185   0.00000  Uiso   1.00
C483   C     0.12623   0.07061   0.46692   0.00000  Uiso   1.00
H484   H     0.11777   0.00815   0.70959   0.00000  Uiso   1.00
H485   H     0.00259   0.97297   0.79381   0.00000  Uiso   1.00
H486   H     0.20756   0.94174   0.75766   0.00000  Uiso   1.00
H487   H     0.14733   0.12213   0.58452   0.00000  Uiso   1.00
H488   H     0.86837   0.91438   0.87580   0.00000  Uiso   1.00
H489   H     0.30058   0.84854   0.79957   0.00000  Uiso   1.00
H490   H     0.17357   0.22894   0.43447   0.00000  Uiso   1.00
H491   H     0.06739   0.85732   0.62175   0.00000  Uiso   1.00
H492   H     0.94944   0.81387   0.70115   0.00000  Uiso   1.00
H493   H     0.15442   0.78263   0.66501   0.00000  Uiso   1.00
H494   H     0.09418   0.96303   0.49187   0.00000  Uiso   1.00
H495   H     0.82523   0.78524   0.80060   0.00000  Uiso   1.00
H496   H     0.25744   0.71940   0.72437   0.00000  Uiso   1.00
H497   H     0.13043   0.09980   0.35926   0.00000  Uiso   1.00
O498   O     0.77013   0.82393   0.89203   0.00000  Uiso   1.00
O499   O     0.33718   0.73756   0.79201   0.00000  Uiso   1.00
O500   O     0.17054   0.23663   0.31301   0.00000  Uiso   1.00
N501   N     0.87440   0.88996   0.84719   0.00000  Uiso   1.00
N502   N     0.27848   0.82839   0.77593   0.00000  Uiso   1.00
N503   N     0.15976   0.18404   0.43459   0.00000  Uiso   1.00
N504   N     0.85118   0.82047   0.80673   0.00000  Uiso   1.00
N505   N     0.25527   0.75891   0.73547   0.00000  Uiso   1.00
N506   N     0.13654   0.11455   0.39412   0.00000  Uiso   1.00
C507   C     0.06384   0.79794   0.23870   0.00000  Uiso   1.00
C508   C     0.02594   0.78379   0.31140   0.00000  Uiso   1.00
C509   C     0.95933   0.77036   0.33670   0.00000  Uiso   1.00
C510   C     0.93394   0.75875   0.40462   0.00000  Uiso   1.00
C511   C     0.86903   0.73654   0.51125   0.00000  Uiso   1.00
C512   C     0.10864   0.86990   0.20341   0.00000  Uiso   1.00
C513   C     0.11156   0.92886   0.13791   0.00000  Uiso   1.00
C514   C     0.15580   0.98973   0.11492   0.00000  Uiso   1.00
C515   C     0.21932   0.10119   0.05387   0.00000  Uiso   1.00
C516   C     0.10721   0.74238   0.25311   0.00000  Uiso   1.00
C517   C     0.10895   0.69413   0.22938   0.00000  Uiso   1.00
C518   C     0.15199   0.64766   0.24822   0.00000  Uiso   1.00
C519   C     0.21329   0.56113   0.26434   0.00000  Uiso   1.00
C520   C     0.13720   0.80121   0.31435   0.00000  Uiso   1.00
C521   C     0.06579   0.78557   0.35249   0.00000  Uiso   1.00
C522   C     0.04050   0.77398   0.42039   0.00000  Uiso   1.00
C523   C     0.97386   0.76052   0.44578   0.00000  Uiso   1.00
C524   C     0.14849   0.87168   0.24450   0.00000  Uiso   1.00
C525   C     0.19273   0.93248   0.22160   0.00000  Uiso   1.00
C526   C     0.19572   0.99151   0.15608   0.00000  Uiso   1.00
C527   C     0.14706   0.74416   0.29420   0.00000  Uiso   1.00
C528   C     0.19011   0.69775   0.31308   0.00000  Uiso   1.00
C529   C     0.19191   0.64944   0.28938   0.00000  Uiso   1.00
H530   H     0.03282   0.79656   0.20671   0.00000  Uiso   1.00
H531   H     0.92851   0.76899   0.30488   0.00000  Uiso   1.00
H532   H     0.08073   0.92746   0.10612   0.00000  Uiso   1.00
H533   H     0.07810   0.69278   0.19759   0.00000  Uiso   1.00
H534   H     0.83043   0.73924   0.43184   0.00000  Uiso   1.00
H535   H     0.15141   0.07337   0.01273   0.00000  Uiso   1.00
H536   H     0.14588   0.57849   0.20560   0.00000  Uiso   1.00
H537   H     0.16823   0.80260   0.34633   0.00000  Uiso   1.00
H538   H     0.07134   0.77535   0.45218   0.00000  Uiso   1.00
H539   H     0.22356   0.93383   0.25341   0.00000  Uiso   1.00
H540   H     0.22094   0.69914   0.34488   0.00000  Uiso   1.00
H541   H     0.94636   0.74440   0.55139   0.00000  Uiso   1.00
H542   H     0.26734   0.07854   0.13227   0.00000  Uiso   1.00
H543   H     0.26181   0.58365   0.32514   0.00000  Uiso   1.00
O544   O     0.82222   0.72381   0.55871   0.00000  Uiso   1.00
O545   O     0.24334   0.16218   0.00885   0.00000  Uiso   1.00
O546   O     0.23608   0.51290   0.26189   0.00000  Uiso   1.00
N547   N     0.87101   0.74418   0.44545   0.00000  Uiso   1.00
N548   N     0.17110   0.05658   0.05361   0.00000  Uiso   1.00
N549   N     0.16594   0.59391   0.23391   0.00000  Uiso   1.00
N550   N     0.93339   0.74696   0.50978   0.00000  Uiso   1.00
N551   N     0.23348   0.05936   0.11794   0.00000  Uiso   1.00
N552   N     0.22833   0.59669   0.29824   0.00000  Uiso   1.00
