data_job_00644
_audit_creation_date              2018-12-19
_audit_creation_method            'Materials Studio'
_symmetry_space_group_name_H-M    'P1'
_symmetry_Int_Tables_number       1
_symmetry_cell_setting            triclinic
loop_
_symmetry_equiv_pos_as_xyz
  x,y,z
_cell_length_a                    15.5873
_cell_length_b                    21.1109
_cell_length_c                    7.6201
_cell_angle_alpha                 90.0000
_cell_angle_beta                  90.0000
_cell_angle_gamma                 90.0000
loop_
_atom_site_label
_atom_site_type_symbol
_atom_site_fract_x
_atom_site_fract_y
_atom_site_fract_z
_atom_site_U_iso_or_equiv
_atom_site_adp_type
_atom_site_occupancy
C1     C     0.86224   0.72398   0.71673   0.00000  Uiso   1.00
C2     C     0.91298   0.70230   0.55651   0.00000  Uiso   1.00
C3     C     0.98835   0.66733   0.55985   0.00000  Uiso   1.00
C4     C     0.02494   0.65222   0.39909   0.00000  Uiso   1.00
C5     C     0.10944   0.61566   0.17440   0.00000  Uiso   1.00
C6     C     0.85475   0.79579   0.70125   0.00000  Uiso   1.00
C7     C     0.88116   0.83942   0.82631   0.00000  Uiso   1.00
C8     C     0.86873   0.90301   0.78739   0.00000  Uiso   1.00
C9     C     0.86278   0.01159   0.78747   0.00000  Uiso   1.00
C10    C     0.77168   0.69809   0.69269   0.00000  Uiso   1.00
C11    C     0.72822   0.65959   0.81057   0.00000  Uiso   1.00
C12    C     0.64583   0.64094   0.76447   0.00000  Uiso   1.00
C13    C     0.51089   0.59783   0.75126   0.00000  Uiso   1.00
C14    C     0.79318   0.75933   0.42529   0.00000  Uiso   1.00
C15    C     0.87546   0.72150   0.39821   0.00000  Uiso   1.00
C16    C     0.91194   0.70644   0.23741   0.00000  Uiso   1.00
C17    C     0.98736   0.67145   0.24051   0.00000  Uiso   1.00
C18    C     0.81724   0.81499   0.54296   0.00000  Uiso   1.00
C19    C     0.80476   0.87853   0.50386   0.00000  Uiso   1.00
C20    C     0.83115   0.92225   0.62881   0.00000  Uiso   1.00
C21    C     0.73416   0.71728   0.53439   0.00000  Uiso   1.00
C22    C     0.65182   0.69869   0.48811   0.00000  Uiso   1.00
C23    C     0.60825   0.66017   0.60588   0.00000  Uiso   1.00
H24    H     0.89145   0.70904   0.83997   0.00000  Uiso   1.00
H25    H     0.01736   0.65249   0.68239   0.00000  Uiso   1.00
H26    H     0.91018   0.82455   0.94880   0.00000  Uiso   1.00
H27    H     0.75727   0.64474   0.93305   0.00000  Uiso   1.00
H28    H     0.14044   0.59828   0.43787   0.00000  Uiso   1.00
H29    H     0.91442   0.96108   0.99964   0.00000  Uiso   1.00
H30    H     0.59197   0.58193   0.96645   0.00000  Uiso   1.00
H31    H     0.76398   0.77427   0.30204   0.00000  Uiso   1.00
H32    H     0.88290   0.72130   0.11493   0.00000  Uiso   1.00
H33    H     0.77572   0.89337   0.38135   0.00000  Uiso   1.00
H34    H     0.62281   0.71356   0.36560   0.00000  Uiso   1.00
H35    H     0.03131   0.65413   0.97729   0.00000  Uiso   1.00
H36    H     0.80529   0.01694   0.53908   0.00000  Uiso   1.00
H37    H     0.48284   0.63778   0.50587   0.00000  Uiso   1.00
O38    O     0.16642   0.59020   0.09420   0.00000  Uiso   1.00
O39    O     0.86988   0.06618   0.83125   0.00000  Uiso   1.00
O40    O     0.44683   0.56874   0.78769   0.00000  Uiso   1.00
N41    N     0.09843   0.61868   0.35515   0.00000  Uiso   1.00
N42    N     0.88713   0.95788   0.88037   0.00000  Uiso   1.00
N43    N     0.58565   0.60342   0.84935   0.00000  Uiso   1.00
N44    N     0.03970   0.64873   0.10732   0.00000  Uiso   1.00
N45    N     0.82840   0.98794   0.63254   0.00000  Uiso   1.00
N46    N     0.52693   0.63347   0.60152   0.00000  Uiso   1.00
C47    C     0.63776   0.27602   0.21673   0.00000  Uiso   1.00
C48    C     0.58702   0.29770   0.05651   0.00000  Uiso   1.00
C49    C     0.51165   0.33267   0.05985   0.00000  Uiso   1.00
C50    C     0.47506   0.34778   0.89909   0.00000  Uiso   1.00
C51    C     0.39056   0.38434   0.67440   0.00000  Uiso   1.00
C52    C     0.64525   0.20421   0.20125   0.00000  Uiso   1.00
C53    C     0.61884   0.16058   0.32631   0.00000  Uiso   1.00
C54    C     0.63127   0.09699   0.28739   0.00000  Uiso   1.00
C55    C     0.63722   0.98841   0.28747   0.00000  Uiso   1.00
C56    C     0.72832   0.30191   0.19269   0.00000  Uiso   1.00
C57    C     0.77178   0.34041   0.31057   0.00000  Uiso   1.00
C58    C     0.85417   0.35906   0.26447   0.00000  Uiso   1.00
C59    C     0.98911   0.40217   0.25126   0.00000  Uiso   1.00
C60    C     0.70682   0.24067   0.92529   0.00000  Uiso   1.00
C61    C     0.62454   0.27850   0.89821   0.00000  Uiso   1.00
C62    C     0.58806   0.29356   0.73741   0.00000  Uiso   1.00
C63    C     0.51264   0.32855   0.74051   0.00000  Uiso   1.00
C64    C     0.68276   0.18501   0.04296   0.00000  Uiso   1.00
C65    C     0.69524   0.12147   0.00386   0.00000  Uiso   1.00
C66    C     0.66885   0.07775   0.12881   0.00000  Uiso   1.00
C67    C     0.76584   0.28272   0.03439   0.00000  Uiso   1.00
C68    C     0.84818   0.30131   0.98811   0.00000  Uiso   1.00
C69    C     0.89175   0.33983   0.10588   0.00000  Uiso   1.00
H70    H     0.60855   0.29096   0.33997   0.00000  Uiso   1.00
H71    H     0.48264   0.34751   0.18239   0.00000  Uiso   1.00
H72    H     0.58982   0.17545   0.44880   0.00000  Uiso   1.00
H73    H     0.74273   0.35526   0.43305   0.00000  Uiso   1.00
H74    H     0.35956   0.40172   0.93787   0.00000  Uiso   1.00
H75    H     0.58558   0.03892   0.49964   0.00000  Uiso   1.00
H76    H     0.90803   0.41807   0.46645   0.00000  Uiso   1.00
H77    H     0.73602   0.22573   0.80204   0.00000  Uiso   1.00
H78    H     0.61710   0.27870   0.61493   0.00000  Uiso   1.00
H79    H     0.72428   0.10663   0.88135   0.00000  Uiso   1.00
H80    H     0.87719   0.28644   0.86560   0.00000  Uiso   1.00
H81    H     0.46869   0.34587   0.47729   0.00000  Uiso   1.00
H82    H     0.69471   0.98306   0.03908   0.00000  Uiso   1.00
H83    H     0.01716   0.36222   0.00587   0.00000  Uiso   1.00
O84    O     0.33358   0.40980   0.59420   0.00000  Uiso   1.00
O85    O     0.63012   0.93382   0.33125   0.00000  Uiso   1.00
O86    O     0.05317   0.43126   0.28769   0.00000  Uiso   1.00
N87    N     0.40157   0.38132   0.85515   0.00000  Uiso   1.00
N88    N     0.61287   0.04212   0.38037   0.00000  Uiso   1.00
N89    N     0.91435   0.39658   0.34935   0.00000  Uiso   1.00
N90    N     0.46030   0.35127   0.60732   0.00000  Uiso   1.00
N91    N     0.67160   0.01206   0.13254   0.00000  Uiso   1.00
N92    N     0.97307   0.36653   0.10152   0.00000  Uiso   1.00
C93    C     0.13776   0.22398   0.78327   0.00000  Uiso   1.00
C94    C     0.08702   0.20230   0.94349   0.00000  Uiso   1.00
C95    C     0.01165   0.16733   0.94015   0.00000  Uiso   1.00
C96    C     0.97506   0.15222   0.10091   0.00000  Uiso   1.00
C97    C     0.89056   0.11566   0.32560   0.00000  Uiso   1.00
C98    C     0.14525   0.29579   0.79875   0.00000  Uiso   1.00
C99    C     0.11884   0.33942   0.67369   0.00000  Uiso   1.00
C100   C     0.13127   0.40301   0.71261   0.00000  Uiso   1.00
C101   C     0.13722   0.51159   0.71253   0.00000  Uiso   1.00
C102   C     0.22832   0.19809   0.80731   0.00000  Uiso   1.00
C103   C     0.27178   0.15959   0.68943   0.00000  Uiso   1.00
C104   C     0.35417   0.14094   0.73553   0.00000  Uiso   1.00
C105   C     0.48911   0.09783   0.74874   0.00000  Uiso   1.00
C106   C     0.20682   0.25933   0.07471   0.00000  Uiso   1.00
C107   C     0.12454   0.22150   0.10179   0.00000  Uiso   1.00
C108   C     0.08806   0.20644   0.26259   0.00000  Uiso   1.00
C109   C     0.01264   0.17145   0.25949   0.00000  Uiso   1.00
C110   C     0.18276   0.31499   0.95704   0.00000  Uiso   1.00
C111   C     0.19524   0.37853   0.99614   0.00000  Uiso   1.00
C112   C     0.16885   0.42225   0.87119   0.00000  Uiso   1.00
C113   C     0.26584   0.21728   0.96561   0.00000  Uiso   1.00
C114   C     0.34818   0.19869   0.01189   0.00000  Uiso   1.00
C115   C     0.39175   0.16017   0.89412   0.00000  Uiso   1.00
H116   H     0.10855   0.20904   0.66003   0.00000  Uiso   1.00
H117   H     0.98264   0.15249   0.81761   0.00000  Uiso   1.00
H118   H     0.08982   0.32455   0.55120   0.00000  Uiso   1.00
H119   H     0.24273   0.14474   0.56695   0.00000  Uiso   1.00
H120   H     0.85956   0.09828   0.06213   0.00000  Uiso   1.00
H121   H     0.08558   0.46108   0.50036   0.00000  Uiso   1.00
H122   H     0.40803   0.08193   0.53355   0.00000  Uiso   1.00
H123   H     0.23602   0.27427   0.19796   0.00000  Uiso   1.00
H124   H     0.11710   0.22130   0.38507   0.00000  Uiso   1.00
H125   H     0.22428   0.39337   0.11865   0.00000  Uiso   1.00
H126   H     0.37719   0.21356   0.13440   0.00000  Uiso   1.00
H127   H     0.96869   0.15413   0.52271   0.00000  Uiso   1.00
H128   H     0.19471   0.51694   0.96092   0.00000  Uiso   1.00
H129   H     0.51716   0.13778   0.99413   0.00000  Uiso   1.00
O130   O     0.83358   0.09020   0.40580   0.00000  Uiso   1.00
O131   O     0.13012   0.56618   0.66875   0.00000  Uiso   1.00
O132   O     0.55317   0.06874   0.71231   0.00000  Uiso   1.00
N133   N     0.90157   0.11868   0.14485   0.00000  Uiso   1.00
N134   N     0.11287   0.45788   0.61963   0.00000  Uiso   1.00
N135   N     0.41435   0.10342   0.65065   0.00000  Uiso   1.00
N136   N     0.96030   0.14873   0.39268   0.00000  Uiso   1.00
N137   N     0.17160   0.48794   0.86746   0.00000  Uiso   1.00
N138   N     0.47307   0.13347   0.89848   0.00000  Uiso   1.00
C139   C     0.36224   0.77602   0.28327   0.00000  Uiso   1.00
C140   C     0.41298   0.79770   0.44349   0.00000  Uiso   1.00
C141   C     0.48835   0.83267   0.44015   0.00000  Uiso   1.00
C142   C     0.52494   0.84778   0.60091   0.00000  Uiso   1.00
C143   C     0.60944   0.88434   0.82560   0.00000  Uiso   1.00
C144   C     0.35475   0.70421   0.29875   0.00000  Uiso   1.00
C145   C     0.38116   0.66058   0.17369   0.00000  Uiso   1.00
C146   C     0.36873   0.59699   0.21261   0.00000  Uiso   1.00
C147   C     0.36278   0.48841   0.21253   0.00000  Uiso   1.00
C148   C     0.27168   0.80191   0.30731   0.00000  Uiso   1.00
C149   C     0.22822   0.84041   0.18943   0.00000  Uiso   1.00
C150   C     0.14583   0.85906   0.23553   0.00000  Uiso   1.00
C151   C     0.01089   0.90217   0.24874   0.00000  Uiso   1.00
C152   C     0.29318   0.74067   0.57471   0.00000  Uiso   1.00
C153   C     0.37546   0.77850   0.60179   0.00000  Uiso   1.00
C154   C     0.41194   0.79356   0.76259   0.00000  Uiso   1.00
C155   C     0.48736   0.82855   0.75949   0.00000  Uiso   1.00
C156   C     0.31724   0.68501   0.45704   0.00000  Uiso   1.00
C157   C     0.30476   0.62147   0.49614   0.00000  Uiso   1.00
C158   C     0.33115   0.57775   0.37119   0.00000  Uiso   1.00
C159   C     0.23416   0.78272   0.46561   0.00000  Uiso   1.00
C160   C     0.15182   0.80131   0.51189   0.00000  Uiso   1.00
C161   C     0.10825   0.83983   0.39412   0.00000  Uiso   1.00
H162   H     0.39145   0.79096   0.16003   0.00000  Uiso   1.00
H163   H     0.51736   0.84751   0.31761   0.00000  Uiso   1.00
H164   H     0.41018   0.67545   0.05120   0.00000  Uiso   1.00
H165   H     0.25727   0.85526   0.06695   0.00000  Uiso   1.00
H166   H     0.64044   0.90172   0.56213   0.00000  Uiso   1.00
H167   H     0.41442   0.53892   0.00036   0.00000  Uiso   1.00
H168   H     0.09197   0.91807   0.03355   0.00000  Uiso   1.00
H169   H     0.26398   0.72573   0.69796   0.00000  Uiso   1.00
H170   H     0.38290   0.77870   0.88507   0.00000  Uiso   1.00
H171   H     0.27572   0.60663   0.61865   0.00000  Uiso   1.00
H172   H     0.12281   0.78644   0.63440   0.00000  Uiso   1.00
H173   H     0.53131   0.84587   0.02271   0.00000  Uiso   1.00
H174   H     0.30529   0.48306   0.46092   0.00000  Uiso   1.00
H175   H     0.98284   0.86222   0.49413   0.00000  Uiso   1.00
O176   O     0.66642   0.90980   0.90580   0.00000  Uiso   1.00
O177   O     0.36988   0.43382   0.16875   0.00000  Uiso   1.00
O178   O     0.94683   0.93126   0.21231   0.00000  Uiso   1.00
N179   N     0.59843   0.88132   0.64485   0.00000  Uiso   1.00
N180   N     0.38713   0.54212   0.11963   0.00000  Uiso   1.00
N181   N     0.08565   0.89658   0.15065   0.00000  Uiso   1.00
N182   N     0.53970   0.85127   0.89268   0.00000  Uiso   1.00
N183   N     0.32840   0.51206   0.36746   0.00000  Uiso   1.00
N184   N     0.02693   0.86653   0.39848   0.00000  Uiso   1.00
