data_job_06202
_audit_creation_date              2018-12-19
_audit_creation_method            'Materials Studio'
_symmetry_space_group_name_H-M    'P1'
_symmetry_Int_Tables_number       1
_symmetry_cell_setting            triclinic
loop_
_symmetry_equiv_pos_as_xyz
  x,y,z
_cell_length_a                    17.5546
_cell_length_b                    17.4391
_cell_length_c                    17.1495
_cell_angle_alpha                 83.6457
_cell_angle_beta                  83.5846
_cell_angle_gamma                 83.1297
loop_
_atom_site_label
_atom_site_type_symbol
_atom_site_fract_x
_atom_site_fract_y
_atom_site_fract_z
_atom_site_U_iso_or_equiv
_atom_site_adp_type
_atom_site_occupancy
C1     C     0.02169   0.40698   0.57428   0.00000  Uiso   1.00
C2     C     0.95150   0.42650   0.63233   0.00000  Uiso   1.00
C3     C     0.89568   0.48922   0.62230   0.00000  Uiso   1.00
C4     C     0.83601   0.49698   0.68221   0.00000  Uiso   1.00
C5     C     0.72761   0.53538   0.76210   0.00000  Uiso   1.00
C6     C     0.09176   0.40313   0.62028   0.00000  Uiso   1.00
C7     C     0.15386   0.44619   0.60012   0.00000  Uiso   1.00
C8     C     0.21225   0.43426   0.64988   0.00000  Uiso   1.00
C9     C     0.32162   0.43634   0.71104   0.00000  Uiso   1.00
C10    C     0.01721   0.32433   0.55536   0.00000  Uiso   1.00
C11    C     0.01665   0.30114   0.48060   0.00000  Uiso   1.00
C12    C     0.01229   0.22287   0.47570   0.00000  Uiso   1.00
C13    C     0.00592   0.10260   0.43605   0.00000  Uiso   1.00
C14    C     0.01498   0.30922   0.69851   0.00000  Uiso   1.00
C15    C     0.94786   0.37340   0.69981   0.00000  Uiso   1.00
C16    C     0.88826   0.38106   0.75975   0.00000  Uiso   1.00
C17    C     0.83235   0.44378   0.74981   0.00000  Uiso   1.00
C18    C     0.08812   0.35003   0.68776   0.00000  Uiso   1.00
C19    C     0.14644   0.33803   0.73757   0.00000  Uiso   1.00
C20    C     0.20860   0.38107   0.71748   0.00000  Uiso   1.00
C21    C     0.01356   0.27123   0.62284   0.00000  Uiso   1.00
C22    C     0.00922   0.19298   0.61805   0.00000  Uiso   1.00
C23    C     0.00865   0.16967   0.54330   0.00000  Uiso   1.00
H24    H     0.02453   0.44832   0.52174   0.00000  Uiso   1.00
H25    H     0.89852   0.53030   0.57007   0.00000  Uiso   1.00
H26    H     0.15666   0.48727   0.54789   0.00000  Uiso   1.00
H27    H     0.01947   0.34225   0.42839   0.00000  Uiso   1.00
H28    H     0.75723   0.59779   0.65342   0.00000  Uiso   1.00
H29    H     0.30155   0.50704   0.60664   0.00000  Uiso   1.00
H30    H     0.01225   0.20122   0.35465   0.00000  Uiso   1.00
H31    H     0.01214   0.26788   0.75105   0.00000  Uiso   1.00
H32    H     0.88546   0.33996   0.81196   0.00000  Uiso   1.00
H33    H     0.14360   0.29693   0.78978   0.00000  Uiso   1.00
H34    H     0.00640   0.15191   0.67028   0.00000  Uiso   1.00
H35    H     0.74663   0.44330   0.84975   0.00000  Uiso   1.00
H36    H     0.29095   0.35256   0.80296   0.00000  Uiso   1.00
H37    H     0.00164   0.04673   0.55098   0.00000  Uiso   1.00
O38    O     0.66883   0.57123   0.78754   0.00000  Uiso   1.00
O39    O     0.38295   0.45217   0.72614   0.00000  Uiso   1.00
O40    O     0.00339   0.05094   0.39555   0.00000  Uiso   1.00
N41    N     0.77211   0.55153   0.69126   0.00000  Uiso   1.00
N42    N     0.28101   0.46670   0.64753   0.00000  Uiso   1.00
N43    N     0.01056   0.18078   0.41194   0.00000  Uiso   1.00
N44    N     0.76641   0.46840   0.79691   0.00000  Uiso   1.00
N45    N     0.27530   0.38357   0.75317   0.00000  Uiso   1.00
N46    N     0.00485   0.09765   0.51758   0.00000  Uiso   1.00
C47    C     0.57853   0.02089   0.40637   0.00000  Uiso   1.00
C48    C     0.63567   0.95023   0.42597   0.00000  Uiso   1.00
C49    C     0.62599   0.89429   0.48936   0.00000  Uiso   1.00
C50    C     0.68492   0.83417   0.49708   0.00000  Uiso   1.00
C51    C     0.76359   0.72508   0.53573   0.00000  Uiso   1.00
C52    C     0.62295   0.09136   0.40308   0.00000  Uiso   1.00
C53    C     0.60256   0.15408   0.44720   0.00000  Uiso   1.00
C54    C     0.65077   0.21276   0.43564   0.00000  Uiso   1.00
C55    C     0.70965   0.32280   0.43869   0.00000  Uiso   1.00
C56    C     0.56051   0.01607   0.32222   0.00000  Uiso   1.00
C57    C     0.48761   0.01551   0.29834   0.00000  Uiso   1.00
C58    C     0.48326   0.01083   0.21870   0.00000  Uiso   1.00
C59    C     0.44519   0.00398   0.09620   0.00000  Uiso   1.00
C60    C     0.70042   0.01358   0.30736   0.00000  Uiso   1.00
C61    C     0.70188   0.94627   0.37220   0.00000  Uiso   1.00
C62    C     0.76084   0.88621   0.37982   0.00000  Uiso   1.00
C63    C     0.75124   0.83019   0.44321   0.00000  Uiso   1.00
C64    C     0.68915   0.08739   0.34930   0.00000  Uiso   1.00
C65    C     0.73740   0.14600   0.33766   0.00000  Uiso   1.00
C66    C     0.71709   0.20879   0.38176   0.00000  Uiso   1.00
C67    C     0.62671   0.01210   0.26844   0.00000  Uiso   1.00
C68    C     0.62247   0.00743   0.18881   0.00000  Uiso   1.00
C69    C     0.54958   0.00685   0.16482   0.00000  Uiso   1.00
H70    H     0.52699   0.02398   0.44824   0.00000  Uiso   1.00
H71    H     0.57475   0.89739   0.53097   0.00000  Uiso   1.00
H72    H     0.55132   0.15714   0.48880   0.00000  Uiso   1.00
H73    H     0.43640   0.01858   0.33998   0.00000  Uiso   1.00
H74    H     0.65691   0.75530   0.59899   0.00000  Uiso   1.00
H75    H     0.60748   0.30301   0.51007   0.00000  Uiso   1.00
H76    H     0.36515   0.01085   0.19623   0.00000  Uiso   1.00
H77    H     0.75196   0.01050   0.26550   0.00000  Uiso   1.00
H78    H     0.81206   0.88316   0.33820   0.00000  Uiso   1.00
H79    H     0.78863   0.14291   0.29604   0.00000  Uiso   1.00
H80    H     0.67371   0.00436   0.14721   0.00000  Uiso   1.00
H81    H     0.84952   0.74375   0.44254   0.00000  Uiso   1.00
H82    H     0.80009   0.29146   0.35362   0.00000  Uiso   1.00
H83    H     0.55776   0.99930   0.03978   0.00000  Uiso   1.00
O84    O     0.78870   0.66601   0.57190   0.00000  Uiso   1.00
O85    O     0.72385   0.38459   0.45524   0.00000  Uiso   1.00
O86    O     0.40591   0.00128   0.04349   0.00000  Uiso   1.00
N87    N     0.69398   0.77005   0.55218   0.00000  Uiso   1.00
N88    N     0.64778   0.28212   0.46906   0.00000  Uiso   1.00
N89    N     0.42121   0.00900   0.17564   0.00000  Uiso   1.00
N90    N     0.79763   0.76383   0.46800   0.00000  Uiso   1.00
N91    N     0.75142   0.27590   0.38487   0.00000  Uiso   1.00
N92    N     0.52486   0.00278   0.09146   0.00000  Uiso   1.00
C93    C     0.40745   0.57739   0.01821   0.00000  Uiso   1.00
C94    C     0.42651   0.63461   0.94680   0.00000  Uiso   1.00
C95    C     0.48877   0.62455   0.89008   0.00000  Uiso   1.00
C96    C     0.49617   0.68364   0.82934   0.00000  Uiso   1.00
C97    C     0.53385   0.76236   0.71906   0.00000  Uiso   1.00
C98    C     0.40353   0.62239   0.09016   0.00000  Uiso   1.00
C99    C     0.44647   0.60205   0.15397   0.00000  Uiso   1.00
C100   C     0.43450   0.65084   0.21392   0.00000  Uiso   1.00
C101   C     0.43648   0.71056   0.32623   0.00000  Uiso   1.00
C102   C     0.32542   0.55933   0.01288   0.00000  Uiso   1.00
C103   C     0.30267   0.48597   0.01175   0.00000  Uiso   1.00
C104   C     0.22493   0.48167   0.00666   0.00000  Uiso   1.00
C105   C     0.10562   0.44348   0.99899   0.00000  Uiso   1.00
C106   C     0.30985   0.70020   0.01121   0.00000  Uiso   1.00
C107   C     0.37350   0.70131   0.94300   0.00000  Uiso   1.00
C108   C     0.38079   0.76043   0.88233   0.00000  Uiso   1.00
C109   C     0.44306   0.75046   0.82553   0.00000  Uiso   1.00
C110   C     0.35052   0.68909   0.08636   0.00000  Uiso   1.00
C111   C     0.33849   0.73792   0.14623   0.00000  Uiso   1.00
C112   C     0.38140   0.71767   0.21011   0.00000  Uiso   1.00
C113   C     0.27241   0.62603   0.00908   0.00000  Uiso   1.00
C114   C     0.19469   0.62185   0.00400   0.00000  Uiso   1.00
C115   C     0.17183   0.54849   0.00285   0.00000  Uiso   1.00
H116   H     0.44872   0.52546   0.02118   0.00000  Uiso   1.00
H117   H     0.52979   0.57293   0.89305   0.00000  Uiso   1.00
H118   H     0.48748   0.55042   0.15690   0.00000  Uiso   1.00
H119   H     0.34371   0.43436   0.01470   0.00000  Uiso   1.00
H120   H     0.59631   0.65498   0.74933   0.00000  Uiso   1.00
H121   H     0.50708   0.60752   0.30570   0.00000  Uiso   1.00
H122   H     0.20391   0.36278   0.00583   0.00000  Uiso   1.00
H123   H     0.26858   0.75213   0.00825   0.00000  Uiso   1.00
H124   H     0.33977   0.81204   0.87940   0.00000  Uiso   1.00
H125   H     0.29746   0.78954   0.14326   0.00000  Uiso   1.00
H126   H     0.15369   0.67348   0.00106   0.00000  Uiso   1.00
H127   H     0.44208   0.84906   0.73826   0.00000  Uiso   1.00
H128   H     0.35285   0.80159   0.29463   0.00000  Uiso   1.00
H129   H     0.04968   0.55686   0.99476   0.00000  Uiso   1.00
O130   O     0.56929   0.78736   0.65929   0.00000  Uiso   1.00
O131   O     0.45222   0.72507   0.38922   0.00000  Uiso   1.00
O132   O     0.05446   0.40398   0.99580   0.00000  Uiso   1.00
N133   N     0.55024   0.69243   0.76440   0.00000  Uiso   1.00
N134   N     0.46682   0.64806   0.28456   0.00000  Uiso   1.00
N135   N     0.18337   0.41925   0.00423   0.00000  Uiso   1.00
N136   N     0.46725   0.79686   0.75844   0.00000  Uiso   1.00
N137   N     0.38383   0.75249   0.27861   0.00000  Uiso   1.00
N138   N     0.10038   0.52368   0.99828   0.00000  Uiso   1.00
C139   C     0.97831   0.59302   0.42572   0.00000  Uiso   1.00
C140   C     0.04850   0.57350   0.36767   0.00000  Uiso   1.00
C141   C     0.10432   0.51078   0.37770   0.00000  Uiso   1.00
C142   C     0.16399   0.50303   0.31779   0.00000  Uiso   1.00
C143   C     0.27239   0.46462   0.23790   0.00000  Uiso   1.00
C144   C     0.90824   0.59687   0.37972   0.00000  Uiso   1.00
C145   C     0.84614   0.55381   0.39988   0.00000  Uiso   1.00
C146   C     0.78775   0.56574   0.35012   0.00000  Uiso   1.00
C147   C     0.67838   0.56366   0.28896   0.00000  Uiso   1.00
C148   C     0.98279   0.67567   0.44464   0.00000  Uiso   1.00
C149   C     0.98335   0.69886   0.51940   0.00000  Uiso   1.00
C150   C     0.98771   0.77714   0.52430   0.00000  Uiso   1.00
C151   C     0.99408   0.89740   0.56395   0.00000  Uiso   1.00
C152   C     0.98502   0.69078   0.30149   0.00000  Uiso   1.00
C153   C     0.05213   0.62660   0.30019   0.00000  Uiso   1.00
C154   C     0.11174   0.61894   0.24025   0.00000  Uiso   1.00
C155   C     0.16765   0.55622   0.25019   0.00000  Uiso   1.00
C156   C     0.91188   0.64997   0.31224   0.00000  Uiso   1.00
C157   C     0.85356   0.66197   0.26243   0.00000  Uiso   1.00
C158   C     0.79140   0.61893   0.28252   0.00000  Uiso   1.00
C159   C     0.98644   0.72877   0.37716   0.00000  Uiso   1.00
C160   C     0.99078   0.80702   0.38195   0.00000  Uiso   1.00
C161   C     0.99135   0.83033   0.45670   0.00000  Uiso   1.00
H162   H     0.97547   0.55168   0.47826   0.00000  Uiso   1.00
H163   H     0.10148   0.46970   0.42993   0.00000  Uiso   1.00
H164   H     0.84334   0.51273   0.45211   0.00000  Uiso   1.00
H165   H     0.98053   0.65776   0.57161   0.00000  Uiso   1.00
H166   H     0.24277   0.40221   0.34658   0.00000  Uiso   1.00
H167   H     0.69845   0.49296   0.39336   0.00000  Uiso   1.00
H168   H     0.98775   0.79878   0.64535   0.00000  Uiso   1.00
H169   H     0.98785   0.73212   0.24895   0.00000  Uiso   1.00
H170   H     0.11454   0.66004   0.18804   0.00000  Uiso   1.00
H171   H     0.85640   0.70307   0.21022   0.00000  Uiso   1.00
H172   H     0.99360   0.84810   0.32972   0.00000  Uiso   1.00
H173   H     0.25337   0.55670   0.15025   0.00000  Uiso   1.00
H174   H     0.70905   0.64744   0.19704   0.00000  Uiso   1.00
H175   H     0.99836   0.95327   0.44902   0.00000  Uiso   1.00
O176   O     0.33117   0.42877   0.21246   0.00000  Uiso   1.00
O177   O     0.61705   0.54783   0.27386   0.00000  Uiso   1.00
O178   O     0.99661   0.94906   0.60445   0.00000  Uiso   1.00
N179   N     0.22789   0.44847   0.30874   0.00000  Uiso   1.00
N180   N     0.71899   0.53330   0.35247   0.00000  Uiso   1.00
N181   N     0.98944   0.81922   0.58806   0.00000  Uiso   1.00
N182   N     0.23359   0.53160   0.20309   0.00000  Uiso   1.00
N183   N     0.72470   0.61643   0.24683   0.00000  Uiso   1.00
N184   N     0.99515   0.90235   0.48242   0.00000  Uiso   1.00
C185   C     0.42147   0.97911   0.59363   0.00000  Uiso   1.00
C186   C     0.36433   0.04977   0.57403   0.00000  Uiso   1.00
C187   C     0.37401   0.10571   0.51064   0.00000  Uiso   1.00
C188   C     0.31508   0.16583   0.50292   0.00000  Uiso   1.00
C189   C     0.23641   0.27492   0.46427   0.00000  Uiso   1.00
C190   C     0.37705   0.90864   0.59693   0.00000  Uiso   1.00
C191   C     0.39744   0.84592   0.55280   0.00000  Uiso   1.00
C192   C     0.34923   0.78724   0.56436   0.00000  Uiso   1.00
C193   C     0.29035   0.67720   0.56131   0.00000  Uiso   1.00
C194   C     0.43949   0.98393   0.67779   0.00000  Uiso   1.00
C195   C     0.51239   0.98449   0.70166   0.00000  Uiso   1.00
C196   C     0.51674   0.98917   0.78130   0.00000  Uiso   1.00
C197   C     0.55481   0.99602   0.90380   0.00000  Uiso   1.00
C198   C     0.29958   0.98642   0.69264   0.00000  Uiso   1.00
C199   C     0.29812   0.05373   0.62780   0.00000  Uiso   1.00
C200   C     0.23916   0.11379   0.62018   0.00000  Uiso   1.00
C201   C     0.24876   0.16981   0.55679   0.00000  Uiso   1.00
C202   C     0.31085   0.91261   0.65070   0.00000  Uiso   1.00
C203   C     0.26260   0.85400   0.66234   0.00000  Uiso   1.00
C204   C     0.28291   0.79121   0.61824   0.00000  Uiso   1.00
C205   C     0.37329   0.98790   0.73156   0.00000  Uiso   1.00
C206   C     0.37753   0.99257   0.81119   0.00000  Uiso   1.00
C207   C     0.45042   0.99315   0.83518   0.00000  Uiso   1.00
H208   H     0.47300   0.97602   0.55176   0.00000  Uiso   1.00
H209   H     0.42525   0.10261   0.46903   0.00000  Uiso   1.00
H210   H     0.44868   0.84286   0.51120   0.00000  Uiso   1.00
H211   H     0.56360   0.98142   0.66003   0.00000  Uiso   1.00
H212   H     0.34309   0.24470   0.40101   0.00000  Uiso   1.00
H213   H     0.39252   0.69699   0.48993   0.00000  Uiso   1.00
H214   H     0.63485   0.98915   0.80377   0.00000  Uiso   1.00
H215   H     0.24804   0.98950   0.73450   0.00000  Uiso   1.00
H216   H     0.18794   0.11684   0.66180   0.00000  Uiso   1.00
H217   H     0.21137   0.85709   0.70396   0.00000  Uiso   1.00
H218   H     0.32629   0.99564   0.85279   0.00000  Uiso   1.00
H219   H     0.15048   0.25625   0.55746   0.00000  Uiso   1.00
H220   H     0.19991   0.70854   0.64638   0.00000  Uiso   1.00
H221   H     0.44224   0.00070   0.96022   0.00000  Uiso   1.00
O222   O     0.21130   0.33399   0.42810   0.00000  Uiso   1.00
O223   O     0.27615   0.61541   0.54476   0.00000  Uiso   1.00
O224   O     0.59409   0.99872   0.95651   0.00000  Uiso   1.00
N225   N     0.30602   0.22995   0.44782   0.00000  Uiso   1.00
N226   N     0.35222   0.71788   0.53094   0.00000  Uiso   1.00
N227   N     0.57879   0.99101   0.82436   0.00000  Uiso   1.00
N228   N     0.20237   0.23617   0.53200   0.00000  Uiso   1.00
N229   N     0.24858   0.72410   0.61513   0.00000  Uiso   1.00
N230   N     0.47515   0.99722   0.90854   0.00000  Uiso   1.00
C231   C     0.59255   0.42261   0.98179   0.00000  Uiso   1.00
C232   C     0.57349   0.36539   0.05320   0.00000  Uiso   1.00
C233   C     0.51123   0.37545   0.10992   0.00000  Uiso   1.00
C234   C     0.50383   0.31636   0.17066   0.00000  Uiso   1.00
C235   C     0.46615   0.23764   0.28094   0.00000  Uiso   1.00
C236   C     0.59647   0.37761   0.90984   0.00000  Uiso   1.00
C237   C     0.55353   0.39795   0.84603   0.00000  Uiso   1.00
C238   C     0.56550   0.34916   0.78608   0.00000  Uiso   1.00
C239   C     0.56352   0.28944   0.67377   0.00000  Uiso   1.00
C240   C     0.67458   0.44067   0.98712   0.00000  Uiso   1.00
C241   C     0.69733   0.51403   0.98825   0.00000  Uiso   1.00
C242   C     0.77507   0.51833   0.99334   0.00000  Uiso   1.00
C243   C     0.89438   0.55652   0.00101   0.00000  Uiso   1.00
C244   C     0.69015   0.29980   0.98879   0.00000  Uiso   1.00
C245   C     0.62650   0.29869   0.05700   0.00000  Uiso   1.00
C246   C     0.61921   0.23957   0.11767   0.00000  Uiso   1.00
C247   C     0.55694   0.24954   0.17447   0.00000  Uiso   1.00
C248   C     0.64948   0.31091   0.91365   0.00000  Uiso   1.00
C249   C     0.66151   0.26208   0.85377   0.00000  Uiso   1.00
C250   C     0.61860   0.28233   0.78989   0.00000  Uiso   1.00
C251   C     0.72759   0.37397   0.99092   0.00000  Uiso   1.00
C252   C     0.80531   0.37815   0.99600   0.00000  Uiso   1.00
C253   C     0.82817   0.45151   0.99715   0.00000  Uiso   1.00
H254   H     0.55128   0.47454   0.97882   0.00000  Uiso   1.00
H255   H     0.47021   0.42707   0.10695   0.00000  Uiso   1.00
H256   H     0.51252   0.44958   0.84310   0.00000  Uiso   1.00
H257   H     0.65629   0.56564   0.98530   0.00000  Uiso   1.00
H258   H     0.40369   0.34502   0.25067   0.00000  Uiso   1.00
H259   H     0.49292   0.39248   0.69430   0.00000  Uiso   1.00
H260   H     0.79609   0.63722   0.99417   0.00000  Uiso   1.00
H261   H     0.73142   0.24787   0.99175   0.00000  Uiso   1.00
H262   H     0.66023   0.18796   0.12060   0.00000  Uiso   1.00
H263   H     0.70254   0.21046   0.85674   0.00000  Uiso   1.00
H264   H     0.84631   0.32652   0.99894   0.00000  Uiso   1.00
H265   H     0.55792   0.15094   0.26174   0.00000  Uiso   1.00
H266   H     0.64715   0.19841   0.70537   0.00000  Uiso   1.00
H267   H     0.95032   0.44314   0.00524   0.00000  Uiso   1.00
O268   O     0.43071   0.21264   0.34071   0.00000  Uiso   1.00
O269   O     0.54778   0.27493   0.61078   0.00000  Uiso   1.00
O270   O     0.94554   0.59602   0.00420   0.00000  Uiso   1.00
N271   N     0.44976   0.30757   0.23560   0.00000  Uiso   1.00
N272   N     0.53318   0.35194   0.71544   0.00000  Uiso   1.00
N273   N     0.81663   0.58075   0.99577   0.00000  Uiso   1.00
N274   N     0.53275   0.20314   0.24156   0.00000  Uiso   1.00
N275   N     0.61617   0.24751   0.72140   0.00000  Uiso   1.00
N276   N     0.89962   0.47632   0.00172   0.00000  Uiso   1.00
