data_job_03512
_audit_creation_date              2018-12-19
_audit_creation_method            'Materials Studio'
_symmetry_space_group_name_H-M    'P1'
_symmetry_Int_Tables_number       1
_symmetry_cell_setting            triclinic
loop_
_symmetry_equiv_pos_as_xyz
  x,y,z
_cell_length_a                    25.6838
_cell_length_b                    11.7808
_cell_length_c                    10.0144
_cell_angle_alpha                 90.0000
_cell_angle_beta                  69.2534
_cell_angle_gamma                 90.0000
loop_
_atom_site_label
_atom_site_type_symbol
_atom_site_fract_x
_atom_site_fract_y
_atom_site_fract_z
_atom_site_U_iso_or_equiv
_atom_site_adp_type
_atom_site_occupancy
C1     C     0.33623   0.98977   0.20820   0.00000  Uiso   1.00
C2     C     0.35088   0.08045   0.29772   0.00000  Uiso   1.00
C3     C     0.35017   0.06640   0.43595   0.00000  Uiso   1.00
C4     C     0.36493   0.15967   0.49952   0.00000  Uiso   1.00
C5     C     0.38538   0.28474   0.64953   0.00000  Uiso   1.00
C6     C     0.28984   0.03999   0.16479   0.00000  Uiso   1.00
C7     C     0.23781   0.99191   0.19124   0.00000  Uiso   1.00
C8     C     0.20120   0.05112   0.14289   0.00000  Uiso   1.00
C9     C     0.12690   0.11333   0.08644   0.00000  Uiso   1.00
C10    C     0.38681   0.97951   0.07101   0.00000  Uiso   1.00
C11    C     0.41630   0.88058   0.01858   0.00000  Uiso   1.00
C12    C     0.46132   0.88886   0.89126   0.00000  Uiso   1.00
C13    C     0.53758   0.85717   0.68919   0.00000  Uiso   1.00
C14    C     0.36373   0.18040   0.07529   0.00000  Uiso   1.00
C15    C     0.36582   0.18399   0.22553   0.00000  Uiso   1.00
C16    C     0.38059   0.27731   0.28890   0.00000  Uiso   1.00
C17    C     0.37990   0.26340   0.42720   0.00000  Uiso   1.00
C18    C     0.30478   0.14353   0.09260   0.00000  Uiso   1.00
C19    C     0.26824   0.20282   0.04419   0.00000  Uiso   1.00
C20    C     0.21616   0.15485   0.07057   0.00000  Uiso   1.00
C21    C     0.40175   0.08305   0.99882   0.00000  Uiso   1.00
C22    C     0.44673   0.09149   0.87154   0.00000  Uiso   1.00
C23    C     0.47629   0.99259   0.81894   0.00000  Uiso   1.00
H24    H     0.32460   0.90916   0.26440   0.00000  Uiso   1.00
H25    H     0.33860   0.98626   0.49179   0.00000  Uiso   1.00
H26    H     0.22627   0.91178   0.24710   0.00000  Uiso   1.00
H27    H     0.40473   0.80047   0.07448   0.00000  Uiso   1.00
H28    H     0.36068   0.11742   0.71207   0.00000  Uiso   1.00
H29    H     0.12383   0.96035   0.19609   0.00000  Uiso   1.00
H30    H     0.50016   0.72562   0.83208   0.00000  Uiso   1.00
H31    H     0.37536   0.26101   0.01908   0.00000  Uiso   1.00
H32    H     0.39215   0.35742   0.23301   0.00000  Uiso   1.00
H33    H     0.27981   0.28294   0.98833   0.00000  Uiso   1.00
H34    H     0.45828   0.17162   0.81571   0.00000  Uiso   1.00
H35    H     0.40415   0.41867   0.50204   0.00000  Uiso   1.00
H36    H     0.16729   0.26159   0.98605   0.00000  Uiso   1.00
H37    H     0.54362   0.02687   0.62205   0.00000  Uiso   1.00
O38    O     0.39252   0.32513   0.75223   0.00000  Uiso   1.00
O39    O     0.08179   0.11905   0.07526   0.00000  Uiso   1.00
O40    O     0.57552   0.81109   0.59769   0.00000  Uiso   1.00
N41    N     0.36862   0.17508   0.63327   0.00000  Uiso   1.00
N42    N     0.14717   0.02824   0.15088   0.00000  Uiso   1.00
N43    N     0.49900   0.80878   0.81054   0.00000  Uiso   1.00
N44    N     0.39201   0.33718   0.52025   0.00000  Uiso   1.00
N45    N     0.17056   0.19034   0.03786   0.00000  Uiso   1.00
N46    N     0.52239   0.97088   0.69752   0.00000  Uiso   1.00
C47    C     0.83623   0.48977   0.20820   0.00000  Uiso   1.00
C48    C     0.85088   0.58045   0.29772   0.00000  Uiso   1.00
C49    C     0.85017   0.56640   0.43595   0.00000  Uiso   1.00
C50    C     0.86493   0.65967   0.49952   0.00000  Uiso   1.00
C51    C     0.88538   0.78474   0.64953   0.00000  Uiso   1.00
C52    C     0.78984   0.53999   0.16479   0.00000  Uiso   1.00
C53    C     0.73781   0.49191   0.19124   0.00000  Uiso   1.00
C54    C     0.70120   0.55112   0.14289   0.00000  Uiso   1.00
C55    C     0.62690   0.61333   0.08644   0.00000  Uiso   1.00
C56    C     0.88681   0.47951   0.07101   0.00000  Uiso   1.00
C57    C     0.91630   0.38058   0.01858   0.00000  Uiso   1.00
C58    C     0.96132   0.38886   0.89126   0.00000  Uiso   1.00
C59    C     0.03758   0.35717   0.68919   0.00000  Uiso   1.00
C60    C     0.86373   0.68040   0.07529   0.00000  Uiso   1.00
C61    C     0.86582   0.68399   0.22553   0.00000  Uiso   1.00
C62    C     0.88059   0.77731   0.28890   0.00000  Uiso   1.00
C63    C     0.87990   0.76340   0.42720   0.00000  Uiso   1.00
C64    C     0.80478   0.64353   0.09260   0.00000  Uiso   1.00
C65    C     0.76824   0.70282   0.04419   0.00000  Uiso   1.00
C66    C     0.71616   0.65485   0.07057   0.00000  Uiso   1.00
C67    C     0.90175   0.58305   0.99882   0.00000  Uiso   1.00
C68    C     0.94673   0.59149   0.87154   0.00000  Uiso   1.00
C69    C     0.97629   0.49259   0.81894   0.00000  Uiso   1.00
H70    H     0.82460   0.40916   0.26440   0.00000  Uiso   1.00
H71    H     0.83860   0.48626   0.49179   0.00000  Uiso   1.00
H72    H     0.72627   0.41178   0.24710   0.00000  Uiso   1.00
H73    H     0.90473   0.30047   0.07448   0.00000  Uiso   1.00
H74    H     0.86068   0.61742   0.71207   0.00000  Uiso   1.00
H75    H     0.62383   0.46035   0.19609   0.00000  Uiso   1.00
H76    H     0.00016   0.22562   0.83208   0.00000  Uiso   1.00
H77    H     0.87536   0.76101   0.01908   0.00000  Uiso   1.00
H78    H     0.89215   0.85742   0.23301   0.00000  Uiso   1.00
H79    H     0.77981   0.78294   0.98833   0.00000  Uiso   1.00
H80    H     0.95828   0.67162   0.81571   0.00000  Uiso   1.00
H81    H     0.90415   0.91867   0.50204   0.00000  Uiso   1.00
H82    H     0.66729   0.76159   0.98605   0.00000  Uiso   1.00
H83    H     0.04362   0.52687   0.62205   0.00000  Uiso   1.00
O84    O     0.89252   0.82513   0.75223   0.00000  Uiso   1.00
O85    O     0.58179   0.61905   0.07526   0.00000  Uiso   1.00
O86    O     0.07552   0.31109   0.59769   0.00000  Uiso   1.00
N87    N     0.86862   0.67508   0.63327   0.00000  Uiso   1.00
N88    N     0.64717   0.52824   0.15088   0.00000  Uiso   1.00
N89    N     0.99900   0.30878   0.81054   0.00000  Uiso   1.00
N90    N     0.89201   0.83718   0.52025   0.00000  Uiso   1.00
N91    N     0.67056   0.69034   0.03786   0.00000  Uiso   1.00
N92    N     0.02239   0.47088   0.69752   0.00000  Uiso   1.00
C93    C     0.66377   0.98977   0.79180   0.00000  Uiso   1.00
C94    C     0.64912   0.08045   0.70228   0.00000  Uiso   1.00
C95    C     0.64983   0.06640   0.56405   0.00000  Uiso   1.00
C96    C     0.63507   0.15967   0.50048   0.00000  Uiso   1.00
C97    C     0.61462   0.28474   0.35047   0.00000  Uiso   1.00
C98    C     0.71016   0.03999   0.83521   0.00000  Uiso   1.00
C99    C     0.76219   0.99191   0.80876   0.00000  Uiso   1.00
C100   C     0.79880   0.05112   0.85711   0.00000  Uiso   1.00
C101   C     0.87310   0.11333   0.91356   0.00000  Uiso   1.00
C102   C     0.61319   0.97951   0.92899   0.00000  Uiso   1.00
C103   C     0.58370   0.88058   0.98142   0.00000  Uiso   1.00
C104   C     0.53868   0.88886   0.10874   0.00000  Uiso   1.00
C105   C     0.46242   0.85717   0.31081   0.00000  Uiso   1.00
C106   C     0.63627   0.18040   0.92471   0.00000  Uiso   1.00
C107   C     0.63418   0.18399   0.77447   0.00000  Uiso   1.00
C108   C     0.61941   0.27731   0.71110   0.00000  Uiso   1.00
C109   C     0.62010   0.26340   0.57280   0.00000  Uiso   1.00
C110   C     0.69522   0.14353   0.90740   0.00000  Uiso   1.00
C111   C     0.73176   0.20282   0.95581   0.00000  Uiso   1.00
C112   C     0.78384   0.15485   0.92943   0.00000  Uiso   1.00
C113   C     0.59825   0.08305   0.00118   0.00000  Uiso   1.00
C114   C     0.55327   0.09149   0.12846   0.00000  Uiso   1.00
C115   C     0.52371   0.99259   0.18106   0.00000  Uiso   1.00
H116   H     0.67540   0.90916   0.73560   0.00000  Uiso   1.00
H117   H     0.66140   0.98626   0.50821   0.00000  Uiso   1.00
H118   H     0.77373   0.91178   0.75290   0.00000  Uiso   1.00
H119   H     0.59527   0.80047   0.92552   0.00000  Uiso   1.00
H120   H     0.63932   0.11742   0.28793   0.00000  Uiso   1.00
H121   H     0.87617   0.96035   0.80391   0.00000  Uiso   1.00
H122   H     0.49984   0.72562   0.16792   0.00000  Uiso   1.00
H123   H     0.62464   0.26101   0.98092   0.00000  Uiso   1.00
H124   H     0.60785   0.35742   0.76699   0.00000  Uiso   1.00
H125   H     0.72019   0.28294   0.01167   0.00000  Uiso   1.00
H126   H     0.54172   0.17162   0.18429   0.00000  Uiso   1.00
H127   H     0.59585   0.41867   0.49796   0.00000  Uiso   1.00
H128   H     0.83271   0.26159   0.01395   0.00000  Uiso   1.00
H129   H     0.45638   0.02687   0.37795   0.00000  Uiso   1.00
O130   O     0.60748   0.32513   0.24777   0.00000  Uiso   1.00
O131   O     0.91821   0.11905   0.92474   0.00000  Uiso   1.00
O132   O     0.42448   0.81109   0.40231   0.00000  Uiso   1.00
N133   N     0.63138   0.17508   0.36673   0.00000  Uiso   1.00
N134   N     0.85283   0.02824   0.84912   0.00000  Uiso   1.00
N135   N     0.50100   0.80878   0.18946   0.00000  Uiso   1.00
N136   N     0.60799   0.33718   0.47975   0.00000  Uiso   1.00
N137   N     0.82944   0.19034   0.96214   0.00000  Uiso   1.00
N138   N     0.47761   0.97088   0.30248   0.00000  Uiso   1.00
C139   C     0.16377   0.48977   0.79180   0.00000  Uiso   1.00
C140   C     0.14912   0.58045   0.70228   0.00000  Uiso   1.00
C141   C     0.14983   0.56640   0.56405   0.00000  Uiso   1.00
C142   C     0.13507   0.65967   0.50048   0.00000  Uiso   1.00
C143   C     0.11462   0.78474   0.35047   0.00000  Uiso   1.00
C144   C     0.21016   0.53999   0.83521   0.00000  Uiso   1.00
C145   C     0.26219   0.49191   0.80876   0.00000  Uiso   1.00
C146   C     0.29880   0.55112   0.85711   0.00000  Uiso   1.00
C147   C     0.37310   0.61333   0.91356   0.00000  Uiso   1.00
C148   C     0.11319   0.47951   0.92899   0.00000  Uiso   1.00
C149   C     0.08370   0.38058   0.98142   0.00000  Uiso   1.00
C150   C     0.03868   0.38886   0.10874   0.00000  Uiso   1.00
C151   C     0.96242   0.35717   0.31081   0.00000  Uiso   1.00
C152   C     0.13627   0.68040   0.92471   0.00000  Uiso   1.00
C153   C     0.13418   0.68399   0.77447   0.00000  Uiso   1.00
C154   C     0.11941   0.77731   0.71110   0.00000  Uiso   1.00
C155   C     0.12010   0.76340   0.57280   0.00000  Uiso   1.00
C156   C     0.19522   0.64353   0.90740   0.00000  Uiso   1.00
C157   C     0.23176   0.70282   0.95581   0.00000  Uiso   1.00
C158   C     0.28384   0.65485   0.92943   0.00000  Uiso   1.00
C159   C     0.09825   0.58305   0.00118   0.00000  Uiso   1.00
C160   C     0.05327   0.59149   0.12846   0.00000  Uiso   1.00
C161   C     0.02371   0.49259   0.18106   0.00000  Uiso   1.00
H162   H     0.17540   0.40916   0.73560   0.00000  Uiso   1.00
H163   H     0.16140   0.48626   0.50821   0.00000  Uiso   1.00
H164   H     0.27373   0.41178   0.75290   0.00000  Uiso   1.00
H165   H     0.09527   0.30047   0.92552   0.00000  Uiso   1.00
H166   H     0.13932   0.61742   0.28793   0.00000  Uiso   1.00
H167   H     0.37617   0.46035   0.80391   0.00000  Uiso   1.00
H168   H     0.99984   0.22562   0.16792   0.00000  Uiso   1.00
H169   H     0.12464   0.76101   0.98092   0.00000  Uiso   1.00
H170   H     0.10785   0.85742   0.76699   0.00000  Uiso   1.00
H171   H     0.22019   0.78294   0.01167   0.00000  Uiso   1.00
H172   H     0.04172   0.67162   0.18429   0.00000  Uiso   1.00
H173   H     0.09585   0.91867   0.49796   0.00000  Uiso   1.00
H174   H     0.33271   0.76159   0.01395   0.00000  Uiso   1.00
H175   H     0.95638   0.52687   0.37795   0.00000  Uiso   1.00
O176   O     0.10748   0.82513   0.24777   0.00000  Uiso   1.00
O177   O     0.41821   0.61905   0.92474   0.00000  Uiso   1.00
O178   O     0.92448   0.31109   0.40231   0.00000  Uiso   1.00
N179   N     0.13138   0.67508   0.36673   0.00000  Uiso   1.00
N180   N     0.35283   0.52824   0.84912   0.00000  Uiso   1.00
N181   N     0.00100   0.30878   0.18946   0.00000  Uiso   1.00
N182   N     0.10799   0.83718   0.47975   0.00000  Uiso   1.00
N183   N     0.32944   0.69034   0.96214   0.00000  Uiso   1.00
N184   N     0.97761   0.47088   0.30248   0.00000  Uiso   1.00
