data_job_02286
_audit_creation_date              2018-12-19
_audit_creation_method            'Materials Studio'
_symmetry_space_group_name_H-M    'P1'
_symmetry_Int_Tables_number       1
_symmetry_cell_setting            triclinic
loop_
_symmetry_equiv_pos_as_xyz
  x,y,z
_cell_length_a                    20.6657
_cell_length_b                    21.8857
_cell_length_c                    22.2713
_cell_angle_alpha                 90.0000
_cell_angle_beta                  47.8580
_cell_angle_gamma                 90.0000
loop_
_atom_site_label
_atom_site_type_symbol
_atom_site_fract_x
_atom_site_fract_y
_atom_site_fract_z
_atom_site_U_iso_or_equiv
_atom_site_adp_type
_atom_site_occupancy
C1     C     0.32319   0.96189   0.49768   0.00000  Uiso   1.00
C2     C     0.31076   0.98231   0.57032   0.00000  Uiso   1.00
C3     C     0.34085   0.03662   0.57621   0.00000  Uiso   1.00
C4     C     0.32280   0.04684   0.64771   0.00000  Uiso   1.00
C5     C     0.31060   0.08501   0.75086   0.00000  Uiso   1.00
C6     C     0.36825   0.89984   0.47260   0.00000  Uiso   1.00
C7     C     0.44668   0.88481   0.39633   0.00000  Uiso   1.00
C8     C     0.47702   0.82561   0.38557   0.00000  Uiso   1.00
C9     C     0.55406   0.73573   0.33701   0.00000  Uiso   1.00
C10    C     0.23192   0.94979   0.52994   0.00000  Uiso   1.00
C11    C     0.19573   0.97673   0.50186   0.00000  Uiso   1.00
C12    C     0.11129   0.95957   0.53936   0.00000  Uiso   1.00
C13    C     0.97665   0.94724   0.57982   0.00000  Uiso   1.00
C14    C     0.23761   0.88348   0.61418   0.00000  Uiso   1.00
C15    C     0.26427   0.93972   0.63360   0.00000  Uiso   1.00
C16    C     0.24616   0.94986   0.70511   0.00000  Uiso   1.00
C17    C     0.27622   0.00417   0.71111   0.00000  Uiso   1.00
C18    C     0.32177   0.85725   0.53588   0.00000  Uiso   1.00
C19    C     0.35200   0.79806   0.52524   0.00000  Uiso   1.00
C20    C     0.43045   0.78294   0.44897   0.00000  Uiso   1.00
C21    C     0.18544   0.90720   0.59322   0.00000  Uiso   1.00
C22    C     0.10104   0.88998   0.63077   0.00000  Uiso   1.00
C23    C     0.06472   0.91690   0.60276   0.00000  Uiso   1.00
H24    H     0.35938   0.99505   0.44840   0.00000  Uiso   1.00
H25    H     0.37683   0.06956   0.52722   0.00000  Uiso   1.00
H26    H     0.48264   0.91778   0.34737   0.00000  Uiso   1.00
H27    H     0.23172   0.00969   0.45289   0.00000  Uiso   1.00
H28    H     0.37570   0.13338   0.64249   0.00000  Uiso   1.00
H29    H     0.59879   0.81333   0.26326   0.00000  Uiso   1.00
H30    H     0.06968   0.00714   0.48577   0.00000  Uiso   1.00
H31    H     0.20142   0.85032   0.66345   0.00000  Uiso   1.00
H32    H     0.21019   0.91690   0.75407   0.00000  Uiso   1.00
H33    H     0.31600   0.76511   0.57422   0.00000  Uiso   1.00
H34    H     0.06509   0.85702   0.67974   0.00000  Uiso   1.00
H35    H     0.24045   0.00947   0.82662   0.00000  Uiso   1.00
H36    H     0.46354   0.68942   0.44738   0.00000  Uiso   1.00
H37    H     0.93443   0.88323   0.66989   0.00000  Uiso   1.00
O38    O     0.31672   0.11782   0.79028   0.00000  Uiso   1.00
O39    O     0.60940   0.69792   0.29274   0.00000  Uiso   1.00
O40    O     0.91522   0.95221   0.58466   0.00000  Uiso   1.00
N41    N     0.34265   0.09509   0.67340   0.00000  Uiso   1.00
N42    N     0.55123   0.79586   0.31884   0.00000  Uiso   1.00
N43    N     0.05657   0.97705   0.52685   0.00000  Uiso   1.00
N44    N     0.26987   0.02841   0.77247   0.00000  Uiso   1.00
N45    N     0.47846   0.72919   0.41792   0.00000  Uiso   1.00
N46    N     0.98379   0.91037   0.62593   0.00000  Uiso   1.00
C47    C     0.82319   0.46189   0.49768   0.00000  Uiso   1.00
C48    C     0.81076   0.48231   0.57032   0.00000  Uiso   1.00
C49    C     0.84085   0.53662   0.57621   0.00000  Uiso   1.00
C50    C     0.82280   0.54684   0.64771   0.00000  Uiso   1.00
C51    C     0.81060   0.58501   0.75086   0.00000  Uiso   1.00
C52    C     0.86825   0.39984   0.47260   0.00000  Uiso   1.00
C53    C     0.94668   0.38481   0.39633   0.00000  Uiso   1.00
C54    C     0.97702   0.32561   0.38557   0.00000  Uiso   1.00
C55    C     0.05406   0.23573   0.33701   0.00000  Uiso   1.00
C56    C     0.73192   0.44979   0.52994   0.00000  Uiso   1.00
C57    C     0.69573   0.47673   0.50186   0.00000  Uiso   1.00
C58    C     0.61129   0.45957   0.53936   0.00000  Uiso   1.00
C59    C     0.47665   0.44724   0.57982   0.00000  Uiso   1.00
C60    C     0.73761   0.38348   0.61418   0.00000  Uiso   1.00
C61    C     0.76427   0.43972   0.63360   0.00000  Uiso   1.00
C62    C     0.74616   0.44986   0.70511   0.00000  Uiso   1.00
C63    C     0.77622   0.50417   0.71111   0.00000  Uiso   1.00
C64    C     0.82177   0.35725   0.53588   0.00000  Uiso   1.00
C65    C     0.85200   0.29806   0.52524   0.00000  Uiso   1.00
C66    C     0.93045   0.28294   0.44897   0.00000  Uiso   1.00
C67    C     0.68544   0.40720   0.59322   0.00000  Uiso   1.00
C68    C     0.60104   0.38998   0.63077   0.00000  Uiso   1.00
C69    C     0.56472   0.41690   0.60276   0.00000  Uiso   1.00
H70    H     0.85938   0.49505   0.44840   0.00000  Uiso   1.00
H71    H     0.87683   0.56956   0.52722   0.00000  Uiso   1.00
H72    H     0.98264   0.41778   0.34737   0.00000  Uiso   1.00
H73    H     0.73172   0.50969   0.45289   0.00000  Uiso   1.00
H74    H     0.87570   0.63338   0.64249   0.00000  Uiso   1.00
H75    H     0.09879   0.31333   0.26326   0.00000  Uiso   1.00
H76    H     0.56968   0.50714   0.48577   0.00000  Uiso   1.00
H77    H     0.70142   0.35032   0.66345   0.00000  Uiso   1.00
H78    H     0.71019   0.41690   0.75407   0.00000  Uiso   1.00
H79    H     0.81600   0.26511   0.57422   0.00000  Uiso   1.00
H80    H     0.56509   0.35702   0.67974   0.00000  Uiso   1.00
H81    H     0.74045   0.50947   0.82662   0.00000  Uiso   1.00
H82    H     0.96354   0.18942   0.44738   0.00000  Uiso   1.00
H83    H     0.43443   0.38323   0.66989   0.00000  Uiso   1.00
O84    O     0.81672   0.61782   0.79028   0.00000  Uiso   1.00
O85    O     0.10940   0.19792   0.29274   0.00000  Uiso   1.00
O86    O     0.41522   0.45221   0.58466   0.00000  Uiso   1.00
N87    N     0.84265   0.59509   0.67340   0.00000  Uiso   1.00
N88    N     0.05123   0.29586   0.31884   0.00000  Uiso   1.00
N89    N     0.55657   0.47705   0.52685   0.00000  Uiso   1.00
N90    N     0.76987   0.52841   0.77247   0.00000  Uiso   1.00
N91    N     0.97846   0.22919   0.41792   0.00000  Uiso   1.00
N92    N     0.48379   0.41037   0.62593   0.00000  Uiso   1.00
C93    C     0.67681   0.96189   0.00232   0.00000  Uiso   1.00
C94    C     0.68924   0.98231   0.92968   0.00000  Uiso   1.00
C95    C     0.65915   0.03662   0.92379   0.00000  Uiso   1.00
C96    C     0.67720   0.04684   0.85229   0.00000  Uiso   1.00
C97    C     0.68940   0.08501   0.74914   0.00000  Uiso   1.00
C98    C     0.63175   0.89984   0.02740   0.00000  Uiso   1.00
C99    C     0.55332   0.88481   0.10367   0.00000  Uiso   1.00
C100   C     0.52298   0.82561   0.11443   0.00000  Uiso   1.00
C101   C     0.44594   0.73573   0.16299   0.00000  Uiso   1.00
C102   C     0.76808   0.94979   0.97006   0.00000  Uiso   1.00
C103   C     0.80427   0.97673   0.99814   0.00000  Uiso   1.00
C104   C     0.88871   0.95957   0.96064   0.00000  Uiso   1.00
C105   C     0.02335   0.94724   0.92018   0.00000  Uiso   1.00
C106   C     0.76239   0.88348   0.88582   0.00000  Uiso   1.00
C107   C     0.73573   0.93972   0.86640   0.00000  Uiso   1.00
C108   C     0.75384   0.94986   0.79489   0.00000  Uiso   1.00
C109   C     0.72378   0.00417   0.78889   0.00000  Uiso   1.00
C110   C     0.67823   0.85725   0.96412   0.00000  Uiso   1.00
C111   C     0.64800   0.79806   0.97476   0.00000  Uiso   1.00
C112   C     0.56955   0.78294   0.05103   0.00000  Uiso   1.00
C113   C     0.81456   0.90720   0.90678   0.00000  Uiso   1.00
C114   C     0.89896   0.88998   0.86923   0.00000  Uiso   1.00
C115   C     0.93528   0.91690   0.89724   0.00000  Uiso   1.00
H116   H     0.64062   0.99505   0.05160   0.00000  Uiso   1.00
H117   H     0.62317   0.06956   0.97278   0.00000  Uiso   1.00
H118   H     0.51736   0.91778   0.15263   0.00000  Uiso   1.00
H119   H     0.76828   0.00969   0.04711   0.00000  Uiso   1.00
H120   H     0.62430   0.13338   0.85751   0.00000  Uiso   1.00
H121   H     0.40121   0.81333   0.23674   0.00000  Uiso   1.00
H122   H     0.93032   0.00714   0.01423   0.00000  Uiso   1.00
H123   H     0.79858   0.85032   0.83655   0.00000  Uiso   1.00
H124   H     0.78981   0.91690   0.74593   0.00000  Uiso   1.00
H125   H     0.68400   0.76511   0.92578   0.00000  Uiso   1.00
H126   H     0.93491   0.85702   0.82026   0.00000  Uiso   1.00
H127   H     0.75955   0.00947   0.67338   0.00000  Uiso   1.00
H128   H     0.53646   0.68942   0.05262   0.00000  Uiso   1.00
H129   H     0.06557   0.88323   0.83011   0.00000  Uiso   1.00
O130   O     0.68328   0.11782   0.70972   0.00000  Uiso   1.00
O131   O     0.39060   0.69792   0.20726   0.00000  Uiso   1.00
O132   O     0.08478   0.95221   0.91534   0.00000  Uiso   1.00
N133   N     0.65735   0.09509   0.82660   0.00000  Uiso   1.00
N134   N     0.44877   0.79586   0.18116   0.00000  Uiso   1.00
N135   N     0.94343   0.97705   0.97315   0.00000  Uiso   1.00
N136   N     0.73013   0.02841   0.72753   0.00000  Uiso   1.00
N137   N     0.52154   0.72919   0.08208   0.00000  Uiso   1.00
N138   N     0.01621   0.91037   0.87407   0.00000  Uiso   1.00
C139   C     0.17681   0.46189   0.00232   0.00000  Uiso   1.00
C140   C     0.18924   0.48231   0.92968   0.00000  Uiso   1.00
C141   C     0.15915   0.53662   0.92379   0.00000  Uiso   1.00
C142   C     0.17720   0.54684   0.85229   0.00000  Uiso   1.00
C143   C     0.18940   0.58501   0.74914   0.00000  Uiso   1.00
C144   C     0.13175   0.39984   0.02740   0.00000  Uiso   1.00
C145   C     0.05332   0.38481   0.10367   0.00000  Uiso   1.00
C146   C     0.02298   0.32561   0.11443   0.00000  Uiso   1.00
C147   C     0.94594   0.23573   0.16299   0.00000  Uiso   1.00
C148   C     0.26808   0.44979   0.97006   0.00000  Uiso   1.00
C149   C     0.30427   0.47673   0.99814   0.00000  Uiso   1.00
C150   C     0.38871   0.45957   0.96064   0.00000  Uiso   1.00
C151   C     0.52335   0.44724   0.92018   0.00000  Uiso   1.00
C152   C     0.26239   0.38348   0.88582   0.00000  Uiso   1.00
C153   C     0.23573   0.43972   0.86640   0.00000  Uiso   1.00
C154   C     0.25384   0.44986   0.79489   0.00000  Uiso   1.00
C155   C     0.22378   0.50417   0.78889   0.00000  Uiso   1.00
C156   C     0.17823   0.35725   0.96412   0.00000  Uiso   1.00
C157   C     0.14800   0.29806   0.97476   0.00000  Uiso   1.00
C158   C     0.06955   0.28294   0.05103   0.00000  Uiso   1.00
C159   C     0.31456   0.40720   0.90678   0.00000  Uiso   1.00
C160   C     0.39896   0.38998   0.86923   0.00000  Uiso   1.00
C161   C     0.43528   0.41690   0.89724   0.00000  Uiso   1.00
H162   H     0.14062   0.49505   0.05160   0.00000  Uiso   1.00
H163   H     0.12317   0.56956   0.97278   0.00000  Uiso   1.00
H164   H     0.01736   0.41778   0.15263   0.00000  Uiso   1.00
H165   H     0.26828   0.50969   0.04711   0.00000  Uiso   1.00
H166   H     0.12430   0.63338   0.85751   0.00000  Uiso   1.00
H167   H     0.90121   0.31333   0.23674   0.00000  Uiso   1.00
H168   H     0.43032   0.50714   0.01423   0.00000  Uiso   1.00
H169   H     0.29858   0.35032   0.83655   0.00000  Uiso   1.00
H170   H     0.28981   0.41690   0.74593   0.00000  Uiso   1.00
H171   H     0.18400   0.26511   0.92578   0.00000  Uiso   1.00
H172   H     0.43491   0.35702   0.82026   0.00000  Uiso   1.00
H173   H     0.25955   0.50947   0.67338   0.00000  Uiso   1.00
H174   H     0.03646   0.18942   0.05262   0.00000  Uiso   1.00
H175   H     0.56557   0.38323   0.83011   0.00000  Uiso   1.00
O176   O     0.18328   0.61782   0.70972   0.00000  Uiso   1.00
O177   O     0.89060   0.19792   0.20726   0.00000  Uiso   1.00
O178   O     0.58478   0.45221   0.91534   0.00000  Uiso   1.00
N179   N     0.15735   0.59509   0.82660   0.00000  Uiso   1.00
N180   N     0.94877   0.29586   0.18116   0.00000  Uiso   1.00
N181   N     0.44343   0.47705   0.97315   0.00000  Uiso   1.00
N182   N     0.23013   0.52841   0.72753   0.00000  Uiso   1.00
N183   N     0.02154   0.22919   0.08208   0.00000  Uiso   1.00
N184   N     0.51621   0.41037   0.87407   0.00000  Uiso   1.00
C185   C     0.67681   0.03811   0.50232   0.00000  Uiso   1.00
C186   C     0.68924   0.01769   0.42968   0.00000  Uiso   1.00
C187   C     0.65915   0.96338   0.42379   0.00000  Uiso   1.00
C188   C     0.67720   0.95316   0.35229   0.00000  Uiso   1.00
C189   C     0.68940   0.91499   0.24914   0.00000  Uiso   1.00
C190   C     0.63175   0.10016   0.52740   0.00000  Uiso   1.00
C191   C     0.55332   0.11519   0.60367   0.00000  Uiso   1.00
C192   C     0.52298   0.17439   0.61443   0.00000  Uiso   1.00
C193   C     0.44594   0.26427   0.66299   0.00000  Uiso   1.00
C194   C     0.76808   0.05021   0.47006   0.00000  Uiso   1.00
C195   C     0.80427   0.02327   0.49814   0.00000  Uiso   1.00
C196   C     0.88871   0.04043   0.46064   0.00000  Uiso   1.00
C197   C     0.02335   0.05276   0.42018   0.00000  Uiso   1.00
C198   C     0.76239   0.11652   0.38582   0.00000  Uiso   1.00
C199   C     0.73573   0.06028   0.36640   0.00000  Uiso   1.00
C200   C     0.75384   0.05014   0.29489   0.00000  Uiso   1.00
C201   C     0.72378   0.99583   0.28889   0.00000  Uiso   1.00
C202   C     0.67823   0.14275   0.46412   0.00000  Uiso   1.00
C203   C     0.64800   0.20194   0.47476   0.00000  Uiso   1.00
C204   C     0.56955   0.21706   0.55103   0.00000  Uiso   1.00
C205   C     0.81456   0.09280   0.40678   0.00000  Uiso   1.00
C206   C     0.89896   0.11002   0.36923   0.00000  Uiso   1.00
C207   C     0.93528   0.08310   0.39724   0.00000  Uiso   1.00
H208   H     0.64062   0.00495   0.55160   0.00000  Uiso   1.00
H209   H     0.62317   0.93044   0.47278   0.00000  Uiso   1.00
H210   H     0.51736   0.08222   0.65263   0.00000  Uiso   1.00
H211   H     0.76828   0.99031   0.54711   0.00000  Uiso   1.00
H212   H     0.62430   0.86662   0.35751   0.00000  Uiso   1.00
H213   H     0.40121   0.18667   0.73674   0.00000  Uiso   1.00
H214   H     0.93032   0.99286   0.51423   0.00000  Uiso   1.00
H215   H     0.79858   0.14968   0.33655   0.00000  Uiso   1.00
H216   H     0.78981   0.08310   0.24593   0.00000  Uiso   1.00
H217   H     0.68400   0.23489   0.42578   0.00000  Uiso   1.00
H218   H     0.93491   0.14298   0.32026   0.00000  Uiso   1.00
H219   H     0.75955   0.99053   0.17338   0.00000  Uiso   1.00
H220   H     0.53646   0.31058   0.55262   0.00000  Uiso   1.00
H221   H     0.06557   0.11677   0.33011   0.00000  Uiso   1.00
O222   O     0.68328   0.88218   0.20972   0.00000  Uiso   1.00
O223   O     0.39060   0.30208   0.70726   0.00000  Uiso   1.00
O224   O     0.08478   0.04779   0.41534   0.00000  Uiso   1.00
N225   N     0.65735   0.90491   0.32660   0.00000  Uiso   1.00
N226   N     0.44877   0.20414   0.68116   0.00000  Uiso   1.00
N227   N     0.94343   0.02295   0.47315   0.00000  Uiso   1.00
N228   N     0.73013   0.97159   0.22753   0.00000  Uiso   1.00
N229   N     0.52154   0.27081   0.58208   0.00000  Uiso   1.00
N230   N     0.01621   0.08963   0.37407   0.00000  Uiso   1.00
C231   C     0.17681   0.53811   0.50232   0.00000  Uiso   1.00
C232   C     0.18924   0.51769   0.42968   0.00000  Uiso   1.00
C233   C     0.15915   0.46338   0.42379   0.00000  Uiso   1.00
C234   C     0.17720   0.45316   0.35229   0.00000  Uiso   1.00
C235   C     0.18940   0.41499   0.24914   0.00000  Uiso   1.00
C236   C     0.13175   0.60016   0.52740   0.00000  Uiso   1.00
C237   C     0.05332   0.61519   0.60367   0.00000  Uiso   1.00
C238   C     0.02298   0.67439   0.61443   0.00000  Uiso   1.00
C239   C     0.94594   0.76427   0.66299   0.00000  Uiso   1.00
C240   C     0.26808   0.55021   0.47006   0.00000  Uiso   1.00
C241   C     0.30427   0.52327   0.49814   0.00000  Uiso   1.00
C242   C     0.38871   0.54043   0.46064   0.00000  Uiso   1.00
C243   C     0.52335   0.55276   0.42018   0.00000  Uiso   1.00
C244   C     0.26239   0.61652   0.38582   0.00000  Uiso   1.00
C245   C     0.23573   0.56028   0.36640   0.00000  Uiso   1.00
C246   C     0.25384   0.55014   0.29489   0.00000  Uiso   1.00
C247   C     0.22378   0.49583   0.28889   0.00000  Uiso   1.00
C248   C     0.17823   0.64275   0.46412   0.00000  Uiso   1.00
C249   C     0.14800   0.70194   0.47476   0.00000  Uiso   1.00
C250   C     0.06955   0.71706   0.55103   0.00000  Uiso   1.00
C251   C     0.31456   0.59280   0.40678   0.00000  Uiso   1.00
C252   C     0.39896   0.61002   0.36923   0.00000  Uiso   1.00
C253   C     0.43528   0.58310   0.39724   0.00000  Uiso   1.00
H254   H     0.14062   0.50495   0.55160   0.00000  Uiso   1.00
H255   H     0.12317   0.43044   0.47278   0.00000  Uiso   1.00
H256   H     0.01736   0.58222   0.65263   0.00000  Uiso   1.00
H257   H     0.26828   0.49031   0.54711   0.00000  Uiso   1.00
H258   H     0.12430   0.36662   0.35751   0.00000  Uiso   1.00
H259   H     0.90121   0.68667   0.73674   0.00000  Uiso   1.00
H260   H     0.43032   0.49286   0.51423   0.00000  Uiso   1.00
H261   H     0.29858   0.64968   0.33655   0.00000  Uiso   1.00
H262   H     0.28981   0.58310   0.24593   0.00000  Uiso   1.00
H263   H     0.18400   0.73489   0.42578   0.00000  Uiso   1.00
H264   H     0.43491   0.64298   0.32026   0.00000  Uiso   1.00
H265   H     0.25955   0.49053   0.17338   0.00000  Uiso   1.00
H266   H     0.03646   0.81058   0.55262   0.00000  Uiso   1.00
H267   H     0.56557   0.61677   0.33011   0.00000  Uiso   1.00
O268   O     0.18328   0.38218   0.20972   0.00000  Uiso   1.00
O269   O     0.89060   0.80208   0.70726   0.00000  Uiso   1.00
O270   O     0.58478   0.54779   0.41534   0.00000  Uiso   1.00
N271   N     0.15735   0.40491   0.32660   0.00000  Uiso   1.00
N272   N     0.94877   0.70414   0.68116   0.00000  Uiso   1.00
N273   N     0.44343   0.52295   0.47315   0.00000  Uiso   1.00
N274   N     0.23013   0.47159   0.22753   0.00000  Uiso   1.00
N275   N     0.02154   0.77081   0.58208   0.00000  Uiso   1.00
N276   N     0.51621   0.58963   0.37407   0.00000  Uiso   1.00
C277   C     0.32319   0.03811   0.99768   0.00000  Uiso   1.00
C278   C     0.31076   0.01769   0.07032   0.00000  Uiso   1.00
C279   C     0.34085   0.96338   0.07621   0.00000  Uiso   1.00
C280   C     0.32280   0.95316   0.14771   0.00000  Uiso   1.00
C281   C     0.31060   0.91499   0.25086   0.00000  Uiso   1.00
C282   C     0.36825   0.10016   0.97260   0.00000  Uiso   1.00
C283   C     0.44668   0.11519   0.89633   0.00000  Uiso   1.00
C284   C     0.47702   0.17439   0.88557   0.00000  Uiso   1.00
C285   C     0.55406   0.26427   0.83701   0.00000  Uiso   1.00
C286   C     0.23192   0.05021   0.02994   0.00000  Uiso   1.00
C287   C     0.19573   0.02327   0.00186   0.00000  Uiso   1.00
C288   C     0.11129   0.04043   0.03936   0.00000  Uiso   1.00
C289   C     0.97665   0.05276   0.07982   0.00000  Uiso   1.00
C290   C     0.23761   0.11652   0.11418   0.00000  Uiso   1.00
C291   C     0.26427   0.06028   0.13360   0.00000  Uiso   1.00
C292   C     0.24616   0.05014   0.20511   0.00000  Uiso   1.00
C293   C     0.27622   0.99583   0.21111   0.00000  Uiso   1.00
C294   C     0.32177   0.14275   0.03588   0.00000  Uiso   1.00
C295   C     0.35200   0.20194   0.02524   0.00000  Uiso   1.00
C296   C     0.43045   0.21706   0.94897   0.00000  Uiso   1.00
C297   C     0.18544   0.09280   0.09322   0.00000  Uiso   1.00
C298   C     0.10104   0.11002   0.13077   0.00000  Uiso   1.00
C299   C     0.06472   0.08310   0.10276   0.00000  Uiso   1.00
H300   H     0.35938   0.00495   0.94840   0.00000  Uiso   1.00
H301   H     0.37683   0.93044   0.02722   0.00000  Uiso   1.00
H302   H     0.48264   0.08222   0.84737   0.00000  Uiso   1.00
H303   H     0.23172   0.99031   0.95289   0.00000  Uiso   1.00
H304   H     0.37570   0.86662   0.14249   0.00000  Uiso   1.00
H305   H     0.59879   0.18667   0.76326   0.00000  Uiso   1.00
H306   H     0.06968   0.99286   0.98577   0.00000  Uiso   1.00
H307   H     0.20142   0.14968   0.16345   0.00000  Uiso   1.00
H308   H     0.21019   0.08310   0.25407   0.00000  Uiso   1.00
H309   H     0.31600   0.23489   0.07422   0.00000  Uiso   1.00
H310   H     0.06509   0.14298   0.17974   0.00000  Uiso   1.00
H311   H     0.24045   0.99053   0.32662   0.00000  Uiso   1.00
H312   H     0.46354   0.31058   0.94738   0.00000  Uiso   1.00
H313   H     0.93443   0.11677   0.16989   0.00000  Uiso   1.00
O314   O     0.31672   0.88218   0.29028   0.00000  Uiso   1.00
O315   O     0.60940   0.30208   0.79274   0.00000  Uiso   1.00
O316   O     0.91522   0.04779   0.08466   0.00000  Uiso   1.00
N317   N     0.34265   0.90491   0.17340   0.00000  Uiso   1.00
N318   N     0.55123   0.20414   0.81884   0.00000  Uiso   1.00
N319   N     0.05657   0.02295   0.02685   0.00000  Uiso   1.00
N320   N     0.26987   0.97159   0.27247   0.00000  Uiso   1.00
N321   N     0.47846   0.27081   0.91792   0.00000  Uiso   1.00
N322   N     0.98379   0.08963   0.12593   0.00000  Uiso   1.00
C323   C     0.82319   0.53811   0.99768   0.00000  Uiso   1.00
C324   C     0.81076   0.51769   0.07032   0.00000  Uiso   1.00
C325   C     0.84085   0.46338   0.07621   0.00000  Uiso   1.00
C326   C     0.82280   0.45316   0.14771   0.00000  Uiso   1.00
C327   C     0.81060   0.41499   0.25086   0.00000  Uiso   1.00
C328   C     0.86825   0.60016   0.97260   0.00000  Uiso   1.00
C329   C     0.94668   0.61519   0.89633   0.00000  Uiso   1.00
C330   C     0.97702   0.67439   0.88557   0.00000  Uiso   1.00
C331   C     0.05406   0.76427   0.83701   0.00000  Uiso   1.00
C332   C     0.73192   0.55021   0.02994   0.00000  Uiso   1.00
C333   C     0.69573   0.52327   0.00186   0.00000  Uiso   1.00
C334   C     0.61129   0.54043   0.03936   0.00000  Uiso   1.00
C335   C     0.47665   0.55276   0.07982   0.00000  Uiso   1.00
C336   C     0.73761   0.61652   0.11418   0.00000  Uiso   1.00
C337   C     0.76427   0.56028   0.13360   0.00000  Uiso   1.00
C338   C     0.74616   0.55014   0.20511   0.00000  Uiso   1.00
C339   C     0.77622   0.49583   0.21111   0.00000  Uiso   1.00
C340   C     0.82177   0.64275   0.03588   0.00000  Uiso   1.00
C341   C     0.85200   0.70194   0.02524   0.00000  Uiso   1.00
C342   C     0.93045   0.71706   0.94897   0.00000  Uiso   1.00
C343   C     0.68544   0.59280   0.09322   0.00000  Uiso   1.00
C344   C     0.60104   0.61002   0.13077   0.00000  Uiso   1.00
C345   C     0.56472   0.58310   0.10276   0.00000  Uiso   1.00
H346   H     0.85938   0.50495   0.94840   0.00000  Uiso   1.00
H347   H     0.87683   0.43044   0.02722   0.00000  Uiso   1.00
H348   H     0.98264   0.58222   0.84737   0.00000  Uiso   1.00
H349   H     0.73172   0.49031   0.95289   0.00000  Uiso   1.00
H350   H     0.87570   0.36662   0.14249   0.00000  Uiso   1.00
H351   H     0.09879   0.68667   0.76326   0.00000  Uiso   1.00
H352   H     0.56968   0.49286   0.98577   0.00000  Uiso   1.00
H353   H     0.70142   0.64968   0.16345   0.00000  Uiso   1.00
H354   H     0.71019   0.58310   0.25407   0.00000  Uiso   1.00
H355   H     0.81600   0.73489   0.07422   0.00000  Uiso   1.00
H356   H     0.56509   0.64298   0.17974   0.00000  Uiso   1.00
H357   H     0.74045   0.49053   0.32662   0.00000  Uiso   1.00
H358   H     0.96354   0.81058   0.94738   0.00000  Uiso   1.00
H359   H     0.43443   0.61677   0.16989   0.00000  Uiso   1.00
O360   O     0.81672   0.38218   0.29028   0.00000  Uiso   1.00
O361   O     0.10940   0.80208   0.79274   0.00000  Uiso   1.00
O362   O     0.41522   0.54779   0.08466   0.00000  Uiso   1.00
N363   N     0.84265   0.40491   0.17340   0.00000  Uiso   1.00
N364   N     0.05123   0.70414   0.81884   0.00000  Uiso   1.00
N365   N     0.55657   0.52295   0.02685   0.00000  Uiso   1.00
N366   N     0.76987   0.47159   0.27247   0.00000  Uiso   1.00
N367   N     0.97846   0.77081   0.91792   0.00000  Uiso   1.00
N368   N     0.48379   0.58963   0.12593   0.00000  Uiso   1.00
