data_job_00914
_audit_creation_date              2018-12-19
_audit_creation_method            'Materials Studio'
_symmetry_space_group_name_H-M    'P1'
_symmetry_Int_Tables_number       1
_symmetry_cell_setting            triclinic
loop_
_symmetry_equiv_pos_as_xyz
  x,y,z
_cell_length_a                    10.8453
_cell_length_b                    11.7907
_cell_length_c                    12.4180
_cell_angle_alpha                 75.2037
_cell_angle_beta                  89.3665
_cell_angle_gamma                 64.2794
loop_
_atom_site_label
_atom_site_type_symbol
_atom_site_fract_x
_atom_site_fract_y
_atom_site_fract_z
_atom_site_U_iso_or_equiv
_atom_site_adp_type
_atom_site_occupancy
C1     C     0.40766   0.42028   0.73386   0.00000  Uiso   1.00
C2     C     0.32809   0.44553   0.83411   0.00000  Uiso   1.00
C3     C     0.28333   0.55860   0.86880   0.00000  Uiso   1.00
C4     C     0.21222   0.56263   0.96251   0.00000  Uiso   1.00
C5     C     0.09259   0.61784   0.10954   0.00000  Uiso   1.00
C6     C     0.53962   0.29397   0.77975   0.00000  Uiso   1.00
C7     C     0.67271   0.27962   0.76872   0.00000  Uiso   1.00
C8     C     0.77966   0.15606   0.81665   0.00000  Uiso   1.00
C9     C     0.98843   0.97595   0.87922   0.00000  Uiso   1.00
C10    C     0.32328   0.38843   0.65950   0.00000  Uiso   1.00
C11    C     0.27448   0.45348   0.54736   0.00000  Uiso   1.00
C12    C     0.19931   0.40943   0.49404   0.00000  Uiso   1.00
C13    C     0.07218   0.37598   0.36990   0.00000  Uiso   1.00
C14    C     0.36096   0.22635   0.83857   0.00000  Uiso   1.00
C15    C     0.30273   0.34019   0.89098   0.00000  Uiso   1.00
C16    C     0.23166   0.34405   0.98465   0.00000  Uiso   1.00
C17    C     0.18680   0.45711   0.01948   0.00000  Uiso   1.00
C18    C     0.51426   0.18864   0.83662   0.00000  Uiso   1.00
C19    C     0.62104   0.06507   0.88457   0.00000  Uiso   1.00
C20    C     0.75425   0.05054   0.87363   0.00000  Uiso   1.00
C21    C     0.29791   0.28310   0.71637   0.00000  Uiso   1.00
C22    C     0.22281   0.23893   0.66321   0.00000  Uiso   1.00
C23    C     0.17391   0.30391   0.55102   0.00000  Uiso   1.00
H24    H     0.42742   0.50228   0.68959   0.00000  Uiso   1.00
H25    H     0.30299   0.64009   0.82477   0.00000  Uiso   1.00
H26    H     0.69230   0.36115   0.72470   0.00000  Uiso   1.00
H27    H     0.29413   0.53499   0.50337   0.00000  Uiso   1.00
H28    H     0.15390   0.74642   0.99976   0.00000  Uiso   1.00
H29    H     0.97479   0.15824   0.78871   0.00000  Uiso   1.00
H30    H     0.13517   0.52481   0.32200   0.00000  Uiso   1.00
H31    H     0.34122   0.14434   0.88285   0.00000  Uiso   1.00
H32    H     0.21205   0.26252   0.02865   0.00000  Uiso   1.00
H33    H     0.60137   0.98358   0.92857   0.00000  Uiso   1.00
H34    H     0.20320   0.15741   0.70725   0.00000  Uiso   1.00
H35    H     0.08010   0.43996   0.16524   0.00000  Uiso   1.00
H36    H     0.90099   0.85178   0.95418   0.00000  Uiso   1.00
H37    H     0.06137   0.21836   0.48748   0.00000  Uiso   1.00
O38    O     0.03363   0.67738   0.17494   0.00000  Uiso   1.00
O39    O     0.11059   0.90571   0.89803   0.00000  Uiso   1.00
O40    O     0.00904   0.38664   0.28573   0.00000  Uiso   1.00
N41    N     0.15423   0.65809   0.01868   0.00000  Uiso   1.00
N42    N     0.92171   0.10818   0.82138   0.00000  Uiso   1.00
N43    N     0.13678   0.45087   0.38504   0.00000  Uiso   1.00
N44    N     0.11452   0.49319   0.10772   0.00000  Uiso   1.00
N45    N     0.88200   0.94328   0.91042   0.00000  Uiso   1.00
N46    N     0.09706   0.28597   0.47408   0.00000  Uiso   1.00
C47    C     0.59234   0.57972   0.26614   0.00000  Uiso   1.00
C48    C     0.67191   0.55447   0.16589   0.00000  Uiso   1.00
C49    C     0.71667   0.44140   0.13120   0.00000  Uiso   1.00
C50    C     0.78778   0.43737   0.03749   0.00000  Uiso   1.00
C51    C     0.90741   0.38216   0.89046   0.00000  Uiso   1.00
C52    C     0.46038   0.70603   0.22025   0.00000  Uiso   1.00
C53    C     0.32729   0.72038   0.23128   0.00000  Uiso   1.00
C54    C     0.22034   0.84394   0.18335   0.00000  Uiso   1.00
C55    C     0.01157   0.02405   0.12078   0.00000  Uiso   1.00
C56    C     0.67672   0.61157   0.34050   0.00000  Uiso   1.00
C57    C     0.72552   0.54652   0.45264   0.00000  Uiso   1.00
C58    C     0.80069   0.59057   0.50596   0.00000  Uiso   1.00
C59    C     0.92782   0.62402   0.63010   0.00000  Uiso   1.00
C60    C     0.63904   0.77365   0.16143   0.00000  Uiso   1.00
C61    C     0.69727   0.65981   0.10902   0.00000  Uiso   1.00
C62    C     0.76834   0.65595   0.01535   0.00000  Uiso   1.00
C63    C     0.81320   0.54289   0.98052   0.00000  Uiso   1.00
C64    C     0.48574   0.81136   0.16338   0.00000  Uiso   1.00
C65    C     0.37896   0.93493   0.11543   0.00000  Uiso   1.00
C66    C     0.24575   0.94946   0.12637   0.00000  Uiso   1.00
C67    C     0.70209   0.71690   0.28363   0.00000  Uiso   1.00
C68    C     0.77719   0.76107   0.33679   0.00000  Uiso   1.00
C69    C     0.82609   0.69609   0.44898   0.00000  Uiso   1.00
H70    H     0.57258   0.49772   0.31041   0.00000  Uiso   1.00
H71    H     0.69701   0.35991   0.17523   0.00000  Uiso   1.00
H72    H     0.30770   0.63885   0.27530   0.00000  Uiso   1.00
H73    H     0.70587   0.46501   0.49663   0.00000  Uiso   1.00
H74    H     0.84610   0.25358   0.00024   0.00000  Uiso   1.00
H75    H     0.02521   0.84176   0.21129   0.00000  Uiso   1.00
H76    H     0.86483   0.47519   0.67800   0.00000  Uiso   1.00
H77    H     0.65878   0.85566   0.11715   0.00000  Uiso   1.00
H78    H     0.78795   0.73748   0.97135   0.00000  Uiso   1.00
H79    H     0.39863   0.01642   0.07143   0.00000  Uiso   1.00
H80    H     0.79680   0.84259   0.29275   0.00000  Uiso   1.00
H81    H     0.91990   0.56004   0.83476   0.00000  Uiso   1.00
H82    H     0.09901   0.14822   0.04582   0.00000  Uiso   1.00
H83    H     0.93863   0.78164   0.51252   0.00000  Uiso   1.00
O84    O     0.96637   0.32262   0.82506   0.00000  Uiso   1.00
O85    O     0.88941   0.09429   0.10197   0.00000  Uiso   1.00
O86    O     0.99096   0.61336   0.71427   0.00000  Uiso   1.00
N87    N     0.84577   0.34191   0.98132   0.00000  Uiso   1.00
N88    N     0.07829   0.89182   0.17862   0.00000  Uiso   1.00
N89    N     0.86322   0.54913   0.61496   0.00000  Uiso   1.00
N90    N     0.88548   0.50681   0.89228   0.00000  Uiso   1.00
N91    N     0.11800   0.05672   0.08958   0.00000  Uiso   1.00
N92    N     0.90294   0.71403   0.52592   0.00000  Uiso   1.00
