data_job_03071
_audit_creation_date              2018-12-19
_audit_creation_method            'Materials Studio'
_symmetry_space_group_name_H-M    'P1'
_symmetry_Int_Tables_number       1
_symmetry_cell_setting            triclinic
loop_
_symmetry_equiv_pos_as_xyz
  x,y,z
_cell_length_a                    26.5133
_cell_length_b                    18.0787
_cell_length_c                    10.2274
_cell_angle_alpha                 90.0000
_cell_angle_beta                  90.0000
_cell_angle_gamma                 90.0000
loop_
_atom_site_label
_atom_site_type_symbol
_atom_site_fract_x
_atom_site_fract_y
_atom_site_fract_z
_atom_site_U_iso_or_equiv
_atom_site_adp_type
_atom_site_occupancy
C1     C     0.15755   0.54894   0.24714   0.00000  Uiso   1.00
C2     C     0.15231   0.46821   0.28815   0.00000  Uiso   1.00
C3     C     0.18658   0.42883   0.36347   0.00000  Uiso   1.00
C4     C     0.17492   0.35551   0.39032   0.00000  Uiso   1.00
C5     C     0.17355   0.23512   0.46106   0.00000  Uiso   1.00
C6     C     0.15429   0.54954   0.09828   0.00000  Uiso   1.00
C7     C     0.19022   0.57855   0.01397   0.00000  Uiso   1.00
C8     C     0.18022   0.57371   0.88099   0.00000  Uiso   1.00
C9     C     0.18190   0.57963   0.65697   0.00000  Uiso   1.00
C10    C     0.11010   0.58783   0.29586   0.00000  Uiso   1.00
C11    C     0.10888   0.64906   0.37765   0.00000  Uiso   1.00
C12    C     0.06168   0.67647   0.41099   0.00000  Uiso   1.00
C13    C     0.99475   0.74186   0.49374   0.00000  Uiso   1.00
C14    C     0.07591   0.48877   0.16087   0.00000  Uiso   1.00
C15    C     0.10796   0.43552   0.24128   0.00000  Uiso   1.00
C16    C     0.09625   0.36225   0.26803   0.00000  Uiso   1.00
C17    C     0.13050   0.32277   0.34338   0.00000  Uiso   1.00
C18    C     0.10995   0.51685   0.05142   0.00000  Uiso   1.00
C19    C     0.09989   0.51197   0.91853   0.00000  Uiso   1.00
C20    C     0.13580   0.54096   0.83404   0.00000  Uiso   1.00
C21    C     0.06576   0.55515   0.24900   0.00000  Uiso   1.00
C22    C     0.01855   0.58248   0.28221   0.00000  Uiso   1.00
C23    C     0.01726   0.64373   0.36404   0.00000  Uiso   1.00
H24    H     0.19208   0.57439   0.28361   0.00000  Uiso   1.00
H25    H     0.22090   0.45414   0.39970   0.00000  Uiso   1.00
H26    H     0.22453   0.60384   0.05026   0.00000  Uiso   1.00
H27    H     0.14321   0.67434   0.41389   0.00000  Uiso   1.00
H28    H     0.23330   0.30640   0.50771   0.00000  Uiso   1.00
H29    H     0.24096   0.62208   0.77090   0.00000  Uiso   1.00
H30    H     0.06947   0.77074   0.53767   0.00000  Uiso   1.00
H31    H     0.04138   0.46332   0.12439   0.00000  Uiso   1.00
H32    H     0.06193   0.33697   0.23175   0.00000  Uiso   1.00
H33    H     0.06557   0.48668   0.88231   0.00000  Uiso   1.00
H34    H     0.98424   0.55717   0.24593   0.00000  Uiso   1.00
H35    H     0.10428   0.21131   0.37139   0.00000  Uiso   1.00
H36    H     0.11194   0.52699   0.63458   0.00000  Uiso   1.00
H37    H     0.94045   0.67564   0.40135   0.00000  Uiso   1.00
O38    O     0.18504   0.17774   0.51302   0.00000  Uiso   1.00
O39    O     0.19508   0.59192   0.54635   0.00000  Uiso   1.00
O40    O     0.97009   0.78694   0.55234   0.00000  Uiso   1.00
N41    N     0.20011   0.30137   0.46092   0.00000  Uiso   1.00
N42    N     0.20728   0.59650   0.77204   0.00000  Uiso   1.00
N43    N     0.04695   0.73549   0.48888   0.00000  Uiso   1.00
N44    N     0.13069   0.25019   0.38757   0.00000  Uiso   1.00
N45    N     0.13785   0.54533   0.69869   0.00000  Uiso   1.00
N46    N     0.97752   0.68432   0.41553   0.00000  Uiso   1.00
C47    C     0.83597   0.12087   0.75457   0.00000  Uiso   1.00
C48    C     0.84162   0.04044   0.71211   0.00000  Uiso   1.00
C49    C     0.80747   0.00105   0.63643   0.00000  Uiso   1.00
C50    C     0.81951   0.92804   0.60821   0.00000  Uiso   1.00
C51    C     0.82149   0.80806   0.53536   0.00000  Uiso   1.00
C52    C     0.83944   0.12068   0.90340   0.00000  Uiso   1.00
C53    C     0.80347   0.14878   0.98854   0.00000  Uiso   1.00
C54    C     0.81368   0.14333   0.12134   0.00000  Uiso   1.00
C55    C     0.81230   0.14799   0.34547   0.00000  Uiso   1.00
C56    C     0.88312   0.16063   0.70607   0.00000  Uiso   1.00
C57    C     0.88387   0.22232   0.62534   0.00000  Uiso   1.00
C58    C     0.93086   0.25050   0.59203   0.00000  Uiso   1.00
C59    C     0.99728   0.31718   0.50978   0.00000  Uiso   1.00
C60    C     0.91809   0.06125   0.83901   0.00000  Uiso   1.00
C61    C     0.88622   0.00805   0.75798   0.00000  Uiso   1.00
C62    C     0.89832   0.93508   0.72986   0.00000  Uiso   1.00
C63    C     0.86420   0.89559   0.65415   0.00000  Uiso   1.00
C64    C     0.88404   0.08830   0.94926   0.00000  Uiso   1.00
C65    C     0.89432   0.08281   0.08197   0.00000  Uiso   1.00
C66    C     0.85836   0.11088   0.16729   0.00000  Uiso   1.00
C67    C     0.92772   0.12824   0.75194   0.00000  Uiso   1.00
C68    C     0.97472   0.15635   0.71876   0.00000  Uiso   1.00
C69    C     0.97554   0.21806   0.63798   0.00000  Uiso   1.00
H70    H     0.80125   0.14608   0.71887   0.00000  Uiso   1.00
H71    H     0.77296   0.02613   0.60097   0.00000  Uiso   1.00
H72    H     0.76896   0.17384   0.95302   0.00000  Uiso   1.00
H73    H     0.84934   0.24736   0.58986   0.00000  Uiso   1.00
H74    H     0.76125   0.87885   0.49052   0.00000  Uiso   1.00
H75    H     0.75283   0.19033   0.23284   0.00000  Uiso   1.00
H76    H     0.92234   0.34537   0.46706   0.00000  Uiso   1.00
H77    H     0.95281   0.03604   0.87472   0.00000  Uiso   1.00
H78    H     0.93284   0.91004   0.76537   0.00000  Uiso   1.00
H79    H     0.92884   0.05775   0.11742   0.00000  Uiso   1.00
H80    H     0.00923   0.13127   0.75427   0.00000  Uiso   1.00
H81    H     0.89102   0.78462   0.62396   0.00000  Uiso   1.00
H82    H     0.88259   0.09611   0.36628   0.00000  Uiso   1.00
H83    H     0.05211   0.25114   0.60050   0.00000  Uiso   1.00
O84    O     0.81025   0.75083   0.48253   0.00000  Uiso   1.00
O85    O     0.79920   0.15950   0.45642   0.00000  Uiso   1.00
O86    O     0.02160   0.36289   0.45173   0.00000  Uiso   1.00
N87    N     0.79454   0.87397   0.53691   0.00000  Uiso   1.00
N88    N     0.78666   0.16517   0.23094   0.00000  Uiso   1.00
N89    N     0.94514   0.31013   0.51502   0.00000  Uiso   1.00
N90    N     0.86436   0.82326   0.60871   0.00000  Uiso   1.00
N91    N     0.85648   0.11447   0.30274   0.00000  Uiso   1.00
N92    N     0.01496   0.25943   0.58682   0.00000  Uiso   1.00
C93    C     0.84245   0.45106   0.74714   0.00000  Uiso   1.00
C94    C     0.84769   0.53179   0.78815   0.00000  Uiso   1.00
C95    C     0.81342   0.57117   0.86347   0.00000  Uiso   1.00
C96    C     0.82508   0.64449   0.89032   0.00000  Uiso   1.00
C97    C     0.82645   0.76488   0.96106   0.00000  Uiso   1.00
C98    C     0.84571   0.45046   0.59828   0.00000  Uiso   1.00
C99    C     0.80978   0.42145   0.51397   0.00000  Uiso   1.00
C100   C     0.81978   0.42629   0.38099   0.00000  Uiso   1.00
C101   C     0.81810   0.42037   0.15697   0.00000  Uiso   1.00
C102   C     0.88990   0.41217   0.79586   0.00000  Uiso   1.00
C103   C     0.89112   0.35094   0.87765   0.00000  Uiso   1.00
C104   C     0.93832   0.32353   0.91099   0.00000  Uiso   1.00
C105   C     0.00525   0.25814   0.99374   0.00000  Uiso   1.00
C106   C     0.92409   0.51123   0.66087   0.00000  Uiso   1.00
C107   C     0.89204   0.56448   0.74128   0.00000  Uiso   1.00
C108   C     0.90375   0.63775   0.76803   0.00000  Uiso   1.00
C109   C     0.86950   0.67723   0.84338   0.00000  Uiso   1.00
C110   C     0.89005   0.48315   0.55142   0.00000  Uiso   1.00
C111   C     0.90011   0.48803   0.41853   0.00000  Uiso   1.00
C112   C     0.86420   0.45904   0.33404   0.00000  Uiso   1.00
C113   C     0.93424   0.44485   0.74900   0.00000  Uiso   1.00
C114   C     0.98145   0.41752   0.78221   0.00000  Uiso   1.00
C115   C     0.98274   0.35627   0.86404   0.00000  Uiso   1.00
H116   H     0.80792   0.42561   0.78361   0.00000  Uiso   1.00
H117   H     0.77910   0.54586   0.89970   0.00000  Uiso   1.00
H118   H     0.77547   0.39616   0.55026   0.00000  Uiso   1.00
H119   H     0.85679   0.32566   0.91389   0.00000  Uiso   1.00
H120   H     0.76670   0.69360   0.00771   0.00000  Uiso   1.00
H121   H     0.75904   0.37792   0.27090   0.00000  Uiso   1.00
H122   H     0.93053   0.22926   0.03767   0.00000  Uiso   1.00
H123   H     0.95862   0.53668   0.62439   0.00000  Uiso   1.00
H124   H     0.93807   0.66303   0.73175   0.00000  Uiso   1.00
H125   H     0.93443   0.51332   0.38231   0.00000  Uiso   1.00
H126   H     0.01576   0.44283   0.74593   0.00000  Uiso   1.00
H127   H     0.89572   0.78869   0.87139   0.00000  Uiso   1.00
H128   H     0.88806   0.47301   0.13458   0.00000  Uiso   1.00
H129   H     0.05955   0.32436   0.90135   0.00000  Uiso   1.00
O130   O     0.81496   0.82226   0.01302   0.00000  Uiso   1.00
O131   O     0.80492   0.40808   0.04635   0.00000  Uiso   1.00
O132   O     0.02991   0.21306   0.05234   0.00000  Uiso   1.00
N133   N     0.79989   0.69863   0.96092   0.00000  Uiso   1.00
N134   N     0.79272   0.40350   0.27204   0.00000  Uiso   1.00
N135   N     0.95305   0.26451   0.98888   0.00000  Uiso   1.00
N136   N     0.86931   0.74981   0.88757   0.00000  Uiso   1.00
N137   N     0.86215   0.45467   0.19869   0.00000  Uiso   1.00
N138   N     0.02248   0.31568   0.91553   0.00000  Uiso   1.00
C139   C     0.16403   0.87913   0.25457   0.00000  Uiso   1.00
C140   C     0.15838   0.95956   0.21211   0.00000  Uiso   1.00
C141   C     0.19253   0.99895   0.13643   0.00000  Uiso   1.00
C142   C     0.18049   0.07196   0.10821   0.00000  Uiso   1.00
C143   C     0.17851   0.19194   0.03536   0.00000  Uiso   1.00
C144   C     0.16056   0.87932   0.40340   0.00000  Uiso   1.00
C145   C     0.19653   0.85122   0.48854   0.00000  Uiso   1.00
C146   C     0.18632   0.85667   0.62134   0.00000  Uiso   1.00
C147   C     0.18770   0.85201   0.84547   0.00000  Uiso   1.00
C148   C     0.11688   0.83937   0.20607   0.00000  Uiso   1.00
C149   C     0.11613   0.77768   0.12534   0.00000  Uiso   1.00
C150   C     0.06914   0.74950   0.09203   0.00000  Uiso   1.00
C151   C     0.00272   0.68282   0.00978   0.00000  Uiso   1.00
C152   C     0.08191   0.93875   0.33901   0.00000  Uiso   1.00
C153   C     0.11378   0.99195   0.25798   0.00000  Uiso   1.00
C154   C     0.10168   0.06492   0.22986   0.00000  Uiso   1.00
C155   C     0.13580   0.10441   0.15415   0.00000  Uiso   1.00
C156   C     0.11596   0.91170   0.44926   0.00000  Uiso   1.00
C157   C     0.10568   0.91719   0.58197   0.00000  Uiso   1.00
C158   C     0.14164   0.88912   0.66729   0.00000  Uiso   1.00
C159   C     0.07228   0.87176   0.25194   0.00000  Uiso   1.00
C160   C     0.02528   0.84365   0.21876   0.00000  Uiso   1.00
C161   C     0.02446   0.78194   0.13798   0.00000  Uiso   1.00
H162   H     0.19875   0.85392   0.21887   0.00000  Uiso   1.00
H163   H     0.22704   0.97387   0.10097   0.00000  Uiso   1.00
H164   H     0.23104   0.82616   0.45302   0.00000  Uiso   1.00
H165   H     0.15066   0.75264   0.08986   0.00000  Uiso   1.00
H166   H     0.23875   0.12115   0.99052   0.00000  Uiso   1.00
H167   H     0.24717   0.80967   0.73284   0.00000  Uiso   1.00
H168   H     0.07766   0.65463   0.96706   0.00000  Uiso   1.00
H169   H     0.04719   0.96396   0.37472   0.00000  Uiso   1.00
H170   H     0.06716   0.08996   0.26537   0.00000  Uiso   1.00
H171   H     0.07116   0.94225   0.61742   0.00000  Uiso   1.00
H172   H     0.99077   0.86873   0.25427   0.00000  Uiso   1.00
H173   H     0.10898   0.21538   0.12396   0.00000  Uiso   1.00
H174   H     0.11741   0.90389   0.86628   0.00000  Uiso   1.00
H175   H     0.94789   0.74886   0.10050   0.00000  Uiso   1.00
O176   O     0.18975   0.24917   0.98253   0.00000  Uiso   1.00
O177   O     0.20080   0.84050   0.95642   0.00000  Uiso   1.00
O178   O     0.97840   0.63711   0.95173   0.00000  Uiso   1.00
N179   N     0.20546   0.12603   0.03691   0.00000  Uiso   1.00
N180   N     0.21334   0.83483   0.73094   0.00000  Uiso   1.00
N181   N     0.05486   0.68987   0.01502   0.00000  Uiso   1.00
N182   N     0.13564   0.17674   0.10871   0.00000  Uiso   1.00
N183   N     0.14352   0.88553   0.80274   0.00000  Uiso   1.00
N184   N     0.98504   0.74057   0.08682   0.00000  Uiso   1.00
C185   C     0.65755   0.95106   0.24714   0.00000  Uiso   1.00
C186   C     0.65231   0.03179   0.28815   0.00000  Uiso   1.00
C187   C     0.68658   0.07117   0.36347   0.00000  Uiso   1.00
C188   C     0.67492   0.14449   0.39032   0.00000  Uiso   1.00
C189   C     0.67355   0.26488   0.46106   0.00000  Uiso   1.00
C190   C     0.65429   0.95046   0.09828   0.00000  Uiso   1.00
C191   C     0.69022   0.92145   0.01397   0.00000  Uiso   1.00
C192   C     0.68022   0.92629   0.88099   0.00000  Uiso   1.00
C193   C     0.68190   0.92037   0.65697   0.00000  Uiso   1.00
C194   C     0.61010   0.91217   0.29586   0.00000  Uiso   1.00
C195   C     0.60888   0.85094   0.37765   0.00000  Uiso   1.00
C196   C     0.56168   0.82353   0.41099   0.00000  Uiso   1.00
C197   C     0.49475   0.75814   0.49374   0.00000  Uiso   1.00
C198   C     0.57591   0.01123   0.16087   0.00000  Uiso   1.00
C199   C     0.60796   0.06448   0.24128   0.00000  Uiso   1.00
C200   C     0.59625   0.13775   0.26803   0.00000  Uiso   1.00
C201   C     0.63050   0.17723   0.34338   0.00000  Uiso   1.00
C202   C     0.60995   0.98315   0.05142   0.00000  Uiso   1.00
C203   C     0.59989   0.98803   0.91853   0.00000  Uiso   1.00
C204   C     0.63580   0.95904   0.83404   0.00000  Uiso   1.00
C205   C     0.56576   0.94485   0.24900   0.00000  Uiso   1.00
C206   C     0.51855   0.91752   0.28221   0.00000  Uiso   1.00
C207   C     0.51726   0.85627   0.36404   0.00000  Uiso   1.00
H208   H     0.69208   0.92561   0.28361   0.00000  Uiso   1.00
H209   H     0.72090   0.04586   0.39970   0.00000  Uiso   1.00
H210   H     0.72453   0.89616   0.05026   0.00000  Uiso   1.00
H211   H     0.64321   0.82566   0.41389   0.00000  Uiso   1.00
H212   H     0.73330   0.19360   0.50771   0.00000  Uiso   1.00
H213   H     0.74096   0.87792   0.77090   0.00000  Uiso   1.00
H214   H     0.56947   0.72926   0.53767   0.00000  Uiso   1.00
H215   H     0.54138   0.03668   0.12439   0.00000  Uiso   1.00
H216   H     0.56193   0.16303   0.23175   0.00000  Uiso   1.00
H217   H     0.56557   0.01332   0.88231   0.00000  Uiso   1.00
H218   H     0.48424   0.94283   0.24593   0.00000  Uiso   1.00
H219   H     0.60428   0.28869   0.37139   0.00000  Uiso   1.00
H220   H     0.61194   0.97301   0.63458   0.00000  Uiso   1.00
H221   H     0.44045   0.82436   0.40135   0.00000  Uiso   1.00
O222   O     0.68504   0.32226   0.51302   0.00000  Uiso   1.00
O223   O     0.69508   0.90808   0.54635   0.00000  Uiso   1.00
O224   O     0.47009   0.71306   0.55234   0.00000  Uiso   1.00
N225   N     0.70011   0.19863   0.46092   0.00000  Uiso   1.00
N226   N     0.70728   0.90350   0.77204   0.00000  Uiso   1.00
N227   N     0.54695   0.76451   0.48888   0.00000  Uiso   1.00
N228   N     0.63069   0.24981   0.38757   0.00000  Uiso   1.00
N229   N     0.63785   0.95467   0.69869   0.00000  Uiso   1.00
N230   N     0.47752   0.81568   0.41553   0.00000  Uiso   1.00
C231   C     0.33597   0.37913   0.75457   0.00000  Uiso   1.00
C232   C     0.34162   0.45956   0.71211   0.00000  Uiso   1.00
C233   C     0.30747   0.49895   0.63643   0.00000  Uiso   1.00
C234   C     0.31951   0.57196   0.60821   0.00000  Uiso   1.00
C235   C     0.32149   0.69194   0.53536   0.00000  Uiso   1.00
C236   C     0.33944   0.37932   0.90340   0.00000  Uiso   1.00
C237   C     0.30347   0.35122   0.98854   0.00000  Uiso   1.00
C238   C     0.31368   0.35667   0.12134   0.00000  Uiso   1.00
C239   C     0.31230   0.35201   0.34547   0.00000  Uiso   1.00
C240   C     0.38312   0.33937   0.70607   0.00000  Uiso   1.00
C241   C     0.38387   0.27768   0.62534   0.00000  Uiso   1.00
C242   C     0.43086   0.24950   0.59203   0.00000  Uiso   1.00
C243   C     0.49728   0.18282   0.50978   0.00000  Uiso   1.00
C244   C     0.41809   0.43875   0.83901   0.00000  Uiso   1.00
C245   C     0.38622   0.49195   0.75798   0.00000  Uiso   1.00
C246   C     0.39832   0.56492   0.72986   0.00000  Uiso   1.00
C247   C     0.36420   0.60441   0.65415   0.00000  Uiso   1.00
C248   C     0.38404   0.41170   0.94926   0.00000  Uiso   1.00
C249   C     0.39432   0.41719   0.08197   0.00000  Uiso   1.00
C250   C     0.35836   0.38912   0.16729   0.00000  Uiso   1.00
C251   C     0.42772   0.37176   0.75194   0.00000  Uiso   1.00
C252   C     0.47472   0.34365   0.71876   0.00000  Uiso   1.00
C253   C     0.47554   0.28194   0.63798   0.00000  Uiso   1.00
H254   H     0.30125   0.35392   0.71887   0.00000  Uiso   1.00
H255   H     0.27296   0.47387   0.60097   0.00000  Uiso   1.00
H256   H     0.26896   0.32616   0.95302   0.00000  Uiso   1.00
H257   H     0.34934   0.25264   0.58986   0.00000  Uiso   1.00
H258   H     0.26125   0.62115   0.49052   0.00000  Uiso   1.00
H259   H     0.25283   0.30967   0.23284   0.00000  Uiso   1.00
H260   H     0.42234   0.15463   0.46706   0.00000  Uiso   1.00
H261   H     0.45281   0.46396   0.87472   0.00000  Uiso   1.00
H262   H     0.43284   0.58996   0.76537   0.00000  Uiso   1.00
H263   H     0.42884   0.44225   0.11742   0.00000  Uiso   1.00
H264   H     0.50923   0.36873   0.75427   0.00000  Uiso   1.00
H265   H     0.39102   0.71538   0.62396   0.00000  Uiso   1.00
H266   H     0.38259   0.40389   0.36628   0.00000  Uiso   1.00
H267   H     0.55211   0.24886   0.60050   0.00000  Uiso   1.00
O268   O     0.31025   0.74917   0.48253   0.00000  Uiso   1.00
O269   O     0.29920   0.34050   0.45642   0.00000  Uiso   1.00
O270   O     0.52160   0.13711   0.45173   0.00000  Uiso   1.00
N271   N     0.29454   0.62603   0.53691   0.00000  Uiso   1.00
N272   N     0.28666   0.33483   0.23094   0.00000  Uiso   1.00
N273   N     0.44514   0.18987   0.51502   0.00000  Uiso   1.00
N274   N     0.36436   0.67674   0.60871   0.00000  Uiso   1.00
N275   N     0.35648   0.38553   0.30274   0.00000  Uiso   1.00
N276   N     0.51496   0.24057   0.58682   0.00000  Uiso   1.00
C277   C     0.34245   0.04894   0.74714   0.00000  Uiso   1.00
C278   C     0.34769   0.96821   0.78815   0.00000  Uiso   1.00
C279   C     0.31342   0.92883   0.86347   0.00000  Uiso   1.00
C280   C     0.32508   0.85551   0.89032   0.00000  Uiso   1.00
C281   C     0.32645   0.73512   0.96106   0.00000  Uiso   1.00
C282   C     0.34571   0.04954   0.59828   0.00000  Uiso   1.00
C283   C     0.30978   0.07855   0.51397   0.00000  Uiso   1.00
C284   C     0.31978   0.07371   0.38099   0.00000  Uiso   1.00
C285   C     0.31810   0.07963   0.15697   0.00000  Uiso   1.00
C286   C     0.38990   0.08783   0.79586   0.00000  Uiso   1.00
C287   C     0.39112   0.14906   0.87765   0.00000  Uiso   1.00
C288   C     0.43832   0.17647   0.91099   0.00000  Uiso   1.00
C289   C     0.50525   0.24186   0.99374   0.00000  Uiso   1.00
C290   C     0.42409   0.98877   0.66087   0.00000  Uiso   1.00
C291   C     0.39204   0.93552   0.74128   0.00000  Uiso   1.00
C292   C     0.40375   0.86225   0.76803   0.00000  Uiso   1.00
C293   C     0.36950   0.82277   0.84338   0.00000  Uiso   1.00
C294   C     0.39005   0.01685   0.55142   0.00000  Uiso   1.00
C295   C     0.40011   0.01197   0.41853   0.00000  Uiso   1.00
C296   C     0.36420   0.04096   0.33404   0.00000  Uiso   1.00
C297   C     0.43424   0.05515   0.74900   0.00000  Uiso   1.00
C298   C     0.48145   0.08248   0.78221   0.00000  Uiso   1.00
C299   C     0.48274   0.14373   0.86404   0.00000  Uiso   1.00
H300   H     0.30792   0.07439   0.78361   0.00000  Uiso   1.00
H301   H     0.27910   0.95414   0.89970   0.00000  Uiso   1.00
H302   H     0.27547   0.10384   0.55026   0.00000  Uiso   1.00
H303   H     0.35679   0.17434   0.91389   0.00000  Uiso   1.00
H304   H     0.26670   0.80640   0.00771   0.00000  Uiso   1.00
H305   H     0.25904   0.12208   0.27090   0.00000  Uiso   1.00
H306   H     0.43053   0.27074   0.03767   0.00000  Uiso   1.00
H307   H     0.45862   0.96332   0.62439   0.00000  Uiso   1.00
H308   H     0.43807   0.83697   0.73175   0.00000  Uiso   1.00
H309   H     0.43443   0.98668   0.38231   0.00000  Uiso   1.00
H310   H     0.51576   0.05717   0.74593   0.00000  Uiso   1.00
H311   H     0.39572   0.71131   0.87139   0.00000  Uiso   1.00
H312   H     0.38806   0.02699   0.13458   0.00000  Uiso   1.00
H313   H     0.55955   0.17564   0.90135   0.00000  Uiso   1.00
O314   O     0.31496   0.67774   0.01302   0.00000  Uiso   1.00
O315   O     0.30492   0.09192   0.04635   0.00000  Uiso   1.00
O316   O     0.52991   0.28694   0.05234   0.00000  Uiso   1.00
N317   N     0.29989   0.80137   0.96092   0.00000  Uiso   1.00
N318   N     0.29272   0.09650   0.27204   0.00000  Uiso   1.00
N319   N     0.45305   0.23549   0.98888   0.00000  Uiso   1.00
N320   N     0.36931   0.75019   0.88757   0.00000  Uiso   1.00
N321   N     0.36215   0.04533   0.19869   0.00000  Uiso   1.00
N322   N     0.52248   0.18432   0.91553   0.00000  Uiso   1.00
C323   C     0.66403   0.62087   0.25457   0.00000  Uiso   1.00
C324   C     0.65838   0.54044   0.21211   0.00000  Uiso   1.00
C325   C     0.69253   0.50105   0.13643   0.00000  Uiso   1.00
C326   C     0.68049   0.42804   0.10821   0.00000  Uiso   1.00
C327   C     0.67851   0.30806   0.03536   0.00000  Uiso   1.00
C328   C     0.66056   0.62068   0.40340   0.00000  Uiso   1.00
C329   C     0.69653   0.64878   0.48854   0.00000  Uiso   1.00
C330   C     0.68632   0.64333   0.62134   0.00000  Uiso   1.00
C331   C     0.68770   0.64799   0.84547   0.00000  Uiso   1.00
C332   C     0.61688   0.66063   0.20607   0.00000  Uiso   1.00
C333   C     0.61613   0.72232   0.12534   0.00000  Uiso   1.00
C334   C     0.56914   0.75050   0.09203   0.00000  Uiso   1.00
C335   C     0.50272   0.81718   0.00978   0.00000  Uiso   1.00
C336   C     0.58191   0.56125   0.33901   0.00000  Uiso   1.00
C337   C     0.61378   0.50805   0.25798   0.00000  Uiso   1.00
C338   C     0.60168   0.43508   0.22986   0.00000  Uiso   1.00
C339   C     0.63580   0.39559   0.15415   0.00000  Uiso   1.00
C340   C     0.61596   0.58830   0.44926   0.00000  Uiso   1.00
C341   C     0.60568   0.58281   0.58197   0.00000  Uiso   1.00
C342   C     0.64164   0.61088   0.66729   0.00000  Uiso   1.00
C343   C     0.57228   0.62824   0.25194   0.00000  Uiso   1.00
C344   C     0.52528   0.65635   0.21876   0.00000  Uiso   1.00
C345   C     0.52446   0.71806   0.13798   0.00000  Uiso   1.00
H346   H     0.69875   0.64608   0.21887   0.00000  Uiso   1.00
H347   H     0.72704   0.52613   0.10097   0.00000  Uiso   1.00
H348   H     0.73104   0.67384   0.45302   0.00000  Uiso   1.00
H349   H     0.65066   0.74736   0.08986   0.00000  Uiso   1.00
H350   H     0.73875   0.37885   0.99052   0.00000  Uiso   1.00
H351   H     0.74717   0.69033   0.73284   0.00000  Uiso   1.00
H352   H     0.57766   0.84537   0.96706   0.00000  Uiso   1.00
H353   H     0.54719   0.53604   0.37472   0.00000  Uiso   1.00
H354   H     0.56716   0.41004   0.26537   0.00000  Uiso   1.00
H355   H     0.57116   0.55775   0.61742   0.00000  Uiso   1.00
H356   H     0.49077   0.63127   0.25427   0.00000  Uiso   1.00
H357   H     0.60898   0.28462   0.12396   0.00000  Uiso   1.00
H358   H     0.61741   0.59611   0.86628   0.00000  Uiso   1.00
H359   H     0.44789   0.75114   0.10050   0.00000  Uiso   1.00
O360   O     0.68975   0.25083   0.98253   0.00000  Uiso   1.00
O361   O     0.70080   0.65950   0.95642   0.00000  Uiso   1.00
O362   O     0.47840   0.86289   0.95173   0.00000  Uiso   1.00
N363   N     0.70546   0.37397   0.03691   0.00000  Uiso   1.00
N364   N     0.71334   0.66517   0.73094   0.00000  Uiso   1.00
N365   N     0.55486   0.81013   0.01502   0.00000  Uiso   1.00
N366   N     0.63564   0.32326   0.10871   0.00000  Uiso   1.00
N367   N     0.64352   0.61447   0.80274   0.00000  Uiso   1.00
N368   N     0.48504   0.75943   0.08682   0.00000  Uiso   1.00
