data_job_03265
_audit_creation_date              2018-12-19
_audit_creation_method            'Materials Studio'
_symmetry_space_group_name_H-M    'P1'
_symmetry_Int_Tables_number       1
_symmetry_cell_setting            triclinic
loop_
_symmetry_equiv_pos_as_xyz
  x,y,z
_cell_length_a                    12.5142
_cell_length_b                    13.8406
_cell_length_c                    15.6241
_cell_angle_alpha                 87.5989
_cell_angle_beta                  71.5189
_cell_angle_gamma                 76.3011
loop_
_atom_site_label
_atom_site_type_symbol
_atom_site_fract_x
_atom_site_fract_y
_atom_site_fract_z
_atom_site_U_iso_or_equiv
_atom_site_adp_type
_atom_site_occupancy
C1     C     0.23974   0.22556   0.10840   0.00000  Uiso   1.00
C2     C     0.18236   0.24751   0.03469   0.00000  Uiso   1.00
C3     C     0.10857   0.19560   0.01766   0.00000  Uiso   1.00
C4     C     0.06508   0.22725   0.94717   0.00000  Uiso   1.00
C5     C     0.97157   0.24903   0.84054   0.00000  Uiso   1.00
C6     C     0.36974   0.20905   0.06051   0.00000  Uiso   1.00
C7     C     0.45350   0.12480   0.06520   0.00000  Uiso   1.00
C8     C     0.56775   0.12409   0.01646   0.00000  Uiso   1.00
C9     C     0.76517   0.08619   0.94997   0.00000  Uiso   1.00
C10    C     0.20410   0.32191   0.16496   0.00000  Uiso   1.00
C11    C     0.14861   0.33256   0.25746   0.00000  Uiso   1.00
C12    C     0.12342   0.42686   0.29666   0.00000  Uiso   1.00
C13    C     0.06365   0.56419   0.39233   0.00000  Uiso   1.00
C14    C     0.29371   0.37410   0.01352   0.00000  Uiso   1.00
C15    C     0.21168   0.32819   0.98316   0.00000  Uiso   1.00
C16    C     0.16828   0.35994   0.91268   0.00000  Uiso   1.00
C17    C     0.09444   0.30808   0.89555   0.00000  Uiso   1.00
C18    C     0.39906   0.28972   0.00898   0.00000  Uiso   1.00
C19    C     0.51321   0.28914   0.96023   0.00000  Uiso   1.00
C20    C     0.59712   0.20492   0.96484   0.00000  Uiso   1.00
C21    C     0.23341   0.40259   0.11342   0.00000  Uiso   1.00
C22    C     0.20831   0.49690   0.15249   0.00000  Uiso   1.00
C23    C     0.15279   0.50769   0.24503   0.00000  Uiso   1.00
H24    H     0.21692   0.16275   0.14852   0.00000  Uiso   1.00
H25    H     0.08591   0.13316   0.05755   0.00000  Uiso   1.00
H26    H     0.43079   0.06238   0.10510   0.00000  Uiso   1.00
H27    H     0.12594   0.27011   0.29732   0.00000  Uiso   1.00
H28    H     0.95363   0.13591   0.93395   0.00000  Uiso   1.00
H29    H     0.68082   0.98669   0.03422   0.00000  Uiso   1.00
H30    H     0.03798   0.42471   0.43957   0.00000  Uiso   1.00
H31    H     0.31653   0.43691   0.97339   0.00000  Uiso   1.00
H32    H     0.19098   0.42237   0.87281   0.00000  Uiso   1.00
H33    H     0.53586   0.35159   0.92036   0.00000  Uiso   1.00
H34    H     0.23101   0.55931   0.11259   0.00000  Uiso   1.00
H35    H     0.03891   0.37064   0.78401   0.00000  Uiso   1.00
H36    H     0.76611   0.22142   0.88429   0.00000  Uiso   1.00
H37    H     0.12327   0.65945   0.28963   0.00000  Uiso   1.00
O38    O     0.91192   0.23875   0.79595   0.00000  Uiso   1.00
O39    O     0.86596   0.04298   0.92753   0.00000  Uiso   1.00
O40    O     0.02257   0.61765   0.45933   0.00000  Uiso   1.00
N41    N     0.99091   0.19317   0.91247   0.00000  Uiso   1.00
N42    N     0.67079   0.05365   0.00621   0.00000  Uiso   1.00
N43    N     0.06982   0.46315   0.38519   0.00000  Uiso   1.00
N44    N     0.03680   0.31947   0.83179   0.00000  Uiso   1.00
N45    N     0.71668   0.17995   0.92553   0.00000  Uiso   1.00
N46    N     0.11571   0.58946   0.30451   0.00000  Uiso   1.00
C47    C     0.76026   0.77444   0.89160   0.00000  Uiso   1.00
C48    C     0.81764   0.75249   0.96531   0.00000  Uiso   1.00
C49    C     0.89143   0.80440   0.98234   0.00000  Uiso   1.00
C50    C     0.93492   0.77275   0.05283   0.00000  Uiso   1.00
C51    C     0.02843   0.75097   0.15946   0.00000  Uiso   1.00
C52    C     0.63026   0.79095   0.93949   0.00000  Uiso   1.00
C53    C     0.54650   0.87520   0.93480   0.00000  Uiso   1.00
C54    C     0.43225   0.87591   0.98354   0.00000  Uiso   1.00
C55    C     0.23483   0.91381   0.05003   0.00000  Uiso   1.00
C56    C     0.79590   0.67809   0.83504   0.00000  Uiso   1.00
C57    C     0.85139   0.66744   0.74254   0.00000  Uiso   1.00
C58    C     0.87658   0.57314   0.70334   0.00000  Uiso   1.00
C59    C     0.93635   0.43581   0.60767   0.00000  Uiso   1.00
C60    C     0.70629   0.62590   0.98648   0.00000  Uiso   1.00
C61    C     0.78832   0.67181   0.01684   0.00000  Uiso   1.00
C62    C     0.83172   0.64006   0.08732   0.00000  Uiso   1.00
C63    C     0.90556   0.69192   0.10445   0.00000  Uiso   1.00
C64    C     0.60094   0.71028   0.99102   0.00000  Uiso   1.00
C65    C     0.48679   0.71086   0.03977   0.00000  Uiso   1.00
C66    C     0.40288   0.79508   0.03516   0.00000  Uiso   1.00
C67    C     0.76659   0.59741   0.88658   0.00000  Uiso   1.00
C68    C     0.79169   0.50310   0.84751   0.00000  Uiso   1.00
C69    C     0.84721   0.49231   0.75497   0.00000  Uiso   1.00
H70    H     0.78308   0.83725   0.85148   0.00000  Uiso   1.00
H71    H     0.91409   0.86684   0.94245   0.00000  Uiso   1.00
H72    H     0.56921   0.93762   0.89490   0.00000  Uiso   1.00
H73    H     0.87406   0.72989   0.70268   0.00000  Uiso   1.00
H74    H     0.04637   0.86409   0.06605   0.00000  Uiso   1.00
H75    H     0.31918   0.01331   0.96578   0.00000  Uiso   1.00
H76    H     0.96202   0.57529   0.56043   0.00000  Uiso   1.00
H77    H     0.68347   0.56309   0.02661   0.00000  Uiso   1.00
H78    H     0.80902   0.57763   0.12719   0.00000  Uiso   1.00
H79    H     0.46414   0.64841   0.07964   0.00000  Uiso   1.00
H80    H     0.76899   0.44069   0.88741   0.00000  Uiso   1.00
H81    H     0.96109   0.62936   0.21599   0.00000  Uiso   1.00
H82    H     0.23389   0.77858   0.11571   0.00000  Uiso   1.00
H83    H     0.87673   0.34055   0.71037   0.00000  Uiso   1.00
O84    O     0.08808   0.76125   0.20405   0.00000  Uiso   1.00
O85    O     0.13404   0.95702   0.07247   0.00000  Uiso   1.00
O86    O     0.97743   0.38235   0.54067   0.00000  Uiso   1.00
N87    N     0.00909   0.80683   0.08753   0.00000  Uiso   1.00
N88    N     0.32921   0.94635   0.99379   0.00000  Uiso   1.00
N89    N     0.93018   0.53685   0.61481   0.00000  Uiso   1.00
N90    N     0.96320   0.68053   0.16821   0.00000  Uiso   1.00
N91    N     0.28332   0.82005   0.07447   0.00000  Uiso   1.00
N92    N     0.88429   0.41054   0.69549   0.00000  Uiso   1.00
