data_job_03487
_audit_creation_date              2018-12-19
_audit_creation_method            'Materials Studio'
_symmetry_space_group_name_H-M    'P1'
_symmetry_Int_Tables_number       1
_symmetry_cell_setting            triclinic
loop_
_symmetry_equiv_pos_as_xyz
  x,y,z
_cell_length_a                    32.4143
_cell_length_b                    9.4401
_cell_length_c                    24.2797
_cell_angle_alpha                 90.0000
_cell_angle_beta                  136.5450
_cell_angle_gamma                 90.0000
loop_
_atom_site_label
_atom_site_type_symbol
_atom_site_fract_x
_atom_site_fract_y
_atom_site_fract_z
_atom_site_U_iso_or_equiv
_atom_site_adp_type
_atom_site_occupancy
C1     C     0.88992   0.10888   0.42877   0.00000  Uiso   1.00
C2     C     0.89618   0.26956   0.43779   0.00000  Uiso   1.00
C3     C     0.94713   0.34281   0.50351   0.00000  Uiso   1.00
C4     C     0.94383   0.48968   0.50021   0.00000  Uiso   1.00
C5     C     0.96151   0.72839   0.52438   0.00000  Uiso   1.00
C6     C     0.83618   0.07132   0.41270   0.00000  Uiso   1.00
C7     C     0.83669   0.97788   0.45732   0.00000  Uiso   1.00
C8     C     0.78288   0.95786   0.43290   0.00000  Uiso   1.00
C9     C     0.70740   0.88872   0.41808   0.00000  Uiso   1.00
C10    C     0.87129   0.07523   0.35172   0.00000  Uiso   1.00
C11    C     0.90130   0.98504   0.34505   0.00000  Uiso   1.00
C12    C     0.87704   0.96828   0.26928   0.00000  Uiso   1.00
C13    C     0.85608   0.90521   0.15977   0.00000  Uiso   1.00
C14    C     0.79346   0.23944   0.30605   0.00000  Uiso   1.00
C15    C     0.84378   0.34047   0.37113   0.00000  Uiso   1.00
C16    C     0.84041   0.48727   0.36773   0.00000  Uiso   1.00
C17    C     0.89134   0.56073   0.43343   0.00000  Uiso   1.00
C18    C     0.78379   0.14223   0.34605   0.00000  Uiso   1.00
C19    C     0.72997   0.12233   0.32155   0.00000  Uiso   1.00
C20    C     0.73039   0.02890   0.36612   0.00000  Uiso   1.00
C21    C     0.81889   0.14614   0.28506   0.00000  Uiso   1.00
C22    C     0.79458   0.12951   0.20928   0.00000  Uiso   1.00
C23    C     0.82455   0.03932   0.20250   0.00000  Uiso   1.00
H24    H     0.93070   0.05366   0.48066   0.00000  Uiso   1.00
H25    H     0.98766   0.28789   0.55508   0.00000  Uiso   1.00
H26    H     0.87724   0.92301   0.50890   0.00000  Uiso   1.00
H27    H     0.94184   0.93018   0.39665   0.00000  Uiso   1.00
H28    H     0.02770   0.57886   0.60821   0.00000  Uiso   1.00
H29    H     0.79486   0.80944   0.51081   0.00000  Uiso   1.00
H30    H     0.93109   0.82456   0.27411   0.00000  Uiso   1.00
H31    H     0.75266   0.29465   0.25415   0.00000  Uiso   1.00
H32    H     0.79985   0.54212   0.31614   0.00000  Uiso   1.00
H33    H     0.68943   0.17723   0.26996   0.00000  Uiso   1.00
H34    H     0.75404   0.18440   0.15771   0.00000  Uiso   1.00
H35    H     0.87527   0.78519   0.41428   0.00000  Uiso   1.00
H36    H     0.64242   0.01577   0.31688   0.00000  Uiso   1.00
H37    H     0.77866   0.03089   0.08018   0.00000  Uiso   1.00
O38    O     0.98573   0.84046   0.55612   0.00000  Uiso   1.00
O39    O     0.68025   0.83100   0.42833   0.00000  Uiso   1.00
O40    O     0.85899   0.85084   0.11778   0.00000  Uiso   1.00
N41    N     0.98535   0.59346   0.55405   0.00000  Uiso   1.00
N42    N     0.76766   0.87412   0.46300   0.00000  Uiso   1.00
N43    N     0.89502   0.88822   0.24170   0.00000  Uiso   1.00
N44    N     0.90333   0.70449   0.44970   0.00000  Uiso   1.00
N45    N     0.68564   0.98514   0.35865   0.00000  Uiso   1.00
N46    N     0.81300   0.99925   0.13735   0.00000  Uiso   1.00
C47    C     0.38992   0.60888   0.42877   0.00000  Uiso   1.00
C48    C     0.39618   0.76956   0.43779   0.00000  Uiso   1.00
C49    C     0.44713   0.84281   0.50351   0.00000  Uiso   1.00
C50    C     0.44383   0.98968   0.50021   0.00000  Uiso   1.00
C51    C     0.46151   0.22839   0.52438   0.00000  Uiso   1.00
C52    C     0.33618   0.57132   0.41270   0.00000  Uiso   1.00
C53    C     0.33669   0.47788   0.45732   0.00000  Uiso   1.00
C54    C     0.28288   0.45786   0.43290   0.00000  Uiso   1.00
C55    C     0.20740   0.38872   0.41808   0.00000  Uiso   1.00
C56    C     0.37129   0.57523   0.35172   0.00000  Uiso   1.00
C57    C     0.40130   0.48504   0.34505   0.00000  Uiso   1.00
C58    C     0.37704   0.46828   0.26928   0.00000  Uiso   1.00
C59    C     0.35608   0.40521   0.15977   0.00000  Uiso   1.00
C60    C     0.29346   0.73944   0.30605   0.00000  Uiso   1.00
C61    C     0.34378   0.84047   0.37113   0.00000  Uiso   1.00
C62    C     0.34041   0.98727   0.36773   0.00000  Uiso   1.00
C63    C     0.39134   0.06073   0.43343   0.00000  Uiso   1.00
C64    C     0.28379   0.64223   0.34605   0.00000  Uiso   1.00
C65    C     0.22997   0.62233   0.32155   0.00000  Uiso   1.00
C66    C     0.23039   0.52890   0.36612   0.00000  Uiso   1.00
C67    C     0.31889   0.64614   0.28506   0.00000  Uiso   1.00
C68    C     0.29458   0.62951   0.20928   0.00000  Uiso   1.00
C69    C     0.32455   0.53932   0.20250   0.00000  Uiso   1.00
H70    H     0.43070   0.55366   0.48066   0.00000  Uiso   1.00
H71    H     0.48766   0.78789   0.55508   0.00000  Uiso   1.00
H72    H     0.37724   0.42301   0.50890   0.00000  Uiso   1.00
H73    H     0.44184   0.43018   0.39665   0.00000  Uiso   1.00
H74    H     0.52770   0.07886   0.60821   0.00000  Uiso   1.00
H75    H     0.29486   0.30944   0.51081   0.00000  Uiso   1.00
H76    H     0.43109   0.32456   0.27411   0.00000  Uiso   1.00
H77    H     0.25266   0.79465   0.25415   0.00000  Uiso   1.00
H78    H     0.29985   0.04212   0.31614   0.00000  Uiso   1.00
H79    H     0.18943   0.67723   0.26996   0.00000  Uiso   1.00
H80    H     0.25404   0.68440   0.15771   0.00000  Uiso   1.00
H81    H     0.37527   0.28519   0.41428   0.00000  Uiso   1.00
H82    H     0.14242   0.51577   0.31688   0.00000  Uiso   1.00
H83    H     0.27866   0.53089   0.08018   0.00000  Uiso   1.00
O84    O     0.48573   0.34046   0.55612   0.00000  Uiso   1.00
O85    O     0.18025   0.33100   0.42833   0.00000  Uiso   1.00
O86    O     0.35899   0.35084   0.11778   0.00000  Uiso   1.00
N87    N     0.48535   0.09346   0.55405   0.00000  Uiso   1.00
N88    N     0.26766   0.37412   0.46300   0.00000  Uiso   1.00
N89    N     0.39502   0.38822   0.24170   0.00000  Uiso   1.00
N90    N     0.40333   0.20449   0.44970   0.00000  Uiso   1.00
N91    N     0.18564   0.48514   0.35865   0.00000  Uiso   1.00
N92    N     0.31300   0.49925   0.13735   0.00000  Uiso   1.00
C93    C     0.11008   0.10888   0.07123   0.00000  Uiso   1.00
C94    C     0.10382   0.26956   0.06221   0.00000  Uiso   1.00
C95    C     0.05287   0.34281   0.99649   0.00000  Uiso   1.00
C96    C     0.05617   0.48968   0.99979   0.00000  Uiso   1.00
C97    C     0.03849   0.72839   0.97562   0.00000  Uiso   1.00
C98    C     0.16382   0.07132   0.08730   0.00000  Uiso   1.00
C99    C     0.16331   0.97788   0.04268   0.00000  Uiso   1.00
C100   C     0.21712   0.95786   0.06710   0.00000  Uiso   1.00
C101   C     0.29260   0.88872   0.08192   0.00000  Uiso   1.00
C102   C     0.12871   0.07523   0.14828   0.00000  Uiso   1.00
C103   C     0.09870   0.98504   0.15495   0.00000  Uiso   1.00
C104   C     0.12296   0.96828   0.23072   0.00000  Uiso   1.00
C105   C     0.14392   0.90521   0.34023   0.00000  Uiso   1.00
C106   C     0.20654   0.23944   0.19395   0.00000  Uiso   1.00
C107   C     0.15622   0.34047   0.12887   0.00000  Uiso   1.00
C108   C     0.15959   0.48727   0.13227   0.00000  Uiso   1.00
C109   C     0.10866   0.56073   0.06657   0.00000  Uiso   1.00
C110   C     0.21621   0.14223   0.15395   0.00000  Uiso   1.00
C111   C     0.27003   0.12233   0.17845   0.00000  Uiso   1.00
C112   C     0.26961   0.02890   0.13388   0.00000  Uiso   1.00
C113   C     0.18111   0.14614   0.21494   0.00000  Uiso   1.00
C114   C     0.20542   0.12951   0.29072   0.00000  Uiso   1.00
C115   C     0.17545   0.03932   0.29750   0.00000  Uiso   1.00
H116   H     0.06930   0.05366   0.01934   0.00000  Uiso   1.00
H117   H     0.01234   0.28789   0.94492   0.00000  Uiso   1.00
H118   H     0.12276   0.92301   0.99110   0.00000  Uiso   1.00
H119   H     0.05816   0.93018   0.10335   0.00000  Uiso   1.00
H120   H     0.97230   0.57886   0.89179   0.00000  Uiso   1.00
H121   H     0.20514   0.80944   0.98919   0.00000  Uiso   1.00
H122   H     0.06891   0.82456   0.22589   0.00000  Uiso   1.00
H123   H     0.24734   0.29465   0.24585   0.00000  Uiso   1.00
H124   H     0.20015   0.54212   0.18386   0.00000  Uiso   1.00
H125   H     0.31057   0.17723   0.23004   0.00000  Uiso   1.00
H126   H     0.24596   0.18440   0.34229   0.00000  Uiso   1.00
H127   H     0.12473   0.78519   0.08572   0.00000  Uiso   1.00
H128   H     0.35758   0.01577   0.18312   0.00000  Uiso   1.00
H129   H     0.22134   0.03089   0.41982   0.00000  Uiso   1.00
O130   O     0.01427   0.84046   0.94388   0.00000  Uiso   1.00
O131   O     0.31975   0.83100   0.07167   0.00000  Uiso   1.00
O132   O     0.14101   0.85084   0.38222   0.00000  Uiso   1.00
N133   N     0.01465   0.59346   0.94595   0.00000  Uiso   1.00
N134   N     0.23234   0.87412   0.03700   0.00000  Uiso   1.00
N135   N     0.10498   0.88822   0.25830   0.00000  Uiso   1.00
N136   N     0.09667   0.70449   0.05030   0.00000  Uiso   1.00
N137   N     0.31436   0.98514   0.14135   0.00000  Uiso   1.00
N138   N     0.18700   0.99925   0.36265   0.00000  Uiso   1.00
C139   C     0.61008   0.60888   0.07123   0.00000  Uiso   1.00
C140   C     0.60382   0.76956   0.06221   0.00000  Uiso   1.00
C141   C     0.55287   0.84281   0.99649   0.00000  Uiso   1.00
C142   C     0.55617   0.98968   0.99979   0.00000  Uiso   1.00
C143   C     0.53849   0.22839   0.97562   0.00000  Uiso   1.00
C144   C     0.66382   0.57132   0.08730   0.00000  Uiso   1.00
C145   C     0.66331   0.47788   0.04268   0.00000  Uiso   1.00
C146   C     0.71712   0.45786   0.06710   0.00000  Uiso   1.00
C147   C     0.79260   0.38872   0.08192   0.00000  Uiso   1.00
C148   C     0.62871   0.57523   0.14828   0.00000  Uiso   1.00
C149   C     0.59870   0.48504   0.15495   0.00000  Uiso   1.00
C150   C     0.62296   0.46828   0.23072   0.00000  Uiso   1.00
C151   C     0.64392   0.40521   0.34023   0.00000  Uiso   1.00
C152   C     0.70654   0.73944   0.19395   0.00000  Uiso   1.00
C153   C     0.65622   0.84047   0.12887   0.00000  Uiso   1.00
C154   C     0.65959   0.98727   0.13227   0.00000  Uiso   1.00
C155   C     0.60866   0.06073   0.06657   0.00000  Uiso   1.00
C156   C     0.71621   0.64223   0.15395   0.00000  Uiso   1.00
C157   C     0.77003   0.62233   0.17845   0.00000  Uiso   1.00
C158   C     0.76961   0.52890   0.13388   0.00000  Uiso   1.00
C159   C     0.68111   0.64614   0.21494   0.00000  Uiso   1.00
C160   C     0.70542   0.62951   0.29072   0.00000  Uiso   1.00
C161   C     0.67545   0.53932   0.29750   0.00000  Uiso   1.00
H162   H     0.56930   0.55366   0.01934   0.00000  Uiso   1.00
H163   H     0.51234   0.78789   0.94492   0.00000  Uiso   1.00
H164   H     0.62276   0.42301   0.99110   0.00000  Uiso   1.00
H165   H     0.55816   0.43018   0.10335   0.00000  Uiso   1.00
H166   H     0.47230   0.07886   0.89179   0.00000  Uiso   1.00
H167   H     0.70514   0.30944   0.98919   0.00000  Uiso   1.00
H168   H     0.56891   0.32456   0.22589   0.00000  Uiso   1.00
H169   H     0.74734   0.79465   0.24585   0.00000  Uiso   1.00
H170   H     0.70015   0.04212   0.18386   0.00000  Uiso   1.00
H171   H     0.81057   0.67723   0.23004   0.00000  Uiso   1.00
H172   H     0.74596   0.68440   0.34229   0.00000  Uiso   1.00
H173   H     0.62473   0.28519   0.08572   0.00000  Uiso   1.00
H174   H     0.85758   0.51577   0.18312   0.00000  Uiso   1.00
H175   H     0.72134   0.53089   0.41982   0.00000  Uiso   1.00
O176   O     0.51427   0.34046   0.94388   0.00000  Uiso   1.00
O177   O     0.81975   0.33100   0.07167   0.00000  Uiso   1.00
O178   O     0.64101   0.35084   0.38222   0.00000  Uiso   1.00
N179   N     0.51465   0.09346   0.94595   0.00000  Uiso   1.00
N180   N     0.73234   0.37412   0.03700   0.00000  Uiso   1.00
N181   N     0.60498   0.38822   0.25830   0.00000  Uiso   1.00
N182   N     0.59667   0.20449   0.05030   0.00000  Uiso   1.00
N183   N     0.81436   0.48514   0.14135   0.00000  Uiso   1.00
N184   N     0.68700   0.49925   0.36265   0.00000  Uiso   1.00
C185   C     0.11008   0.89112   0.57123   0.00000  Uiso   1.00
C186   C     0.10382   0.73044   0.56221   0.00000  Uiso   1.00
C187   C     0.05287   0.65719   0.49649   0.00000  Uiso   1.00
C188   C     0.05617   0.51032   0.49979   0.00000  Uiso   1.00
C189   C     0.03849   0.27161   0.47562   0.00000  Uiso   1.00
C190   C     0.16382   0.92868   0.58730   0.00000  Uiso   1.00
C191   C     0.16331   0.02212   0.54268   0.00000  Uiso   1.00
C192   C     0.21712   0.04214   0.56710   0.00000  Uiso   1.00
C193   C     0.29260   0.11128   0.58192   0.00000  Uiso   1.00
C194   C     0.12871   0.92477   0.64828   0.00000  Uiso   1.00
C195   C     0.09870   0.01496   0.65495   0.00000  Uiso   1.00
C196   C     0.12296   0.03172   0.73072   0.00000  Uiso   1.00
C197   C     0.14392   0.09479   0.84023   0.00000  Uiso   1.00
C198   C     0.20654   0.76056   0.69395   0.00000  Uiso   1.00
C199   C     0.15622   0.65953   0.62887   0.00000  Uiso   1.00
C200   C     0.15959   0.51273   0.63227   0.00000  Uiso   1.00
C201   C     0.10866   0.43927   0.56657   0.00000  Uiso   1.00
C202   C     0.21621   0.85777   0.65395   0.00000  Uiso   1.00
C203   C     0.27003   0.87767   0.67845   0.00000  Uiso   1.00
C204   C     0.26961   0.97110   0.63388   0.00000  Uiso   1.00
C205   C     0.18111   0.85386   0.71494   0.00000  Uiso   1.00
C206   C     0.20542   0.87049   0.79072   0.00000  Uiso   1.00
C207   C     0.17545   0.96068   0.79750   0.00000  Uiso   1.00
H208   H     0.06930   0.94634   0.51934   0.00000  Uiso   1.00
H209   H     0.01234   0.71211   0.44492   0.00000  Uiso   1.00
H210   H     0.12276   0.07699   0.49110   0.00000  Uiso   1.00
H211   H     0.05816   0.06982   0.60335   0.00000  Uiso   1.00
H212   H     0.97230   0.42114   0.39179   0.00000  Uiso   1.00
H213   H     0.20514   0.19056   0.48919   0.00000  Uiso   1.00
H214   H     0.06891   0.17544   0.72589   0.00000  Uiso   1.00
H215   H     0.24734   0.70535   0.74585   0.00000  Uiso   1.00
H216   H     0.20015   0.45788   0.68386   0.00000  Uiso   1.00
H217   H     0.31057   0.82277   0.73004   0.00000  Uiso   1.00
H218   H     0.24596   0.81560   0.84229   0.00000  Uiso   1.00
H219   H     0.12473   0.21481   0.58572   0.00000  Uiso   1.00
H220   H     0.35758   0.98423   0.68312   0.00000  Uiso   1.00
H221   H     0.22134   0.96911   0.91982   0.00000  Uiso   1.00
O222   O     0.01427   0.15954   0.44388   0.00000  Uiso   1.00
O223   O     0.31975   0.16900   0.57167   0.00000  Uiso   1.00
O224   O     0.14101   0.14916   0.88222   0.00000  Uiso   1.00
N225   N     0.01465   0.40654   0.44595   0.00000  Uiso   1.00
N226   N     0.23234   0.12588   0.53700   0.00000  Uiso   1.00
N227   N     0.10498   0.11178   0.75830   0.00000  Uiso   1.00
N228   N     0.09667   0.29551   0.55030   0.00000  Uiso   1.00
N229   N     0.31436   0.01486   0.64135   0.00000  Uiso   1.00
N230   N     0.18700   0.00075   0.86265   0.00000  Uiso   1.00
C231   C     0.61008   0.39112   0.57123   0.00000  Uiso   1.00
C232   C     0.60382   0.23044   0.56221   0.00000  Uiso   1.00
C233   C     0.55287   0.15719   0.49649   0.00000  Uiso   1.00
C234   C     0.55617   0.01032   0.49979   0.00000  Uiso   1.00
C235   C     0.53849   0.77161   0.47562   0.00000  Uiso   1.00
C236   C     0.66382   0.42868   0.58730   0.00000  Uiso   1.00
C237   C     0.66331   0.52212   0.54268   0.00000  Uiso   1.00
C238   C     0.71712   0.54214   0.56710   0.00000  Uiso   1.00
C239   C     0.79260   0.61128   0.58192   0.00000  Uiso   1.00
C240   C     0.62871   0.42477   0.64828   0.00000  Uiso   1.00
C241   C     0.59870   0.51496   0.65495   0.00000  Uiso   1.00
C242   C     0.62296   0.53172   0.73072   0.00000  Uiso   1.00
C243   C     0.64392   0.59479   0.84023   0.00000  Uiso   1.00
C244   C     0.70654   0.26056   0.69395   0.00000  Uiso   1.00
C245   C     0.65622   0.15953   0.62887   0.00000  Uiso   1.00
C246   C     0.65959   0.01273   0.63227   0.00000  Uiso   1.00
C247   C     0.60866   0.93927   0.56657   0.00000  Uiso   1.00
C248   C     0.71621   0.35777   0.65395   0.00000  Uiso   1.00
C249   C     0.77003   0.37767   0.67845   0.00000  Uiso   1.00
C250   C     0.76961   0.47110   0.63388   0.00000  Uiso   1.00
C251   C     0.68111   0.35386   0.71494   0.00000  Uiso   1.00
C252   C     0.70542   0.37049   0.79072   0.00000  Uiso   1.00
C253   C     0.67545   0.46068   0.79750   0.00000  Uiso   1.00
H254   H     0.56930   0.44634   0.51934   0.00000  Uiso   1.00
H255   H     0.51234   0.21211   0.44492   0.00000  Uiso   1.00
H256   H     0.62276   0.57699   0.49110   0.00000  Uiso   1.00
H257   H     0.55816   0.56982   0.60335   0.00000  Uiso   1.00
H258   H     0.47230   0.92114   0.39179   0.00000  Uiso   1.00
H259   H     0.70514   0.69056   0.48919   0.00000  Uiso   1.00
H260   H     0.56891   0.67544   0.72589   0.00000  Uiso   1.00
H261   H     0.74734   0.20535   0.74585   0.00000  Uiso   1.00
H262   H     0.70015   0.95788   0.68386   0.00000  Uiso   1.00
H263   H     0.81057   0.32277   0.73004   0.00000  Uiso   1.00
H264   H     0.74596   0.31560   0.84229   0.00000  Uiso   1.00
H265   H     0.62473   0.71481   0.58572   0.00000  Uiso   1.00
H266   H     0.85758   0.48423   0.68312   0.00000  Uiso   1.00
H267   H     0.72134   0.46911   0.91982   0.00000  Uiso   1.00
O268   O     0.51427   0.65954   0.44388   0.00000  Uiso   1.00
O269   O     0.81975   0.66900   0.57167   0.00000  Uiso   1.00
O270   O     0.64101   0.64916   0.88222   0.00000  Uiso   1.00
N271   N     0.51465   0.90654   0.44595   0.00000  Uiso   1.00
N272   N     0.73234   0.62588   0.53700   0.00000  Uiso   1.00
N273   N     0.60498   0.61178   0.75830   0.00000  Uiso   1.00
N274   N     0.59667   0.79551   0.55030   0.00000  Uiso   1.00
N275   N     0.81436   0.51486   0.64135   0.00000  Uiso   1.00
N276   N     0.68700   0.50075   0.86265   0.00000  Uiso   1.00
C277   C     0.88992   0.89112   0.92877   0.00000  Uiso   1.00
C278   C     0.89618   0.73044   0.93779   0.00000  Uiso   1.00
C279   C     0.94713   0.65719   0.00351   0.00000  Uiso   1.00
C280   C     0.94383   0.51032   0.00021   0.00000  Uiso   1.00
C281   C     0.96151   0.27161   0.02438   0.00000  Uiso   1.00
C282   C     0.83618   0.92868   0.91270   0.00000  Uiso   1.00
C283   C     0.83669   0.02212   0.95732   0.00000  Uiso   1.00
C284   C     0.78288   0.04214   0.93290   0.00000  Uiso   1.00
C285   C     0.70740   0.11128   0.91808   0.00000  Uiso   1.00
C286   C     0.87129   0.92477   0.85172   0.00000  Uiso   1.00
C287   C     0.90130   0.01496   0.84505   0.00000  Uiso   1.00
C288   C     0.87704   0.03172   0.76928   0.00000  Uiso   1.00
C289   C     0.85608   0.09479   0.65977   0.00000  Uiso   1.00
C290   C     0.79346   0.76056   0.80605   0.00000  Uiso   1.00
C291   C     0.84378   0.65953   0.87113   0.00000  Uiso   1.00
C292   C     0.84041   0.51273   0.86773   0.00000  Uiso   1.00
C293   C     0.89134   0.43927   0.93343   0.00000  Uiso   1.00
C294   C     0.78379   0.85777   0.84605   0.00000  Uiso   1.00
C295   C     0.72997   0.87767   0.82155   0.00000  Uiso   1.00
C296   C     0.73039   0.97110   0.86612   0.00000  Uiso   1.00
C297   C     0.81889   0.85386   0.78506   0.00000  Uiso   1.00
C298   C     0.79458   0.87049   0.70928   0.00000  Uiso   1.00
C299   C     0.82455   0.96068   0.70250   0.00000  Uiso   1.00
H300   H     0.93070   0.94634   0.98066   0.00000  Uiso   1.00
H301   H     0.98766   0.71211   0.05508   0.00000  Uiso   1.00
H302   H     0.87724   0.07699   0.00890   0.00000  Uiso   1.00
H303   H     0.94184   0.06982   0.89665   0.00000  Uiso   1.00
H304   H     0.02770   0.42114   0.10821   0.00000  Uiso   1.00
H305   H     0.79486   0.19056   0.01081   0.00000  Uiso   1.00
H306   H     0.93109   0.17544   0.77411   0.00000  Uiso   1.00
H307   H     0.75266   0.70535   0.75415   0.00000  Uiso   1.00
H308   H     0.79985   0.45788   0.81614   0.00000  Uiso   1.00
H309   H     0.68943   0.82277   0.76996   0.00000  Uiso   1.00
H310   H     0.75404   0.81560   0.65771   0.00000  Uiso   1.00
H311   H     0.87527   0.21481   0.91428   0.00000  Uiso   1.00
H312   H     0.64242   0.98423   0.81688   0.00000  Uiso   1.00
H313   H     0.77866   0.96911   0.58018   0.00000  Uiso   1.00
O314   O     0.98573   0.15954   0.05612   0.00000  Uiso   1.00
O315   O     0.68025   0.16900   0.92833   0.00000  Uiso   1.00
O316   O     0.85899   0.14916   0.61778   0.00000  Uiso   1.00
N317   N     0.98535   0.40654   0.05405   0.00000  Uiso   1.00
N318   N     0.76766   0.12588   0.96300   0.00000  Uiso   1.00
N319   N     0.89502   0.11178   0.74170   0.00000  Uiso   1.00
N320   N     0.90333   0.29551   0.94970   0.00000  Uiso   1.00
N321   N     0.68564   0.01486   0.85865   0.00000  Uiso   1.00
N322   N     0.81300   0.00075   0.63735   0.00000  Uiso   1.00
C323   C     0.38992   0.39112   0.92877   0.00000  Uiso   1.00
C324   C     0.39618   0.23044   0.93779   0.00000  Uiso   1.00
C325   C     0.44713   0.15719   0.00351   0.00000  Uiso   1.00
C326   C     0.44383   0.01032   0.00021   0.00000  Uiso   1.00
C327   C     0.46151   0.77161   0.02438   0.00000  Uiso   1.00
C328   C     0.33618   0.42868   0.91270   0.00000  Uiso   1.00
C329   C     0.33669   0.52212   0.95732   0.00000  Uiso   1.00
C330   C     0.28288   0.54214   0.93290   0.00000  Uiso   1.00
C331   C     0.20740   0.61128   0.91808   0.00000  Uiso   1.00
C332   C     0.37129   0.42477   0.85172   0.00000  Uiso   1.00
C333   C     0.40130   0.51496   0.84505   0.00000  Uiso   1.00
C334   C     0.37704   0.53172   0.76928   0.00000  Uiso   1.00
C335   C     0.35608   0.59479   0.65977   0.00000  Uiso   1.00
C336   C     0.29346   0.26056   0.80605   0.00000  Uiso   1.00
C337   C     0.34378   0.15953   0.87113   0.00000  Uiso   1.00
C338   C     0.34041   0.01273   0.86773   0.00000  Uiso   1.00
C339   C     0.39134   0.93927   0.93343   0.00000  Uiso   1.00
C340   C     0.28379   0.35777   0.84605   0.00000  Uiso   1.00
C341   C     0.22997   0.37767   0.82155   0.00000  Uiso   1.00
C342   C     0.23039   0.47110   0.86612   0.00000  Uiso   1.00
C343   C     0.31889   0.35386   0.78506   0.00000  Uiso   1.00
C344   C     0.29458   0.37049   0.70928   0.00000  Uiso   1.00
C345   C     0.32455   0.46068   0.70250   0.00000  Uiso   1.00
H346   H     0.43070   0.44634   0.98066   0.00000  Uiso   1.00
H347   H     0.48766   0.21211   0.05508   0.00000  Uiso   1.00
H348   H     0.37724   0.57699   0.00890   0.00000  Uiso   1.00
H349   H     0.44184   0.56982   0.89665   0.00000  Uiso   1.00
H350   H     0.52770   0.92114   0.10821   0.00000  Uiso   1.00
H351   H     0.29486   0.69056   0.01081   0.00000  Uiso   1.00
H352   H     0.43109   0.67544   0.77411   0.00000  Uiso   1.00
H353   H     0.25266   0.20535   0.75415   0.00000  Uiso   1.00
H354   H     0.29985   0.95788   0.81614   0.00000  Uiso   1.00
H355   H     0.18943   0.32277   0.76996   0.00000  Uiso   1.00
H356   H     0.25404   0.31560   0.65771   0.00000  Uiso   1.00
H357   H     0.37527   0.71481   0.91428   0.00000  Uiso   1.00
H358   H     0.14242   0.48423   0.81688   0.00000  Uiso   1.00
H359   H     0.27866   0.46911   0.58018   0.00000  Uiso   1.00
O360   O     0.48573   0.65954   0.05612   0.00000  Uiso   1.00
O361   O     0.18025   0.66900   0.92833   0.00000  Uiso   1.00
O362   O     0.35899   0.64916   0.61778   0.00000  Uiso   1.00
N363   N     0.48535   0.90654   0.05405   0.00000  Uiso   1.00
N364   N     0.26766   0.62588   0.96300   0.00000  Uiso   1.00
N365   N     0.39502   0.61178   0.74170   0.00000  Uiso   1.00
N366   N     0.40333   0.79551   0.94970   0.00000  Uiso   1.00
N367   N     0.18564   0.51486   0.85865   0.00000  Uiso   1.00
N368   N     0.31300   0.50075   0.63735   0.00000  Uiso   1.00
