data_job_02791
_audit_creation_date              2018-12-19
_audit_creation_method            'Materials Studio'
_symmetry_space_group_name_H-M    'P1'
_symmetry_Int_Tables_number       1
_symmetry_cell_setting            triclinic
loop_
_symmetry_equiv_pos_as_xyz
  x,y,z
_cell_length_a                    19.3161
_cell_length_b                    14.7948
_cell_length_c                    24.0251
_cell_angle_alpha                 90.0000
_cell_angle_beta                  90.0000
_cell_angle_gamma                 90.0000
loop_
_atom_site_label
_atom_site_type_symbol
_atom_site_fract_x
_atom_site_fract_y
_atom_site_fract_z
_atom_site_U_iso_or_equiv
_atom_site_adp_type
_atom_site_occupancy
C1     C     0.08866   0.11685   0.11507   0.00000  Uiso   1.00
C2     C     0.12132   0.19318   0.14868   0.00000  Uiso   1.00
C3     C     0.18764   0.19298   0.17090   0.00000  Uiso   1.00
C4     C     0.20785   0.26930   0.20035   0.00000  Uiso   1.00
C5     C     0.26533   0.37657   0.25151   0.00000  Uiso   1.00
C6     C     0.02201   0.09181   0.14539   0.00000  Uiso   1.00
C7     C     0.00482   0.00638   0.16483   0.00000  Uiso   1.00
C8     C     0.94142   0.99737   0.19149   0.00000  Uiso   1.00
C9     C     0.84470   0.94725   0.23751   0.00000  Uiso   1.00
C10    C     0.06643   0.15870   0.05988   0.00000  Uiso   1.00
C11    C     0.08658   0.12948   0.00743   0.00000  Uiso   1.00
C12    C     0.06056   0.17677   0.96211   0.00000  Uiso   1.00
C13    C     0.03281   0.23049   0.87536   0.00000  Uiso   1.00
C14    C     0.00663   0.25276   0.12783   0.00000  Uiso   1.00
C15    C     0.07676   0.26700   0.15562   0.00000  Uiso   1.00
C16    C     0.09688   0.34334   0.18503   0.00000  Uiso   1.00
C17    C     0.16321   0.34325   0.20729   0.00000  Uiso   1.00
C18    C     0.97745   0.16563   0.15232   0.00000  Uiso   1.00
C19    C     0.91406   0.15674   0.17896   0.00000  Uiso   1.00
C20    C     0.89678   0.07131   0.19844   0.00000  Uiso   1.00
C21    C     0.02187   0.23251   0.06682   0.00000  Uiso   1.00
C22    C     0.99582   0.27985   0.02156   0.00000  Uiso   1.00
C23    C     0.01592   0.25072   0.96905   0.00000  Uiso   1.00
H24    H     0.12335   0.05938   0.10967   0.00000  Uiso   1.00
H25    H     0.22210   0.13584   0.16553   0.00000  Uiso   1.00
H26    H     0.03931   0.94927   0.15946   0.00000  Uiso   1.00
H27    H     0.12106   0.07236   0.00209   0.00000  Uiso   1.00
H28    H     0.31193   0.25314   0.23054   0.00000  Uiso   1.00
H29    H     0.92650   0.85974   0.21771   0.00000  Uiso   1.00
H30    H     0.09887   0.11930   0.88586   0.00000  Uiso   1.00
H31    H     0.97193   0.31023   0.13323   0.00000  Uiso   1.00
H32    H     0.06238   0.40045   0.19039   0.00000  Uiso   1.00
H33    H     0.87959   0.21388   0.18431   0.00000  Uiso   1.00
H34    H     0.96134   0.33697   0.02694   0.00000  Uiso   1.00
H35    H     0.18230   0.46791   0.25072   0.00000  Uiso   1.00
H36    H     0.79686   0.07450   0.23789   0.00000  Uiso   1.00
H37    H     0.96923   0.33407   0.90604   0.00000  Uiso   1.00
O38    O     0.30934   0.41534   0.27782   0.00000  Uiso   1.00
O39    O     0.80366   0.89921   0.26098   0.00000  Uiso   1.00
O40    O     0.02981   0.23974   0.82560   0.00000  Uiso   1.00
N41    N     0.26902   0.29131   0.22744   0.00000  Uiso   1.00
N42    N     0.90866   0.92351   0.21545   0.00000  Uiso   1.00
N43    N     0.06980   0.16616   0.90520   0.00000  Uiso   1.00
N44    N     0.19926   0.40688   0.23829   0.00000  Uiso   1.00
N45    N     0.83890   0.03907   0.22631   0.00000  Uiso   1.00
N46    N     0.00004   0.28172   0.91606   0.00000  Uiso   1.00
C47    C     0.41134   0.88315   0.11507   0.00000  Uiso   1.00
C48    C     0.37868   0.80682   0.14868   0.00000  Uiso   1.00
C49    C     0.31236   0.80702   0.17090   0.00000  Uiso   1.00
C50    C     0.29215   0.73070   0.20035   0.00000  Uiso   1.00
C51    C     0.23467   0.62343   0.25151   0.00000  Uiso   1.00
C52    C     0.47799   0.90819   0.14539   0.00000  Uiso   1.00
C53    C     0.49518   0.99362   0.16483   0.00000  Uiso   1.00
C54    C     0.55858   0.00263   0.19149   0.00000  Uiso   1.00
C55    C     0.65530   0.05275   0.23751   0.00000  Uiso   1.00
C56    C     0.43357   0.84130   0.05988   0.00000  Uiso   1.00
C57    C     0.41342   0.87052   0.00743   0.00000  Uiso   1.00
C58    C     0.43944   0.82323   0.96211   0.00000  Uiso   1.00
C59    C     0.46719   0.76951   0.87536   0.00000  Uiso   1.00
C60    C     0.49337   0.74724   0.12783   0.00000  Uiso   1.00
C61    C     0.42324   0.73300   0.15562   0.00000  Uiso   1.00
C62    C     0.40312   0.65666   0.18503   0.00000  Uiso   1.00
C63    C     0.33679   0.65675   0.20729   0.00000  Uiso   1.00
C64    C     0.52255   0.83437   0.15232   0.00000  Uiso   1.00
C65    C     0.58594   0.84326   0.17896   0.00000  Uiso   1.00
C66    C     0.60322   0.92869   0.19844   0.00000  Uiso   1.00
C67    C     0.47813   0.76749   0.06682   0.00000  Uiso   1.00
C68    C     0.50418   0.72015   0.02156   0.00000  Uiso   1.00
C69    C     0.48408   0.74928   0.96905   0.00000  Uiso   1.00
H70    H     0.37665   0.94062   0.10967   0.00000  Uiso   1.00
H71    H     0.27790   0.86416   0.16553   0.00000  Uiso   1.00
H72    H     0.46069   0.05073   0.15946   0.00000  Uiso   1.00
H73    H     0.37894   0.92764   0.00209   0.00000  Uiso   1.00
H74    H     0.18807   0.74686   0.23054   0.00000  Uiso   1.00
H75    H     0.57350   0.14026   0.21771   0.00000  Uiso   1.00
H76    H     0.40113   0.88070   0.88586   0.00000  Uiso   1.00
H77    H     0.52807   0.68977   0.13323   0.00000  Uiso   1.00
H78    H     0.43762   0.59955   0.19039   0.00000  Uiso   1.00
H79    H     0.62041   0.78612   0.18431   0.00000  Uiso   1.00
H80    H     0.53866   0.66303   0.02694   0.00000  Uiso   1.00
H81    H     0.31770   0.53209   0.25072   0.00000  Uiso   1.00
H82    H     0.70314   0.92550   0.23789   0.00000  Uiso   1.00
H83    H     0.53077   0.66593   0.90604   0.00000  Uiso   1.00
O84    O     0.19066   0.58466   0.27782   0.00000  Uiso   1.00
O85    O     0.69634   0.10079   0.26098   0.00000  Uiso   1.00
O86    O     0.47019   0.76026   0.82560   0.00000  Uiso   1.00
N87    N     0.23098   0.70869   0.22744   0.00000  Uiso   1.00
N88    N     0.59134   0.07649   0.21545   0.00000  Uiso   1.00
N89    N     0.43020   0.83384   0.90520   0.00000  Uiso   1.00
N90    N     0.30074   0.59312   0.23829   0.00000  Uiso   1.00
N91    N     0.66110   0.96093   0.22631   0.00000  Uiso   1.00
N92    N     0.49996   0.71828   0.91606   0.00000  Uiso   1.00
C93    C     0.91134   0.11685   0.38493   0.00000  Uiso   1.00
C94    C     0.87868   0.19318   0.35132   0.00000  Uiso   1.00
C95    C     0.81236   0.19298   0.32910   0.00000  Uiso   1.00
C96    C     0.79215   0.26930   0.29965   0.00000  Uiso   1.00
C97    C     0.73467   0.37657   0.24849   0.00000  Uiso   1.00
C98    C     0.97799   0.09181   0.35461   0.00000  Uiso   1.00
C99    C     0.99518   0.00638   0.33517   0.00000  Uiso   1.00
C100   C     0.05858   0.99737   0.30851   0.00000  Uiso   1.00
C101   C     0.15530   0.94725   0.26249   0.00000  Uiso   1.00
C102   C     0.93357   0.15870   0.44012   0.00000  Uiso   1.00
C103   C     0.91342   0.12948   0.49257   0.00000  Uiso   1.00
C104   C     0.93944   0.17677   0.53789   0.00000  Uiso   1.00
C105   C     0.96719   0.23049   0.62464   0.00000  Uiso   1.00
C106   C     0.99337   0.25276   0.37217   0.00000  Uiso   1.00
C107   C     0.92324   0.26700   0.34438   0.00000  Uiso   1.00
C108   C     0.90312   0.34334   0.31497   0.00000  Uiso   1.00
C109   C     0.83679   0.34325   0.29271   0.00000  Uiso   1.00
C110   C     0.02255   0.16563   0.34768   0.00000  Uiso   1.00
C111   C     0.08594   0.15674   0.32104   0.00000  Uiso   1.00
C112   C     0.10322   0.07131   0.30156   0.00000  Uiso   1.00
C113   C     0.97813   0.23251   0.43318   0.00000  Uiso   1.00
C114   C     0.00418   0.27985   0.47844   0.00000  Uiso   1.00
C115   C     0.98408   0.25072   0.53095   0.00000  Uiso   1.00
H116   H     0.87665   0.05938   0.39033   0.00000  Uiso   1.00
H117   H     0.77790   0.13584   0.33447   0.00000  Uiso   1.00
H118   H     0.96069   0.94927   0.34054   0.00000  Uiso   1.00
H119   H     0.87894   0.07236   0.49791   0.00000  Uiso   1.00
H120   H     0.68807   0.25314   0.26946   0.00000  Uiso   1.00
H121   H     0.07350   0.85974   0.28229   0.00000  Uiso   1.00
H122   H     0.90113   0.11930   0.61414   0.00000  Uiso   1.00
H123   H     0.02807   0.31023   0.36677   0.00000  Uiso   1.00
H124   H     0.93762   0.40045   0.30961   0.00000  Uiso   1.00
H125   H     0.12041   0.21388   0.31569   0.00000  Uiso   1.00
H126   H     0.03866   0.33697   0.47306   0.00000  Uiso   1.00
H127   H     0.81770   0.46791   0.24928   0.00000  Uiso   1.00
H128   H     0.20314   0.07450   0.26211   0.00000  Uiso   1.00
H129   H     0.03077   0.33407   0.59396   0.00000  Uiso   1.00
O130   O     0.69066   0.41534   0.22218   0.00000  Uiso   1.00
O131   O     0.19634   0.89921   0.23902   0.00000  Uiso   1.00
O132   O     0.97019   0.23974   0.67440   0.00000  Uiso   1.00
N133   N     0.73098   0.29131   0.27256   0.00000  Uiso   1.00
N134   N     0.09134   0.92351   0.28455   0.00000  Uiso   1.00
N135   N     0.93020   0.16616   0.59480   0.00000  Uiso   1.00
N136   N     0.80074   0.40688   0.26171   0.00000  Uiso   1.00
N137   N     0.16110   0.03907   0.27369   0.00000  Uiso   1.00
N138   N     0.99996   0.28172   0.58394   0.00000  Uiso   1.00
C139   C     0.58866   0.88315   0.38493   0.00000  Uiso   1.00
C140   C     0.62132   0.80682   0.35132   0.00000  Uiso   1.00
C141   C     0.68764   0.80702   0.32910   0.00000  Uiso   1.00
C142   C     0.70785   0.73070   0.29965   0.00000  Uiso   1.00
C143   C     0.76533   0.62343   0.24849   0.00000  Uiso   1.00
C144   C     0.52201   0.90819   0.35461   0.00000  Uiso   1.00
C145   C     0.50482   0.99362   0.33517   0.00000  Uiso   1.00
C146   C     0.44142   0.00263   0.30851   0.00000  Uiso   1.00
C147   C     0.34470   0.05275   0.26249   0.00000  Uiso   1.00
C148   C     0.56643   0.84130   0.44012   0.00000  Uiso   1.00
C149   C     0.58658   0.87052   0.49257   0.00000  Uiso   1.00
C150   C     0.56056   0.82323   0.53789   0.00000  Uiso   1.00
C151   C     0.53281   0.76951   0.62464   0.00000  Uiso   1.00
C152   C     0.50663   0.74724   0.37217   0.00000  Uiso   1.00
C153   C     0.57676   0.73300   0.34438   0.00000  Uiso   1.00
C154   C     0.59688   0.65666   0.31497   0.00000  Uiso   1.00
C155   C     0.66321   0.65675   0.29271   0.00000  Uiso   1.00
C156   C     0.47745   0.83437   0.34768   0.00000  Uiso   1.00
C157   C     0.41406   0.84326   0.32104   0.00000  Uiso   1.00
C158   C     0.39678   0.92869   0.30156   0.00000  Uiso   1.00
C159   C     0.52187   0.76749   0.43318   0.00000  Uiso   1.00
C160   C     0.49582   0.72015   0.47844   0.00000  Uiso   1.00
C161   C     0.51592   0.74928   0.53095   0.00000  Uiso   1.00
H162   H     0.62335   0.94062   0.39033   0.00000  Uiso   1.00
H163   H     0.72210   0.86416   0.33447   0.00000  Uiso   1.00
H164   H     0.53931   0.05073   0.34054   0.00000  Uiso   1.00
H165   H     0.62106   0.92764   0.49791   0.00000  Uiso   1.00
H166   H     0.81193   0.74686   0.26946   0.00000  Uiso   1.00
H167   H     0.42650   0.14026   0.28229   0.00000  Uiso   1.00
H168   H     0.59887   0.88070   0.61414   0.00000  Uiso   1.00
H169   H     0.47193   0.68977   0.36677   0.00000  Uiso   1.00
H170   H     0.56238   0.59955   0.30961   0.00000  Uiso   1.00
H171   H     0.37959   0.78612   0.31569   0.00000  Uiso   1.00
H172   H     0.46134   0.66303   0.47306   0.00000  Uiso   1.00
H173   H     0.68230   0.53209   0.24928   0.00000  Uiso   1.00
H174   H     0.29686   0.92550   0.26211   0.00000  Uiso   1.00
H175   H     0.46923   0.66593   0.59396   0.00000  Uiso   1.00
O176   O     0.80934   0.58466   0.22218   0.00000  Uiso   1.00
O177   O     0.30366   0.10079   0.23902   0.00000  Uiso   1.00
O178   O     0.52981   0.76026   0.67440   0.00000  Uiso   1.00
N179   N     0.76902   0.70869   0.27256   0.00000  Uiso   1.00
N180   N     0.40866   0.07649   0.28455   0.00000  Uiso   1.00
N181   N     0.56980   0.83384   0.59480   0.00000  Uiso   1.00
N182   N     0.69926   0.59312   0.26171   0.00000  Uiso   1.00
N183   N     0.33890   0.96093   0.27369   0.00000  Uiso   1.00
N184   N     0.50004   0.71828   0.58394   0.00000  Uiso   1.00
C185   C     0.91134   0.88315   0.88493   0.00000  Uiso   1.00
C186   C     0.87868   0.80682   0.85132   0.00000  Uiso   1.00
C187   C     0.81236   0.80702   0.82910   0.00000  Uiso   1.00
C188   C     0.79215   0.73070   0.79965   0.00000  Uiso   1.00
C189   C     0.73467   0.62343   0.74849   0.00000  Uiso   1.00
C190   C     0.97799   0.90819   0.85461   0.00000  Uiso   1.00
C191   C     0.99518   0.99362   0.83517   0.00000  Uiso   1.00
C192   C     0.05858   0.00263   0.80851   0.00000  Uiso   1.00
C193   C     0.15530   0.05275   0.76249   0.00000  Uiso   1.00
C194   C     0.93357   0.84130   0.94012   0.00000  Uiso   1.00
C195   C     0.91342   0.87052   0.99257   0.00000  Uiso   1.00
C196   C     0.93944   0.82323   0.03789   0.00000  Uiso   1.00
C197   C     0.96719   0.76951   0.12464   0.00000  Uiso   1.00
C198   C     0.99337   0.74724   0.87217   0.00000  Uiso   1.00
C199   C     0.92324   0.73300   0.84438   0.00000  Uiso   1.00
C200   C     0.90312   0.65666   0.81497   0.00000  Uiso   1.00
C201   C     0.83679   0.65675   0.79271   0.00000  Uiso   1.00
C202   C     0.02255   0.83437   0.84768   0.00000  Uiso   1.00
C203   C     0.08594   0.84326   0.82104   0.00000  Uiso   1.00
C204   C     0.10322   0.92869   0.80156   0.00000  Uiso   1.00
C205   C     0.97813   0.76749   0.93318   0.00000  Uiso   1.00
C206   C     0.00418   0.72015   0.97844   0.00000  Uiso   1.00
C207   C     0.98408   0.74928   0.03095   0.00000  Uiso   1.00
H208   H     0.87665   0.94062   0.89033   0.00000  Uiso   1.00
H209   H     0.77790   0.86416   0.83447   0.00000  Uiso   1.00
H210   H     0.96069   0.05073   0.84054   0.00000  Uiso   1.00
H211   H     0.87894   0.92764   0.99791   0.00000  Uiso   1.00
H212   H     0.68807   0.74686   0.76946   0.00000  Uiso   1.00
H213   H     0.07350   0.14026   0.78229   0.00000  Uiso   1.00
H214   H     0.90113   0.88070   0.11414   0.00000  Uiso   1.00
H215   H     0.02807   0.68977   0.86677   0.00000  Uiso   1.00
H216   H     0.93762   0.59955   0.80961   0.00000  Uiso   1.00
H217   H     0.12041   0.78612   0.81569   0.00000  Uiso   1.00
H218   H     0.03866   0.66303   0.97306   0.00000  Uiso   1.00
H219   H     0.81770   0.53209   0.74928   0.00000  Uiso   1.00
H220   H     0.20314   0.92550   0.76211   0.00000  Uiso   1.00
H221   H     0.03077   0.66593   0.09396   0.00000  Uiso   1.00
O222   O     0.69066   0.58466   0.72218   0.00000  Uiso   1.00
O223   O     0.19634   0.10079   0.73902   0.00000  Uiso   1.00
O224   O     0.97019   0.76026   0.17440   0.00000  Uiso   1.00
N225   N     0.73098   0.70869   0.77256   0.00000  Uiso   1.00
N226   N     0.09134   0.07649   0.78455   0.00000  Uiso   1.00
N227   N     0.93020   0.83384   0.09480   0.00000  Uiso   1.00
N228   N     0.80074   0.59312   0.76171   0.00000  Uiso   1.00
N229   N     0.16110   0.96093   0.77369   0.00000  Uiso   1.00
N230   N     0.99996   0.71828   0.08394   0.00000  Uiso   1.00
C231   C     0.58866   0.11685   0.88493   0.00000  Uiso   1.00
C232   C     0.62132   0.19318   0.85132   0.00000  Uiso   1.00
C233   C     0.68764   0.19298   0.82910   0.00000  Uiso   1.00
C234   C     0.70785   0.26930   0.79965   0.00000  Uiso   1.00
C235   C     0.76533   0.37657   0.74849   0.00000  Uiso   1.00
C236   C     0.52201   0.09181   0.85461   0.00000  Uiso   1.00
C237   C     0.50482   0.00638   0.83517   0.00000  Uiso   1.00
C238   C     0.44142   0.99737   0.80851   0.00000  Uiso   1.00
C239   C     0.34470   0.94725   0.76249   0.00000  Uiso   1.00
C240   C     0.56643   0.15870   0.94012   0.00000  Uiso   1.00
C241   C     0.58658   0.12948   0.99257   0.00000  Uiso   1.00
C242   C     0.56056   0.17677   0.03789   0.00000  Uiso   1.00
C243   C     0.53281   0.23049   0.12464   0.00000  Uiso   1.00
C244   C     0.50663   0.25276   0.87217   0.00000  Uiso   1.00
C245   C     0.57676   0.26700   0.84438   0.00000  Uiso   1.00
C246   C     0.59688   0.34334   0.81497   0.00000  Uiso   1.00
C247   C     0.66321   0.34325   0.79271   0.00000  Uiso   1.00
C248   C     0.47745   0.16563   0.84768   0.00000  Uiso   1.00
C249   C     0.41406   0.15674   0.82104   0.00000  Uiso   1.00
C250   C     0.39678   0.07131   0.80156   0.00000  Uiso   1.00
C251   C     0.52187   0.23251   0.93318   0.00000  Uiso   1.00
C252   C     0.49582   0.27985   0.97844   0.00000  Uiso   1.00
C253   C     0.51592   0.25072   0.03095   0.00000  Uiso   1.00
H254   H     0.62335   0.05938   0.89033   0.00000  Uiso   1.00
H255   H     0.72210   0.13584   0.83447   0.00000  Uiso   1.00
H256   H     0.53931   0.94927   0.84054   0.00000  Uiso   1.00
H257   H     0.62106   0.07236   0.99791   0.00000  Uiso   1.00
H258   H     0.81193   0.25314   0.76946   0.00000  Uiso   1.00
H259   H     0.42650   0.85974   0.78229   0.00000  Uiso   1.00
H260   H     0.59887   0.11930   0.11414   0.00000  Uiso   1.00
H261   H     0.47193   0.31023   0.86677   0.00000  Uiso   1.00
H262   H     0.56238   0.40045   0.80961   0.00000  Uiso   1.00
H263   H     0.37959   0.21388   0.81569   0.00000  Uiso   1.00
H264   H     0.46134   0.33697   0.97306   0.00000  Uiso   1.00
H265   H     0.68230   0.46791   0.74928   0.00000  Uiso   1.00
H266   H     0.29686   0.07450   0.76211   0.00000  Uiso   1.00
H267   H     0.46923   0.33407   0.09396   0.00000  Uiso   1.00
O268   O     0.80934   0.41534   0.72218   0.00000  Uiso   1.00
O269   O     0.30366   0.89921   0.73902   0.00000  Uiso   1.00
O270   O     0.52981   0.23974   0.17440   0.00000  Uiso   1.00
N271   N     0.76902   0.29131   0.77256   0.00000  Uiso   1.00
N272   N     0.40866   0.92351   0.78455   0.00000  Uiso   1.00
N273   N     0.56980   0.16616   0.09480   0.00000  Uiso   1.00
N274   N     0.69926   0.40688   0.76171   0.00000  Uiso   1.00
N275   N     0.33890   0.03907   0.77369   0.00000  Uiso   1.00
N276   N     0.50004   0.28172   0.08394   0.00000  Uiso   1.00
C277   C     0.08866   0.88315   0.61507   0.00000  Uiso   1.00
C278   C     0.12132   0.80682   0.64868   0.00000  Uiso   1.00
C279   C     0.18764   0.80702   0.67090   0.00000  Uiso   1.00
C280   C     0.20785   0.73070   0.70035   0.00000  Uiso   1.00
C281   C     0.26533   0.62343   0.75151   0.00000  Uiso   1.00
C282   C     0.02201   0.90819   0.64539   0.00000  Uiso   1.00
C283   C     0.00482   0.99362   0.66483   0.00000  Uiso   1.00
C284   C     0.94142   0.00263   0.69149   0.00000  Uiso   1.00
C285   C     0.84470   0.05275   0.73751   0.00000  Uiso   1.00
C286   C     0.06643   0.84130   0.55988   0.00000  Uiso   1.00
C287   C     0.08658   0.87052   0.50743   0.00000  Uiso   1.00
C288   C     0.06056   0.82323   0.46211   0.00000  Uiso   1.00
C289   C     0.03281   0.76951   0.37536   0.00000  Uiso   1.00
C290   C     0.00663   0.74724   0.62783   0.00000  Uiso   1.00
C291   C     0.07676   0.73300   0.65562   0.00000  Uiso   1.00
C292   C     0.09688   0.65666   0.68503   0.00000  Uiso   1.00
C293   C     0.16321   0.65675   0.70729   0.00000  Uiso   1.00
C294   C     0.97745   0.83437   0.65232   0.00000  Uiso   1.00
C295   C     0.91406   0.84326   0.67896   0.00000  Uiso   1.00
C296   C     0.89678   0.92869   0.69844   0.00000  Uiso   1.00
C297   C     0.02187   0.76749   0.56682   0.00000  Uiso   1.00
C298   C     0.99582   0.72015   0.52156   0.00000  Uiso   1.00
C299   C     0.01592   0.74928   0.46905   0.00000  Uiso   1.00
H300   H     0.12335   0.94062   0.60967   0.00000  Uiso   1.00
H301   H     0.22210   0.86416   0.66553   0.00000  Uiso   1.00
H302   H     0.03931   0.05073   0.65946   0.00000  Uiso   1.00
H303   H     0.12106   0.92764   0.50209   0.00000  Uiso   1.00
H304   H     0.31193   0.74686   0.73054   0.00000  Uiso   1.00
H305   H     0.92650   0.14026   0.71771   0.00000  Uiso   1.00
H306   H     0.09887   0.88070   0.38586   0.00000  Uiso   1.00
H307   H     0.97193   0.68977   0.63323   0.00000  Uiso   1.00
H308   H     0.06238   0.59955   0.69039   0.00000  Uiso   1.00
H309   H     0.87959   0.78612   0.68431   0.00000  Uiso   1.00
H310   H     0.96134   0.66303   0.52694   0.00000  Uiso   1.00
H311   H     0.18230   0.53209   0.75072   0.00000  Uiso   1.00
H312   H     0.79686   0.92550   0.73789   0.00000  Uiso   1.00
H313   H     0.96923   0.66593   0.40604   0.00000  Uiso   1.00
O314   O     0.30934   0.58466   0.77782   0.00000  Uiso   1.00
O315   O     0.80366   0.10079   0.76098   0.00000  Uiso   1.00
O316   O     0.02981   0.76026   0.32560   0.00000  Uiso   1.00
N317   N     0.26902   0.70869   0.72744   0.00000  Uiso   1.00
N318   N     0.90866   0.07649   0.71545   0.00000  Uiso   1.00
N319   N     0.06980   0.83384   0.40520   0.00000  Uiso   1.00
N320   N     0.19926   0.59312   0.73829   0.00000  Uiso   1.00
N321   N     0.83890   0.96093   0.72631   0.00000  Uiso   1.00
N322   N     0.00004   0.71828   0.41606   0.00000  Uiso   1.00
C323   C     0.41134   0.11685   0.61507   0.00000  Uiso   1.00
C324   C     0.37868   0.19318   0.64868   0.00000  Uiso   1.00
C325   C     0.31236   0.19298   0.67090   0.00000  Uiso   1.00
C326   C     0.29215   0.26930   0.70035   0.00000  Uiso   1.00
C327   C     0.23467   0.37657   0.75151   0.00000  Uiso   1.00
C328   C     0.47799   0.09181   0.64539   0.00000  Uiso   1.00
C329   C     0.49518   0.00638   0.66483   0.00000  Uiso   1.00
C330   C     0.55858   0.99737   0.69149   0.00000  Uiso   1.00
C331   C     0.65530   0.94725   0.73751   0.00000  Uiso   1.00
C332   C     0.43357   0.15870   0.55988   0.00000  Uiso   1.00
C333   C     0.41342   0.12948   0.50743   0.00000  Uiso   1.00
C334   C     0.43944   0.17677   0.46211   0.00000  Uiso   1.00
C335   C     0.46719   0.23049   0.37536   0.00000  Uiso   1.00
C336   C     0.49337   0.25276   0.62783   0.00000  Uiso   1.00
C337   C     0.42324   0.26700   0.65562   0.00000  Uiso   1.00
C338   C     0.40312   0.34334   0.68503   0.00000  Uiso   1.00
C339   C     0.33679   0.34325   0.70729   0.00000  Uiso   1.00
C340   C     0.52255   0.16563   0.65232   0.00000  Uiso   1.00
C341   C     0.58594   0.15674   0.67896   0.00000  Uiso   1.00
C342   C     0.60322   0.07131   0.69844   0.00000  Uiso   1.00
C343   C     0.47813   0.23251   0.56682   0.00000  Uiso   1.00
C344   C     0.50418   0.27985   0.52156   0.00000  Uiso   1.00
C345   C     0.48408   0.25072   0.46905   0.00000  Uiso   1.00
H346   H     0.37665   0.05938   0.60967   0.00000  Uiso   1.00
H347   H     0.27790   0.13584   0.66553   0.00000  Uiso   1.00
H348   H     0.46069   0.94927   0.65946   0.00000  Uiso   1.00
H349   H     0.37894   0.07236   0.50209   0.00000  Uiso   1.00
H350   H     0.18807   0.25314   0.73054   0.00000  Uiso   1.00
H351   H     0.57350   0.85974   0.71771   0.00000  Uiso   1.00
H352   H     0.40113   0.11930   0.38586   0.00000  Uiso   1.00
H353   H     0.52807   0.31023   0.63323   0.00000  Uiso   1.00
H354   H     0.43762   0.40045   0.69039   0.00000  Uiso   1.00
H355   H     0.62041   0.21388   0.68431   0.00000  Uiso   1.00
H356   H     0.53866   0.33697   0.52694   0.00000  Uiso   1.00
H357   H     0.31770   0.46791   0.75072   0.00000  Uiso   1.00
H358   H     0.70314   0.07450   0.73789   0.00000  Uiso   1.00
H359   H     0.53077   0.33407   0.40604   0.00000  Uiso   1.00
O360   O     0.19066   0.41534   0.77782   0.00000  Uiso   1.00
O361   O     0.69634   0.89921   0.76098   0.00000  Uiso   1.00
O362   O     0.47019   0.23974   0.32560   0.00000  Uiso   1.00
N363   N     0.23098   0.29131   0.72744   0.00000  Uiso   1.00
N364   N     0.59134   0.92351   0.71545   0.00000  Uiso   1.00
N365   N     0.43020   0.16616   0.40520   0.00000  Uiso   1.00
N366   N     0.30074   0.40688   0.73829   0.00000  Uiso   1.00
N367   N     0.66110   0.03907   0.72631   0.00000  Uiso   1.00
N368   N     0.49996   0.28172   0.41606   0.00000  Uiso   1.00
