data_job_05044
_audit_creation_date              2018-12-19
_audit_creation_method            'Materials Studio'
_symmetry_space_group_name_H-M    'P1'
_symmetry_Int_Tables_number       1
_symmetry_cell_setting            triclinic
loop_
_symmetry_equiv_pos_as_xyz
  x,y,z
_cell_length_a                    29.2785
_cell_length_b                    9.7348
_cell_length_c                    18.5290
_cell_angle_alpha                 90.0000
_cell_angle_beta                  90.0000
_cell_angle_gamma                 90.0000
loop_
_atom_site_label
_atom_site_type_symbol
_atom_site_fract_x
_atom_site_fract_y
_atom_site_fract_z
_atom_site_U_iso_or_equiv
_atom_site_adp_type
_atom_site_occupancy
C1     C     0.85612   0.08042   0.11640   0.00000  Uiso   1.00
C2     C     0.83882   0.11971   0.19123   0.00000  Uiso   1.00
C3     C     0.80161   0.20360   0.20571   0.00000  Uiso   1.00
C4     C     0.79131   0.22716   0.27779   0.00000  Uiso   1.00
C5     C     0.76051   0.29708   0.38555   0.00000  Uiso   1.00
C6     C     0.90610   0.12416   0.11391   0.00000  Uiso   1.00
C7     C     0.92546   0.21179   0.06336   0.00000  Uiso   1.00
C8     C     0.97180   0.23907   0.07035   0.00000  Uiso   1.00
C9     C     0.04547   0.31583   0.05802   0.00000  Uiso   1.00
C10    C     0.85623   0.92384   0.11414   0.00000  Uiso   1.00
C11    C     0.83366   0.84303   0.06378   0.00000  Uiso   1.00
C12    C     0.83802   0.70166   0.07095   0.00000  Uiso   1.00
C13    C     0.83424   0.46740   0.05898   0.00000  Uiso   1.00
C14    C     0.90398   0.97306   0.21867   0.00000  Uiso   1.00
C15    C     0.86482   0.06139   0.24678   0.00000  Uiso   1.00
C16    C     0.85457   0.08482   0.31887   0.00000  Uiso   1.00
C17    C     0.81735   0.16873   0.33345   0.00000  Uiso   1.00
C18    C     0.93210   0.06585   0.16945   0.00000  Uiso   1.00
C19    C     0.97842   0.09300   0.17652   0.00000  Uiso   1.00
C20    C     0.99785   0.18065   0.12600   0.00000  Uiso   1.00
C21    C     0.88223   0.86552   0.16969   0.00000  Uiso   1.00
C22    C     0.88662   0.72425   0.17694   0.00000  Uiso   1.00
C23    C     0.86406   0.64324   0.12660   0.00000  Uiso   1.00
H24    H     0.83588   0.12583   0.07314   0.00000  Uiso   1.00
H25    H     0.78150   0.24873   0.16270   0.00000  Uiso   1.00
H26    H     0.90534   0.25689   0.02037   0.00000  Uiso   1.00
H27    H     0.81355   0.88820   0.02079   0.00000  Uiso   1.00
H28    H     0.73269   0.35930   0.28649   0.00000  Uiso   1.00
H29    H     0.99381   0.37649   0.98637   0.00000  Uiso   1.00
H30    H     0.80025   0.59902   0.98725   0.00000  Uiso   1.00
H31    H     0.92422   0.92765   0.26192   0.00000  Uiso   1.00
H32    H     0.87469   0.03967   0.36184   0.00000  Uiso   1.00
H33    H     0.99853   0.04785   0.21951   0.00000  Uiso   1.00
H34    H     0.90674   0.67915   0.21993   0.00000  Uiso   1.00
H35    H     0.80833   0.18964   0.44812   0.00000  Uiso   1.00
H36    H     0.06945   0.20682   0.14799   0.00000  Uiso   1.00
H37    H     0.87589   0.42935   0.14888   0.00000  Uiso   1.00
O38    O     0.73635   0.35178   0.42963   0.00000  Uiso   1.00
O39    O     0.07892   0.37429   0.03587   0.00000  Uiso   1.00
O40    O     0.82498   0.35429   0.03704   0.00000  Uiso   1.00
N41    N     0.75729   0.30398   0.31082   0.00000  Uiso   1.00
N42    N     0.00141   0.32006   0.03023   0.00000  Uiso   1.00
N43    N     0.82046   0.59320   0.03104   0.00000  Uiso   1.00
N44    N     0.79799   0.21268   0.39779   0.00000  Uiso   1.00
N45    N     0.04211   0.22876   0.11720   0.00000  Uiso   1.00
N46    N     0.86116   0.50190   0.11801   0.00000  Uiso   1.00
C47    C     0.64388   0.91958   0.61640   0.00000  Uiso   1.00
C48    C     0.66118   0.88029   0.69123   0.00000  Uiso   1.00
C49    C     0.69839   0.79640   0.70571   0.00000  Uiso   1.00
C50    C     0.70869   0.77284   0.77779   0.00000  Uiso   1.00
C51    C     0.73949   0.70292   0.88555   0.00000  Uiso   1.00
C52    C     0.59390   0.87584   0.61391   0.00000  Uiso   1.00
C53    C     0.57454   0.78821   0.56336   0.00000  Uiso   1.00
C54    C     0.52820   0.76093   0.57035   0.00000  Uiso   1.00
C55    C     0.45453   0.68417   0.55802   0.00000  Uiso   1.00
C56    C     0.64377   0.07616   0.61414   0.00000  Uiso   1.00
C57    C     0.66634   0.15697   0.56378   0.00000  Uiso   1.00
C58    C     0.66198   0.29834   0.57095   0.00000  Uiso   1.00
C59    C     0.66576   0.53260   0.55898   0.00000  Uiso   1.00
C60    C     0.59602   0.02694   0.71867   0.00000  Uiso   1.00
C61    C     0.63518   0.93861   0.74678   0.00000  Uiso   1.00
C62    C     0.64543   0.91518   0.81887   0.00000  Uiso   1.00
C63    C     0.68265   0.83127   0.83345   0.00000  Uiso   1.00
C64    C     0.56790   0.93415   0.66945   0.00000  Uiso   1.00
C65    C     0.52158   0.90700   0.67652   0.00000  Uiso   1.00
C66    C     0.50215   0.81935   0.62600   0.00000  Uiso   1.00
C67    C     0.61777   0.13448   0.66969   0.00000  Uiso   1.00
C68    C     0.61338   0.27575   0.67694   0.00000  Uiso   1.00
C69    C     0.63594   0.35676   0.62660   0.00000  Uiso   1.00
H70    H     0.66412   0.87417   0.57314   0.00000  Uiso   1.00
H71    H     0.71850   0.75127   0.66270   0.00000  Uiso   1.00
H72    H     0.59466   0.74311   0.52037   0.00000  Uiso   1.00
H73    H     0.68645   0.11180   0.52079   0.00000  Uiso   1.00
H74    H     0.76731   0.64070   0.78649   0.00000  Uiso   1.00
H75    H     0.50619   0.62351   0.48637   0.00000  Uiso   1.00
H76    H     0.69975   0.40098   0.48725   0.00000  Uiso   1.00
H77    H     0.57578   0.07235   0.76192   0.00000  Uiso   1.00
H78    H     0.62531   0.96033   0.86184   0.00000  Uiso   1.00
H79    H     0.50147   0.95215   0.71951   0.00000  Uiso   1.00
H80    H     0.59326   0.32085   0.71993   0.00000  Uiso   1.00
H81    H     0.69167   0.81036   0.94812   0.00000  Uiso   1.00
H82    H     0.43055   0.79318   0.64799   0.00000  Uiso   1.00
H83    H     0.62411   0.57065   0.64888   0.00000  Uiso   1.00
O84    O     0.76365   0.64822   0.92963   0.00000  Uiso   1.00
O85    O     0.42108   0.62571   0.53587   0.00000  Uiso   1.00
O86    O     0.67502   0.64571   0.53704   0.00000  Uiso   1.00
N87    N     0.74271   0.69602   0.81082   0.00000  Uiso   1.00
N88    N     0.49859   0.67994   0.53023   0.00000  Uiso   1.00
N89    N     0.67954   0.40680   0.53104   0.00000  Uiso   1.00
N90    N     0.70201   0.78732   0.89779   0.00000  Uiso   1.00
N91    N     0.45789   0.77124   0.61720   0.00000  Uiso   1.00
N92    N     0.63884   0.49810   0.61801   0.00000  Uiso   1.00
C93    C     0.14388   0.58042   0.38360   0.00000  Uiso   1.00
C94    C     0.16118   0.61971   0.30877   0.00000  Uiso   1.00
C95    C     0.19839   0.70360   0.29429   0.00000  Uiso   1.00
C96    C     0.20869   0.72716   0.22221   0.00000  Uiso   1.00
C97    C     0.23949   0.79708   0.11445   0.00000  Uiso   1.00
C98    C     0.09390   0.62416   0.38609   0.00000  Uiso   1.00
C99    C     0.07454   0.71179   0.43664   0.00000  Uiso   1.00
C100   C     0.02820   0.73907   0.42965   0.00000  Uiso   1.00
C101   C     0.95453   0.81583   0.44198   0.00000  Uiso   1.00
C102   C     0.14377   0.42384   0.38586   0.00000  Uiso   1.00
C103   C     0.16634   0.34303   0.43622   0.00000  Uiso   1.00
C104   C     0.16198   0.20166   0.42905   0.00000  Uiso   1.00
C105   C     0.16576   0.96740   0.44102   0.00000  Uiso   1.00
C106   C     0.09602   0.47306   0.28133   0.00000  Uiso   1.00
C107   C     0.13518   0.56139   0.25322   0.00000  Uiso   1.00
C108   C     0.14543   0.58482   0.18113   0.00000  Uiso   1.00
C109   C     0.18265   0.66873   0.16655   0.00000  Uiso   1.00
C110   C     0.06790   0.56585   0.33055   0.00000  Uiso   1.00
C111   C     0.02158   0.59300   0.32348   0.00000  Uiso   1.00
C112   C     0.00215   0.68065   0.37400   0.00000  Uiso   1.00
C113   C     0.11777   0.36552   0.33031   0.00000  Uiso   1.00
C114   C     0.11338   0.22425   0.32306   0.00000  Uiso   1.00
C115   C     0.13594   0.14324   0.37340   0.00000  Uiso   1.00
H116   H     0.16412   0.62583   0.42686   0.00000  Uiso   1.00
H117   H     0.21850   0.74873   0.33730   0.00000  Uiso   1.00
H118   H     0.09466   0.75689   0.47963   0.00000  Uiso   1.00
H119   H     0.18645   0.38820   0.47921   0.00000  Uiso   1.00
H120   H     0.26731   0.85930   0.21351   0.00000  Uiso   1.00
H121   H     0.00619   0.87649   0.51363   0.00000  Uiso   1.00
H122   H     0.19975   0.09902   0.51275   0.00000  Uiso   1.00
H123   H     0.07578   0.42765   0.23808   0.00000  Uiso   1.00
H124   H     0.12531   0.53967   0.13816   0.00000  Uiso   1.00
H125   H     0.00147   0.54785   0.28049   0.00000  Uiso   1.00
H126   H     0.09326   0.17915   0.28007   0.00000  Uiso   1.00
H127   H     0.19167   0.68964   0.05188   0.00000  Uiso   1.00
H128   H     0.93055   0.70682   0.35201   0.00000  Uiso   1.00
H129   H     0.12411   0.92935   0.35112   0.00000  Uiso   1.00
O130   O     0.26365   0.85178   0.07037   0.00000  Uiso   1.00
O131   O     0.92108   0.87429   0.46413   0.00000  Uiso   1.00
O132   O     0.17502   0.85429   0.46296   0.00000  Uiso   1.00
N133   N     0.24271   0.80398   0.18918   0.00000  Uiso   1.00
N134   N     0.99859   0.82006   0.46977   0.00000  Uiso   1.00
N135   N     0.17954   0.09320   0.46896   0.00000  Uiso   1.00
N136   N     0.20201   0.71268   0.10221   0.00000  Uiso   1.00
N137   N     0.95789   0.72876   0.38280   0.00000  Uiso   1.00
N138   N     0.13884   0.00190   0.38199   0.00000  Uiso   1.00
C139   C     0.35612   0.41958   0.88360   0.00000  Uiso   1.00
C140   C     0.33882   0.38029   0.80877   0.00000  Uiso   1.00
C141   C     0.30161   0.29640   0.79429   0.00000  Uiso   1.00
C142   C     0.29131   0.27284   0.72221   0.00000  Uiso   1.00
C143   C     0.26051   0.20292   0.61445   0.00000  Uiso   1.00
C144   C     0.40610   0.37584   0.88609   0.00000  Uiso   1.00
C145   C     0.42546   0.28821   0.93664   0.00000  Uiso   1.00
C146   C     0.47180   0.26093   0.92965   0.00000  Uiso   1.00
C147   C     0.54547   0.18417   0.94198   0.00000  Uiso   1.00
C148   C     0.35623   0.57616   0.88586   0.00000  Uiso   1.00
C149   C     0.33366   0.65697   0.93622   0.00000  Uiso   1.00
C150   C     0.33802   0.79834   0.92905   0.00000  Uiso   1.00
C151   C     0.33424   0.03260   0.94102   0.00000  Uiso   1.00
C152   C     0.40398   0.52694   0.78133   0.00000  Uiso   1.00
C153   C     0.36482   0.43861   0.75322   0.00000  Uiso   1.00
C154   C     0.35457   0.41518   0.68113   0.00000  Uiso   1.00
C155   C     0.31735   0.33127   0.66655   0.00000  Uiso   1.00
C156   C     0.43210   0.43415   0.83055   0.00000  Uiso   1.00
C157   C     0.47842   0.40700   0.82348   0.00000  Uiso   1.00
C158   C     0.49785   0.31935   0.87400   0.00000  Uiso   1.00
C159   C     0.38223   0.63448   0.83031   0.00000  Uiso   1.00
C160   C     0.38662   0.77575   0.82306   0.00000  Uiso   1.00
C161   C     0.36406   0.85676   0.87340   0.00000  Uiso   1.00
H162   H     0.33588   0.37417   0.92686   0.00000  Uiso   1.00
H163   H     0.28150   0.25127   0.83730   0.00000  Uiso   1.00
H164   H     0.40534   0.24311   0.97963   0.00000  Uiso   1.00
H165   H     0.31355   0.61180   0.97921   0.00000  Uiso   1.00
H166   H     0.23269   0.14070   0.71351   0.00000  Uiso   1.00
H167   H     0.49381   0.12351   0.01363   0.00000  Uiso   1.00
H168   H     0.30025   0.90098   0.01275   0.00000  Uiso   1.00
H169   H     0.42422   0.57235   0.73808   0.00000  Uiso   1.00
H170   H     0.37469   0.46033   0.63816   0.00000  Uiso   1.00
H171   H     0.49853   0.45215   0.78049   0.00000  Uiso   1.00
H172   H     0.40674   0.82085   0.78007   0.00000  Uiso   1.00
H173   H     0.30833   0.31036   0.55188   0.00000  Uiso   1.00
H174   H     0.56945   0.29318   0.85201   0.00000  Uiso   1.00
H175   H     0.37589   0.07065   0.85112   0.00000  Uiso   1.00
O176   O     0.23635   0.14822   0.57037   0.00000  Uiso   1.00
O177   O     0.57892   0.12571   0.96413   0.00000  Uiso   1.00
O178   O     0.32498   0.14571   0.96296   0.00000  Uiso   1.00
N179   N     0.25729   0.19602   0.68918   0.00000  Uiso   1.00
N180   N     0.50141   0.17994   0.96977   0.00000  Uiso   1.00
N181   N     0.32046   0.90680   0.96896   0.00000  Uiso   1.00
N182   N     0.29799   0.28732   0.60221   0.00000  Uiso   1.00
N183   N     0.54211   0.27124   0.88280   0.00000  Uiso   1.00
N184   N     0.36116   0.99810   0.88199   0.00000  Uiso   1.00
C185   C     0.14388   0.91958   0.88360   0.00000  Uiso   1.00
C186   C     0.16118   0.88029   0.80877   0.00000  Uiso   1.00
C187   C     0.19839   0.79640   0.79429   0.00000  Uiso   1.00
C188   C     0.20869   0.77284   0.72221   0.00000  Uiso   1.00
C189   C     0.23949   0.70292   0.61445   0.00000  Uiso   1.00
C190   C     0.09390   0.87584   0.88609   0.00000  Uiso   1.00
C191   C     0.07454   0.78821   0.93664   0.00000  Uiso   1.00
C192   C     0.02820   0.76093   0.92965   0.00000  Uiso   1.00
C193   C     0.95453   0.68417   0.94198   0.00000  Uiso   1.00
C194   C     0.14377   0.07616   0.88586   0.00000  Uiso   1.00
C195   C     0.16634   0.15697   0.93622   0.00000  Uiso   1.00
C196   C     0.16198   0.29834   0.92905   0.00000  Uiso   1.00
C197   C     0.16576   0.53260   0.94102   0.00000  Uiso   1.00
C198   C     0.09602   0.02694   0.78133   0.00000  Uiso   1.00
C199   C     0.13518   0.93861   0.75322   0.00000  Uiso   1.00
C200   C     0.14543   0.91518   0.68113   0.00000  Uiso   1.00
C201   C     0.18265   0.83127   0.66655   0.00000  Uiso   1.00
C202   C     0.06790   0.93415   0.83055   0.00000  Uiso   1.00
C203   C     0.02158   0.90700   0.82348   0.00000  Uiso   1.00
C204   C     0.00215   0.81935   0.87400   0.00000  Uiso   1.00
C205   C     0.11777   0.13448   0.83031   0.00000  Uiso   1.00
C206   C     0.11338   0.27575   0.82306   0.00000  Uiso   1.00
C207   C     0.13594   0.35676   0.87340   0.00000  Uiso   1.00
H208   H     0.16412   0.87417   0.92686   0.00000  Uiso   1.00
H209   H     0.21850   0.75127   0.83730   0.00000  Uiso   1.00
H210   H     0.09466   0.74311   0.97963   0.00000  Uiso   1.00
H211   H     0.18645   0.11180   0.97921   0.00000  Uiso   1.00
H212   H     0.26731   0.64070   0.71351   0.00000  Uiso   1.00
H213   H     0.00619   0.62351   0.01363   0.00000  Uiso   1.00
H214   H     0.19975   0.40098   0.01275   0.00000  Uiso   1.00
H215   H     0.07578   0.07235   0.73808   0.00000  Uiso   1.00
H216   H     0.12531   0.96033   0.63816   0.00000  Uiso   1.00
H217   H     0.00147   0.95215   0.78049   0.00000  Uiso   1.00
H218   H     0.09326   0.32085   0.78007   0.00000  Uiso   1.00
H219   H     0.19167   0.81036   0.55188   0.00000  Uiso   1.00
H220   H     0.93055   0.79318   0.85201   0.00000  Uiso   1.00
H221   H     0.12411   0.57065   0.85112   0.00000  Uiso   1.00
O222   O     0.26365   0.64822   0.57037   0.00000  Uiso   1.00
O223   O     0.92108   0.62571   0.96413   0.00000  Uiso   1.00
O224   O     0.17502   0.64571   0.96296   0.00000  Uiso   1.00
N225   N     0.24271   0.69602   0.68918   0.00000  Uiso   1.00
N226   N     0.99859   0.67994   0.96977   0.00000  Uiso   1.00
N227   N     0.17954   0.40680   0.96896   0.00000  Uiso   1.00
N228   N     0.20201   0.78732   0.60221   0.00000  Uiso   1.00
N229   N     0.95789   0.77124   0.88280   0.00000  Uiso   1.00
N230   N     0.13884   0.49810   0.88199   0.00000  Uiso   1.00
C231   C     0.35612   0.08042   0.38360   0.00000  Uiso   1.00
C232   C     0.33882   0.11971   0.30877   0.00000  Uiso   1.00
C233   C     0.30161   0.20360   0.29429   0.00000  Uiso   1.00
C234   C     0.29131   0.22716   0.22221   0.00000  Uiso   1.00
C235   C     0.26051   0.29708   0.11445   0.00000  Uiso   1.00
C236   C     0.40610   0.12416   0.38609   0.00000  Uiso   1.00
C237   C     0.42546   0.21179   0.43664   0.00000  Uiso   1.00
C238   C     0.47180   0.23907   0.42965   0.00000  Uiso   1.00
C239   C     0.54547   0.31583   0.44198   0.00000  Uiso   1.00
C240   C     0.35623   0.92384   0.38586   0.00000  Uiso   1.00
C241   C     0.33366   0.84303   0.43622   0.00000  Uiso   1.00
C242   C     0.33802   0.70166   0.42905   0.00000  Uiso   1.00
C243   C     0.33424   0.46740   0.44102   0.00000  Uiso   1.00
C244   C     0.40398   0.97306   0.28133   0.00000  Uiso   1.00
C245   C     0.36482   0.06139   0.25322   0.00000  Uiso   1.00
C246   C     0.35457   0.08482   0.18113   0.00000  Uiso   1.00
C247   C     0.31735   0.16873   0.16655   0.00000  Uiso   1.00
C248   C     0.43210   0.06585   0.33055   0.00000  Uiso   1.00
C249   C     0.47842   0.09300   0.32348   0.00000  Uiso   1.00
C250   C     0.49785   0.18065   0.37400   0.00000  Uiso   1.00
C251   C     0.38223   0.86552   0.33031   0.00000  Uiso   1.00
C252   C     0.38662   0.72425   0.32306   0.00000  Uiso   1.00
C253   C     0.36406   0.64324   0.37340   0.00000  Uiso   1.00
H254   H     0.33588   0.12583   0.42686   0.00000  Uiso   1.00
H255   H     0.28150   0.24873   0.33730   0.00000  Uiso   1.00
H256   H     0.40534   0.25689   0.47963   0.00000  Uiso   1.00
H257   H     0.31355   0.88820   0.47921   0.00000  Uiso   1.00
H258   H     0.23269   0.35930   0.21351   0.00000  Uiso   1.00
H259   H     0.49381   0.37649   0.51363   0.00000  Uiso   1.00
H260   H     0.30025   0.59902   0.51275   0.00000  Uiso   1.00
H261   H     0.42422   0.92765   0.23808   0.00000  Uiso   1.00
H262   H     0.37469   0.03967   0.13816   0.00000  Uiso   1.00
H263   H     0.49853   0.04785   0.28049   0.00000  Uiso   1.00
H264   H     0.40674   0.67915   0.28007   0.00000  Uiso   1.00
H265   H     0.30833   0.18964   0.05188   0.00000  Uiso   1.00
H266   H     0.56945   0.20682   0.35201   0.00000  Uiso   1.00
H267   H     0.37589   0.42935   0.35112   0.00000  Uiso   1.00
O268   O     0.23635   0.35178   0.07037   0.00000  Uiso   1.00
O269   O     0.57892   0.37429   0.46413   0.00000  Uiso   1.00
O270   O     0.32498   0.35429   0.46296   0.00000  Uiso   1.00
N271   N     0.25729   0.30398   0.18918   0.00000  Uiso   1.00
N272   N     0.50141   0.32006   0.46977   0.00000  Uiso   1.00
N273   N     0.32046   0.59320   0.46896   0.00000  Uiso   1.00
N274   N     0.29799   0.21268   0.10221   0.00000  Uiso   1.00
N275   N     0.54211   0.22876   0.38280   0.00000  Uiso   1.00
N276   N     0.36116   0.50190   0.38199   0.00000  Uiso   1.00
C277   C     0.85612   0.41958   0.61640   0.00000  Uiso   1.00
C278   C     0.83882   0.38029   0.69123   0.00000  Uiso   1.00
C279   C     0.80161   0.29640   0.70571   0.00000  Uiso   1.00
C280   C     0.79131   0.27284   0.77779   0.00000  Uiso   1.00
C281   C     0.76051   0.20292   0.88555   0.00000  Uiso   1.00
C282   C     0.90610   0.37584   0.61391   0.00000  Uiso   1.00
C283   C     0.92546   0.28821   0.56336   0.00000  Uiso   1.00
C284   C     0.97180   0.26093   0.57035   0.00000  Uiso   1.00
C285   C     0.04547   0.18417   0.55802   0.00000  Uiso   1.00
C286   C     0.85623   0.57616   0.61414   0.00000  Uiso   1.00
C287   C     0.83366   0.65697   0.56378   0.00000  Uiso   1.00
C288   C     0.83802   0.79834   0.57095   0.00000  Uiso   1.00
C289   C     0.83424   0.03260   0.55898   0.00000  Uiso   1.00
C290   C     0.90398   0.52694   0.71867   0.00000  Uiso   1.00
C291   C     0.86482   0.43861   0.74678   0.00000  Uiso   1.00
C292   C     0.85457   0.41518   0.81887   0.00000  Uiso   1.00
C293   C     0.81735   0.33127   0.83345   0.00000  Uiso   1.00
C294   C     0.93210   0.43415   0.66945   0.00000  Uiso   1.00
C295   C     0.97842   0.40700   0.67652   0.00000  Uiso   1.00
C296   C     0.99785   0.31935   0.62600   0.00000  Uiso   1.00
C297   C     0.88223   0.63448   0.66969   0.00000  Uiso   1.00
C298   C     0.88662   0.77575   0.67694   0.00000  Uiso   1.00
C299   C     0.86406   0.85676   0.62660   0.00000  Uiso   1.00
H300   H     0.83588   0.37417   0.57314   0.00000  Uiso   1.00
H301   H     0.78150   0.25127   0.66270   0.00000  Uiso   1.00
H302   H     0.90534   0.24311   0.52037   0.00000  Uiso   1.00
H303   H     0.81355   0.61180   0.52079   0.00000  Uiso   1.00
H304   H     0.73269   0.14070   0.78649   0.00000  Uiso   1.00
H305   H     0.99381   0.12351   0.48637   0.00000  Uiso   1.00
H306   H     0.80025   0.90098   0.48725   0.00000  Uiso   1.00
H307   H     0.92422   0.57235   0.76192   0.00000  Uiso   1.00
H308   H     0.87469   0.46033   0.86184   0.00000  Uiso   1.00
H309   H     0.99853   0.45215   0.71951   0.00000  Uiso   1.00
H310   H     0.90674   0.82085   0.71993   0.00000  Uiso   1.00
H311   H     0.80833   0.31036   0.94812   0.00000  Uiso   1.00
H312   H     0.06945   0.29318   0.64799   0.00000  Uiso   1.00
H313   H     0.87589   0.07065   0.64888   0.00000  Uiso   1.00
O314   O     0.73635   0.14822   0.92963   0.00000  Uiso   1.00
O315   O     0.07892   0.12571   0.53587   0.00000  Uiso   1.00
O316   O     0.82498   0.14571   0.53704   0.00000  Uiso   1.00
N317   N     0.75729   0.19602   0.81082   0.00000  Uiso   1.00
N318   N     0.00141   0.17994   0.53023   0.00000  Uiso   1.00
N319   N     0.82046   0.90680   0.53104   0.00000  Uiso   1.00
N320   N     0.79799   0.28732   0.89779   0.00000  Uiso   1.00
N321   N     0.04211   0.27124   0.61720   0.00000  Uiso   1.00
N322   N     0.86116   0.99810   0.61801   0.00000  Uiso   1.00
C323   C     0.64388   0.58042   0.11640   0.00000  Uiso   1.00
C324   C     0.66118   0.61971   0.19123   0.00000  Uiso   1.00
C325   C     0.69839   0.70360   0.20571   0.00000  Uiso   1.00
C326   C     0.70869   0.72716   0.27779   0.00000  Uiso   1.00
C327   C     0.73949   0.79708   0.38555   0.00000  Uiso   1.00
C328   C     0.59390   0.62416   0.11391   0.00000  Uiso   1.00
C329   C     0.57454   0.71179   0.06336   0.00000  Uiso   1.00
C330   C     0.52820   0.73907   0.07035   0.00000  Uiso   1.00
C331   C     0.45453   0.81583   0.05802   0.00000  Uiso   1.00
C332   C     0.64377   0.42384   0.11414   0.00000  Uiso   1.00
C333   C     0.66634   0.34303   0.06378   0.00000  Uiso   1.00
C334   C     0.66198   0.20166   0.07095   0.00000  Uiso   1.00
C335   C     0.66576   0.96740   0.05898   0.00000  Uiso   1.00
C336   C     0.59602   0.47306   0.21867   0.00000  Uiso   1.00
C337   C     0.63518   0.56139   0.24678   0.00000  Uiso   1.00
C338   C     0.64543   0.58482   0.31887   0.00000  Uiso   1.00
C339   C     0.68265   0.66873   0.33345   0.00000  Uiso   1.00
C340   C     0.56790   0.56585   0.16945   0.00000  Uiso   1.00
C341   C     0.52158   0.59300   0.17652   0.00000  Uiso   1.00
C342   C     0.50215   0.68065   0.12600   0.00000  Uiso   1.00
C343   C     0.61777   0.36552   0.16969   0.00000  Uiso   1.00
C344   C     0.61338   0.22425   0.17694   0.00000  Uiso   1.00
C345   C     0.63594   0.14324   0.12660   0.00000  Uiso   1.00
H346   H     0.66412   0.62583   0.07314   0.00000  Uiso   1.00
H347   H     0.71850   0.74873   0.16270   0.00000  Uiso   1.00
H348   H     0.59466   0.75689   0.02037   0.00000  Uiso   1.00
H349   H     0.68645   0.38820   0.02079   0.00000  Uiso   1.00
H350   H     0.76731   0.85930   0.28649   0.00000  Uiso   1.00
H351   H     0.50619   0.87649   0.98637   0.00000  Uiso   1.00
H352   H     0.69975   0.09902   0.98725   0.00000  Uiso   1.00
H353   H     0.57578   0.42765   0.26192   0.00000  Uiso   1.00
H354   H     0.62531   0.53967   0.36184   0.00000  Uiso   1.00
H355   H     0.50147   0.54785   0.21951   0.00000  Uiso   1.00
H356   H     0.59326   0.17915   0.21993   0.00000  Uiso   1.00
H357   H     0.69167   0.68964   0.44812   0.00000  Uiso   1.00
H358   H     0.43055   0.70682   0.14799   0.00000  Uiso   1.00
H359   H     0.62411   0.92935   0.14888   0.00000  Uiso   1.00
O360   O     0.76365   0.85178   0.42963   0.00000  Uiso   1.00
O361   O     0.42108   0.87429   0.03587   0.00000  Uiso   1.00
O362   O     0.67502   0.85429   0.03704   0.00000  Uiso   1.00
N363   N     0.74271   0.80398   0.31082   0.00000  Uiso   1.00
N364   N     0.49859   0.82006   0.03023   0.00000  Uiso   1.00
N365   N     0.67954   0.09320   0.03104   0.00000  Uiso   1.00
N366   N     0.70201   0.71268   0.39779   0.00000  Uiso   1.00
N367   N     0.45789   0.72876   0.11720   0.00000  Uiso   1.00
N368   N     0.63884   0.00190   0.11801   0.00000  Uiso   1.00
