data_job_03823
_audit_creation_date              2018-12-19
_audit_creation_method            'Materials Studio'
_symmetry_space_group_name_H-M    'P1'
_symmetry_Int_Tables_number       1
_symmetry_cell_setting            triclinic
loop_
_symmetry_equiv_pos_as_xyz
  x,y,z
_cell_length_a                    11.6303
_cell_length_b                    12.4540
_cell_length_c                    12.7639
_cell_angle_alpha                 105.4486
_cell_angle_beta                  74.8773
_cell_angle_gamma                 63.7343
loop_
_atom_site_label
_atom_site_type_symbol
_atom_site_fract_x
_atom_site_fract_y
_atom_site_fract_z
_atom_site_U_iso_or_equiv
_atom_site_adp_type
_atom_site_occupancy
C1     C     0.30072   0.14198   0.83414   0.00000  Uiso   1.00
C2     C     0.38964   0.99546   0.80698   0.00000  Uiso   1.00
C3     C     0.53318   0.92325   0.78061   0.00000  Uiso   1.00
C4     C     0.59516   0.79033   0.75839   0.00000  Uiso   1.00
C5     C     0.74524   0.57169   0.71555   0.00000  Uiso   1.00
C6     C     0.23812   0.14622   0.74304   0.00000  Uiso   1.00
C7     C     0.25425   0.20079   0.66291   0.00000  Uiso   1.00
C8     C     0.18865   0.19479   0.58688   0.00000  Uiso   1.00
C9     C     0.10341   0.21030   0.44482   0.00000  Uiso   1.00
C10    C     0.17490   0.21049   0.95748   0.00000  Uiso   1.00
C11    C     0.13785   0.31913   0.05766   0.00000  Uiso   1.00
C12    C     0.01900   0.36726   0.16216   0.00000  Uiso   1.00
C13    C     0.83560   0.48255   0.35306   0.00000  Uiso   1.00
C14    C     0.15551   0.03431   0.84158   0.00000  Uiso   1.00
C15    C     0.31077   0.93698   0.81102   0.00000  Uiso   1.00
C16    C     0.37253   0.80413   0.78885   0.00000  Uiso   1.00
C17    C     0.51615   0.73174   0.76245   0.00000  Uiso   1.00
C18    C     0.15925   0.08774   0.74708   0.00000  Uiso   1.00
C19    C     0.09360   0.08166   0.67115   0.00000  Uiso   1.00
C20    C     0.10964   0.13620   0.59092   0.00000  Uiso   1.00
C21    C     0.09603   0.15200   0.96153   0.00000  Uiso   1.00
C22    C     0.97720   0.19999   0.06589   0.00000  Uiso   1.00
C23    C     0.93998   0.30867   0.16621   0.00000  Uiso   1.00
H24    H     0.36212   0.18752   0.83099   0.00000  Uiso   1.00
H25    H     0.59419   0.96855   0.77748   0.00000  Uiso   1.00
H26    H     0.31528   0.24605   0.65981   0.00000  Uiso   1.00
H27    H     0.19890   0.36436   0.05450   0.00000  Uiso   1.00
H28    H     0.81671   0.69997   0.71990   0.00000  Uiso   1.00
H29    H     0.22858   0.28515   0.47182   0.00000  Uiso   1.00
H30    H     0.98317   0.53463   0.30409   0.00000  Uiso   1.00
H31    H     0.09411   0.98878   0.84473   0.00000  Uiso   1.00
H32    H     0.31147   0.75890   0.79198   0.00000  Uiso   1.00
H33    H     0.03257   0.03640   0.67431   0.00000  Uiso   1.00
H34    H     0.91619   0.15471   0.06899   0.00000  Uiso   1.00
H35    H     0.58725   0.52981   0.73166   0.00000  Uiso   1.00
H36    H     0.99912   0.11499   0.48358   0.00000  Uiso   1.00
H37    H     0.75372   0.36446   0.31585   0.00000  Uiso   1.00
O38    O     0.84982   0.46724   0.69079   0.00000  Uiso   1.00
O39    O     0.07820   0.23499   0.36534   0.00000  Uiso   1.00
O40    O     0.75624   0.56229   0.45725   0.00000  Uiso   1.00
N41    N     0.73287   0.69148   0.72993   0.00000  Uiso   1.00
N42    N     0.18302   0.23857   0.49797   0.00000  Uiso   1.00
N43    N     0.95357   0.47183   0.27607   0.00000  Uiso   1.00
N44    N     0.60940   0.59992   0.73626   0.00000  Uiso   1.00
N45    N     0.05955   0.14700   0.50431   0.00000  Uiso   1.00
N46    N     0.83010   0.38027   0.28240   0.00000  Uiso   1.00
C47    C     0.69928   0.85802   0.16586   0.00000  Uiso   1.00
C48    C     0.61036   0.00454   0.19302   0.00000  Uiso   1.00
C49    C     0.46682   0.07675   0.21939   0.00000  Uiso   1.00
C50    C     0.40484   0.20967   0.24161   0.00000  Uiso   1.00
C51    C     0.25476   0.42831   0.28445   0.00000  Uiso   1.00
C52    C     0.76188   0.85378   0.25696   0.00000  Uiso   1.00
C53    C     0.74575   0.79921   0.33709   0.00000  Uiso   1.00
C54    C     0.81135   0.80521   0.41312   0.00000  Uiso   1.00
C55    C     0.89659   0.78970   0.55518   0.00000  Uiso   1.00
C56    C     0.82510   0.78951   0.04252   0.00000  Uiso   1.00
C57    C     0.86215   0.68087   0.94234   0.00000  Uiso   1.00
C58    C     0.98100   0.63274   0.83784   0.00000  Uiso   1.00
C59    C     0.16440   0.51745   0.64694   0.00000  Uiso   1.00
C60    C     0.84449   0.96569   0.15842   0.00000  Uiso   1.00
C61    C     0.68923   0.06302   0.18898   0.00000  Uiso   1.00
C62    C     0.62747   0.19587   0.21115   0.00000  Uiso   1.00
C63    C     0.48385   0.26826   0.23755   0.00000  Uiso   1.00
C64    C     0.84075   0.91226   0.25292   0.00000  Uiso   1.00
C65    C     0.90640   0.91834   0.32885   0.00000  Uiso   1.00
C66    C     0.89036   0.86380   0.40908   0.00000  Uiso   1.00
C67    C     0.90397   0.84800   0.03847   0.00000  Uiso   1.00
C68    C     0.02280   0.80001   0.93411   0.00000  Uiso   1.00
C69    C     0.06002   0.69133   0.83379   0.00000  Uiso   1.00
H70    H     0.63788   0.81248   0.16901   0.00000  Uiso   1.00
H71    H     0.40581   0.03145   0.22252   0.00000  Uiso   1.00
H72    H     0.68472   0.75395   0.34019   0.00000  Uiso   1.00
H73    H     0.80110   0.63564   0.94550   0.00000  Uiso   1.00
H74    H     0.18329   0.30003   0.28010   0.00000  Uiso   1.00
H75    H     0.77142   0.71485   0.52818   0.00000  Uiso   1.00
H76    H     0.01683   0.46537   0.69591   0.00000  Uiso   1.00
H77    H     0.90589   0.01122   0.15527   0.00000  Uiso   1.00
H78    H     0.68853   0.24110   0.20802   0.00000  Uiso   1.00
H79    H     0.96743   0.96360   0.32569   0.00000  Uiso   1.00
H80    H     0.08381   0.84529   0.93101   0.00000  Uiso   1.00
H81    H     0.41275   0.47019   0.26834   0.00000  Uiso   1.00
H82    H     0.00088   0.88501   0.51642   0.00000  Uiso   1.00
H83    H     0.24628   0.63554   0.68415   0.00000  Uiso   1.00
O84    O     0.15018   0.53276   0.30921   0.00000  Uiso   1.00
O85    O     0.92180   0.76501   0.63466   0.00000  Uiso   1.00
O86    O     0.24376   0.43771   0.54275   0.00000  Uiso   1.00
N87    N     0.26713   0.30852   0.27007   0.00000  Uiso   1.00
N88    N     0.81698   0.76143   0.50203   0.00000  Uiso   1.00
N89    N     0.04643   0.52817   0.72393   0.00000  Uiso   1.00
N90    N     0.39060   0.40008   0.26374   0.00000  Uiso   1.00
N91    N     0.94045   0.85300   0.49569   0.00000  Uiso   1.00
N92    N     0.16990   0.61973   0.71760   0.00000  Uiso   1.00
