data_job_01146
_audit_creation_date              2018-12-19
_audit_creation_method            'Materials Studio'
_symmetry_space_group_name_H-M    'P1'
_symmetry_Int_Tables_number       1
_symmetry_cell_setting            triclinic
loop_
_symmetry_equiv_pos_as_xyz
  x,y,z
_cell_length_a                    7.2376
_cell_length_b                    30.5479
_cell_length_c                    40.7633
_cell_angle_alpha                 90.0000
_cell_angle_beta                  90.0000
_cell_angle_gamma                 90.0000
loop_
_atom_site_label
_atom_site_type_symbol
_atom_site_fract_x
_atom_site_fract_y
_atom_site_fract_z
_atom_site_U_iso_or_equiv
_atom_site_adp_type
_atom_site_occupancy
C1     C     0.07184   0.19016   0.58567   0.00000  Uiso   1.00
C2     C     0.15322   0.15121   0.56726   0.00000  Uiso   1.00
C3     C     0.05291   0.11846   0.55179   0.00000  Uiso   1.00
C4     C     0.15306   0.08567   0.53630   0.00000  Uiso   1.00
C5     C     0.25000   0.02518   0.50773   0.00000  Uiso   1.00
C6     C     0.15322   0.18836   0.62015   0.00000  Uiso   1.00
C7     C     0.05290   0.18685   0.64914   0.00000  Uiso   1.00
C8     C     0.15306   0.18534   0.67817   0.00000  Uiso   1.00
C9     C     0.25000   0.18256   0.73171   0.00000  Uiso   1.00
C10    C     0.15319   0.23091   0.56960   0.00000  Uiso   1.00
C11    C     0.05286   0.26518   0.55610   0.00000  Uiso   1.00
C12    C     0.15300   0.29949   0.54257   0.00000  Uiso   1.00
C13    C     0.24989   0.36277   0.51763   0.00000  Uiso   1.00
C14    C     0.42808   0.19017   0.58567   0.00000  Uiso   1.00
C15    C     0.34672   0.15122   0.56726   0.00000  Uiso   1.00
C16    C     0.44705   0.11847   0.55179   0.00000  Uiso   1.00
C17    C     0.34690   0.08567   0.53629   0.00000  Uiso   1.00
C18    C     0.34671   0.18837   0.62015   0.00000  Uiso   1.00
C19    C     0.44704   0.18686   0.64914   0.00000  Uiso   1.00
C20    C     0.34691   0.18534   0.67817   0.00000  Uiso   1.00
C21    C     0.34669   0.23091   0.56960   0.00000  Uiso   1.00
C22    C     0.44700   0.26518   0.55609   0.00000  Uiso   1.00
C23    C     0.34684   0.29949   0.54257   0.00000  Uiso   1.00
H24    H     0.92120   0.19016   0.58567   0.00000  Uiso   1.00
H25    H     0.90317   0.11847   0.55180   0.00000  Uiso   1.00
H26    H     0.90317   0.18685   0.64913   0.00000  Uiso   1.00
H27    H     0.90313   0.26516   0.55610   0.00000  Uiso   1.00
H28    H     0.96852   0.03898   0.51425   0.00000  Uiso   1.00
H29    H     0.96851   0.18318   0.71949   0.00000  Uiso   1.00
H30    H     0.96842   0.34832   0.52332   0.00000  Uiso   1.00
H31    H     0.57873   0.19017   0.58567   0.00000  Uiso   1.00
H32    H     0.59679   0.11848   0.55179   0.00000  Uiso   1.00
H33    H     0.59678   0.18686   0.64913   0.00000  Uiso   1.00
H34    H     0.59674   0.26517   0.55610   0.00000  Uiso   1.00
H35    H     0.53148   0.03899   0.51425   0.00000  Uiso   1.00
H36    H     0.53147   0.18320   0.71949   0.00000  Uiso   1.00
H37    H     0.53138   0.34833   0.52331   0.00000  Uiso   1.00
O38    O     0.25001   0.99181   0.49198   0.00000  Uiso   1.00
O39    O     0.25000   0.18102   0.76124   0.00000  Uiso   1.00
O40    O     0.24988   0.39766   0.50386   0.00000  Uiso   1.00
N41    N     0.09853   0.04882   0.51890   0.00000  Uiso   1.00
N42    N     0.09853   0.18364   0.71078   0.00000  Uiso   1.00
N43    N     0.09844   0.33803   0.52738   0.00000  Uiso   1.00
N44    N     0.40146   0.04883   0.51889   0.00000  Uiso   1.00
N45    N     0.40145   0.18365   0.71078   0.00000  Uiso   1.00
N46    N     0.40136   0.33804   0.52738   0.00000  Uiso   1.00
C47    C     0.42816   0.30984   0.08567   0.00000  Uiso   1.00
C48    C     0.34678   0.34879   0.06726   0.00000  Uiso   1.00
C49    C     0.44709   0.38154   0.05179   0.00000  Uiso   1.00
C50    C     0.34694   0.41433   0.03630   0.00000  Uiso   1.00
C51    C     0.25000   0.47482   0.00773   0.00000  Uiso   1.00
C52    C     0.34678   0.31164   0.12015   0.00000  Uiso   1.00
C53    C     0.44710   0.31315   0.14914   0.00000  Uiso   1.00
C54    C     0.34694   0.31466   0.17817   0.00000  Uiso   1.00
C55    C     0.25000   0.31744   0.23171   0.00000  Uiso   1.00
C56    C     0.34681   0.26909   0.06960   0.00000  Uiso   1.00
C57    C     0.44714   0.23482   0.05610   0.00000  Uiso   1.00
C58    C     0.34700   0.20051   0.04257   0.00000  Uiso   1.00
C59    C     0.25011   0.13723   0.01763   0.00000  Uiso   1.00
C60    C     0.07192   0.30983   0.08567   0.00000  Uiso   1.00
C61    C     0.15328   0.34878   0.06726   0.00000  Uiso   1.00
C62    C     0.05295   0.38153   0.05179   0.00000  Uiso   1.00
C63    C     0.15310   0.41433   0.03629   0.00000  Uiso   1.00
C64    C     0.15329   0.31163   0.12015   0.00000  Uiso   1.00
C65    C     0.05296   0.31314   0.14914   0.00000  Uiso   1.00
C66    C     0.15309   0.31466   0.17817   0.00000  Uiso   1.00
C67    C     0.15331   0.26909   0.06960   0.00000  Uiso   1.00
C68    C     0.05300   0.23482   0.05609   0.00000  Uiso   1.00
C69    C     0.15316   0.20051   0.04257   0.00000  Uiso   1.00
H70    H     0.57880   0.30984   0.08567   0.00000  Uiso   1.00
H71    H     0.59683   0.38153   0.05180   0.00000  Uiso   1.00
H72    H     0.59683   0.31315   0.14913   0.00000  Uiso   1.00
H73    H     0.59687   0.23484   0.05610   0.00000  Uiso   1.00
H74    H     0.53148   0.46102   0.01425   0.00000  Uiso   1.00
H75    H     0.53149   0.31682   0.21949   0.00000  Uiso   1.00
H76    H     0.53158   0.15168   0.02332   0.00000  Uiso   1.00
H77    H     0.92127   0.30983   0.08567   0.00000  Uiso   1.00
H78    H     0.90321   0.38152   0.05179   0.00000  Uiso   1.00
H79    H     0.90322   0.31314   0.14913   0.00000  Uiso   1.00
H80    H     0.90326   0.23483   0.05610   0.00000  Uiso   1.00
H81    H     0.96852   0.46101   0.01425   0.00000  Uiso   1.00
H82    H     0.96853   0.31680   0.21949   0.00000  Uiso   1.00
H83    H     0.96862   0.15167   0.02331   0.00000  Uiso   1.00
O84    O     0.24999   0.50819   0.99198   0.00000  Uiso   1.00
O85    O     0.25000   0.31898   0.26124   0.00000  Uiso   1.00
O86    O     0.25012   0.10234   0.00386   0.00000  Uiso   1.00
N87    N     0.40147   0.45118   0.01890   0.00000  Uiso   1.00
N88    N     0.40147   0.31636   0.21078   0.00000  Uiso   1.00
N89    N     0.40156   0.16197   0.02738   0.00000  Uiso   1.00
N90    N     0.09854   0.45117   0.01889   0.00000  Uiso   1.00
N91    N     0.09855   0.31635   0.21078   0.00000  Uiso   1.00
N92    N     0.09864   0.16196   0.02738   0.00000  Uiso   1.00
C93    C     0.92816   0.19016   0.91433   0.00000  Uiso   1.00
C94    C     0.84678   0.15121   0.93274   0.00000  Uiso   1.00
C95    C     0.94709   0.11846   0.94821   0.00000  Uiso   1.00
C96    C     0.84694   0.08567   0.96370   0.00000  Uiso   1.00
C97    C     0.75000   0.02518   0.99227   0.00000  Uiso   1.00
C98    C     0.84678   0.18836   0.87985   0.00000  Uiso   1.00
C99    C     0.94710   0.18685   0.85086   0.00000  Uiso   1.00
C100   C     0.84694   0.18534   0.82183   0.00000  Uiso   1.00
C101   C     0.75000   0.18256   0.76829   0.00000  Uiso   1.00
C102   C     0.84681   0.23091   0.93040   0.00000  Uiso   1.00
C103   C     0.94714   0.26518   0.94390   0.00000  Uiso   1.00
C104   C     0.84700   0.29949   0.95743   0.00000  Uiso   1.00
C105   C     0.75011   0.36277   0.98237   0.00000  Uiso   1.00
C106   C     0.57192   0.19017   0.91433   0.00000  Uiso   1.00
C107   C     0.65328   0.15122   0.93274   0.00000  Uiso   1.00
C108   C     0.55295   0.11847   0.94821   0.00000  Uiso   1.00
C109   C     0.65310   0.08567   0.96371   0.00000  Uiso   1.00
C110   C     0.65329   0.18837   0.87985   0.00000  Uiso   1.00
C111   C     0.55296   0.18686   0.85086   0.00000  Uiso   1.00
C112   C     0.65309   0.18534   0.82183   0.00000  Uiso   1.00
C113   C     0.65331   0.23091   0.93040   0.00000  Uiso   1.00
C114   C     0.55300   0.26518   0.94391   0.00000  Uiso   1.00
C115   C     0.65316   0.29949   0.95743   0.00000  Uiso   1.00
H116   H     0.07880   0.19016   0.91433   0.00000  Uiso   1.00
H117   H     0.09683   0.11847   0.94820   0.00000  Uiso   1.00
H118   H     0.09683   0.18685   0.85087   0.00000  Uiso   1.00
H119   H     0.09687   0.26516   0.94390   0.00000  Uiso   1.00
H120   H     0.03148   0.03898   0.98575   0.00000  Uiso   1.00
H121   H     0.03149   0.18318   0.78051   0.00000  Uiso   1.00
H122   H     0.03158   0.34832   0.97668   0.00000  Uiso   1.00
H123   H     0.42127   0.19017   0.91433   0.00000  Uiso   1.00
H124   H     0.40321   0.11848   0.94821   0.00000  Uiso   1.00
H125   H     0.40322   0.18686   0.85087   0.00000  Uiso   1.00
H126   H     0.40326   0.26517   0.94390   0.00000  Uiso   1.00
H127   H     0.46852   0.03899   0.98575   0.00000  Uiso   1.00
H128   H     0.46853   0.18320   0.78051   0.00000  Uiso   1.00
H129   H     0.46862   0.34833   0.97669   0.00000  Uiso   1.00
O130   O     0.74999   0.99181   0.00802   0.00000  Uiso   1.00
O131   O     0.75000   0.18102   0.73876   0.00000  Uiso   1.00
O132   O     0.75012   0.39766   0.99614   0.00000  Uiso   1.00
N133   N     0.90147   0.04882   0.98110   0.00000  Uiso   1.00
N134   N     0.90147   0.18364   0.78922   0.00000  Uiso   1.00
N135   N     0.90156   0.33803   0.97262   0.00000  Uiso   1.00
N136   N     0.59854   0.04883   0.98111   0.00000  Uiso   1.00
N137   N     0.59855   0.18365   0.78922   0.00000  Uiso   1.00
N138   N     0.59864   0.33804   0.97262   0.00000  Uiso   1.00
C139   C     0.57184   0.30984   0.41433   0.00000  Uiso   1.00
C140   C     0.65322   0.34879   0.43274   0.00000  Uiso   1.00
C141   C     0.55291   0.38154   0.44821   0.00000  Uiso   1.00
C142   C     0.65306   0.41433   0.46370   0.00000  Uiso   1.00
C143   C     0.75000   0.47482   0.49227   0.00000  Uiso   1.00
C144   C     0.65322   0.31164   0.37985   0.00000  Uiso   1.00
C145   C     0.55290   0.31315   0.35086   0.00000  Uiso   1.00
C146   C     0.65306   0.31466   0.32183   0.00000  Uiso   1.00
C147   C     0.75000   0.31744   0.26829   0.00000  Uiso   1.00
C148   C     0.65319   0.26909   0.43040   0.00000  Uiso   1.00
C149   C     0.55286   0.23482   0.44390   0.00000  Uiso   1.00
C150   C     0.65300   0.20051   0.45743   0.00000  Uiso   1.00
C151   C     0.74989   0.13723   0.48237   0.00000  Uiso   1.00
C152   C     0.92808   0.30983   0.41433   0.00000  Uiso   1.00
C153   C     0.84672   0.34878   0.43274   0.00000  Uiso   1.00
C154   C     0.94705   0.38153   0.44821   0.00000  Uiso   1.00
C155   C     0.84690   0.41433   0.46371   0.00000  Uiso   1.00
C156   C     0.84671   0.31163   0.37985   0.00000  Uiso   1.00
C157   C     0.94704   0.31314   0.35086   0.00000  Uiso   1.00
C158   C     0.84691   0.31466   0.32183   0.00000  Uiso   1.00
C159   C     0.84669   0.26909   0.43040   0.00000  Uiso   1.00
C160   C     0.94700   0.23482   0.44391   0.00000  Uiso   1.00
C161   C     0.84684   0.20051   0.45743   0.00000  Uiso   1.00
H162   H     0.42120   0.30984   0.41433   0.00000  Uiso   1.00
H163   H     0.40317   0.38153   0.44820   0.00000  Uiso   1.00
H164   H     0.40317   0.31315   0.35087   0.00000  Uiso   1.00
H165   H     0.40313   0.23484   0.44390   0.00000  Uiso   1.00
H166   H     0.46852   0.46102   0.48575   0.00000  Uiso   1.00
H167   H     0.46851   0.31682   0.28051   0.00000  Uiso   1.00
H168   H     0.46842   0.15168   0.47668   0.00000  Uiso   1.00
H169   H     0.07873   0.30983   0.41433   0.00000  Uiso   1.00
H170   H     0.09679   0.38152   0.44821   0.00000  Uiso   1.00
H171   H     0.09678   0.31314   0.35087   0.00000  Uiso   1.00
H172   H     0.09674   0.23483   0.44390   0.00000  Uiso   1.00
H173   H     0.03148   0.46101   0.48575   0.00000  Uiso   1.00
H174   H     0.03147   0.31680   0.28051   0.00000  Uiso   1.00
H175   H     0.03138   0.15167   0.47669   0.00000  Uiso   1.00
O176   O     0.75001   0.50819   0.50802   0.00000  Uiso   1.00
O177   O     0.75000   0.31898   0.23876   0.00000  Uiso   1.00
O178   O     0.74988   0.10234   0.49614   0.00000  Uiso   1.00
N179   N     0.59853   0.45118   0.48110   0.00000  Uiso   1.00
N180   N     0.59853   0.31636   0.28922   0.00000  Uiso   1.00
N181   N     0.59844   0.16197   0.47262   0.00000  Uiso   1.00
N182   N     0.90146   0.45117   0.48111   0.00000  Uiso   1.00
N183   N     0.90145   0.31635   0.28922   0.00000  Uiso   1.00
N184   N     0.90136   0.16196   0.47262   0.00000  Uiso   1.00
C185   C     0.92816   0.80984   0.41433   0.00000  Uiso   1.00
C186   C     0.84678   0.84879   0.43274   0.00000  Uiso   1.00
C187   C     0.94709   0.88154   0.44821   0.00000  Uiso   1.00
C188   C     0.84694   0.91433   0.46370   0.00000  Uiso   1.00
C189   C     0.75000   0.97482   0.49227   0.00000  Uiso   1.00
C190   C     0.84678   0.81164   0.37985   0.00000  Uiso   1.00
C191   C     0.94710   0.81315   0.35086   0.00000  Uiso   1.00
C192   C     0.84694   0.81466   0.32183   0.00000  Uiso   1.00
C193   C     0.75000   0.81744   0.26829   0.00000  Uiso   1.00
C194   C     0.84681   0.76909   0.43040   0.00000  Uiso   1.00
C195   C     0.94714   0.73482   0.44390   0.00000  Uiso   1.00
C196   C     0.84700   0.70051   0.45743   0.00000  Uiso   1.00
C197   C     0.75011   0.63723   0.48237   0.00000  Uiso   1.00
C198   C     0.57192   0.80983   0.41433   0.00000  Uiso   1.00
C199   C     0.65328   0.84878   0.43274   0.00000  Uiso   1.00
C200   C     0.55295   0.88153   0.44821   0.00000  Uiso   1.00
C201   C     0.65310   0.91433   0.46371   0.00000  Uiso   1.00
C202   C     0.65329   0.81163   0.37985   0.00000  Uiso   1.00
C203   C     0.55296   0.81314   0.35086   0.00000  Uiso   1.00
C204   C     0.65309   0.81466   0.32183   0.00000  Uiso   1.00
C205   C     0.65331   0.76909   0.43040   0.00000  Uiso   1.00
C206   C     0.55300   0.73482   0.44391   0.00000  Uiso   1.00
C207   C     0.65316   0.70051   0.45743   0.00000  Uiso   1.00
H208   H     0.07880   0.80984   0.41433   0.00000  Uiso   1.00
H209   H     0.09683   0.88153   0.44820   0.00000  Uiso   1.00
H210   H     0.09683   0.81315   0.35087   0.00000  Uiso   1.00
H211   H     0.09687   0.73484   0.44390   0.00000  Uiso   1.00
H212   H     0.03148   0.96102   0.48575   0.00000  Uiso   1.00
H213   H     0.03149   0.81682   0.28051   0.00000  Uiso   1.00
H214   H     0.03158   0.65168   0.47668   0.00000  Uiso   1.00
H215   H     0.42127   0.80983   0.41433   0.00000  Uiso   1.00
H216   H     0.40321   0.88152   0.44821   0.00000  Uiso   1.00
H217   H     0.40322   0.81314   0.35087   0.00000  Uiso   1.00
H218   H     0.40326   0.73483   0.44390   0.00000  Uiso   1.00
H219   H     0.46852   0.96101   0.48575   0.00000  Uiso   1.00
H220   H     0.46853   0.81680   0.28051   0.00000  Uiso   1.00
H221   H     0.46862   0.65167   0.47669   0.00000  Uiso   1.00
O222   O     0.74999   0.00819   0.50802   0.00000  Uiso   1.00
O223   O     0.75000   0.81898   0.23876   0.00000  Uiso   1.00
O224   O     0.75012   0.60234   0.49614   0.00000  Uiso   1.00
N225   N     0.90147   0.95118   0.48110   0.00000  Uiso   1.00
N226   N     0.90147   0.81636   0.28922   0.00000  Uiso   1.00
N227   N     0.90156   0.66197   0.47262   0.00000  Uiso   1.00
N228   N     0.59854   0.95117   0.48111   0.00000  Uiso   1.00
N229   N     0.59855   0.81635   0.28922   0.00000  Uiso   1.00
N230   N     0.59864   0.66196   0.47262   0.00000  Uiso   1.00
C231   C     0.57184   0.69016   0.91433   0.00000  Uiso   1.00
C232   C     0.65322   0.65121   0.93274   0.00000  Uiso   1.00
C233   C     0.55291   0.61846   0.94821   0.00000  Uiso   1.00
C234   C     0.65306   0.58567   0.96370   0.00000  Uiso   1.00
C235   C     0.75000   0.52518   0.99227   0.00000  Uiso   1.00
C236   C     0.65322   0.68836   0.87985   0.00000  Uiso   1.00
C237   C     0.55290   0.68685   0.85086   0.00000  Uiso   1.00
C238   C     0.65306   0.68534   0.82183   0.00000  Uiso   1.00
C239   C     0.75000   0.68256   0.76829   0.00000  Uiso   1.00
C240   C     0.65319   0.73091   0.93040   0.00000  Uiso   1.00
C241   C     0.55286   0.76518   0.94390   0.00000  Uiso   1.00
C242   C     0.65300   0.79949   0.95743   0.00000  Uiso   1.00
C243   C     0.74989   0.86277   0.98237   0.00000  Uiso   1.00
C244   C     0.92808   0.69017   0.91433   0.00000  Uiso   1.00
C245   C     0.84672   0.65122   0.93274   0.00000  Uiso   1.00
C246   C     0.94705   0.61847   0.94821   0.00000  Uiso   1.00
C247   C     0.84690   0.58567   0.96371   0.00000  Uiso   1.00
C248   C     0.84671   0.68837   0.87985   0.00000  Uiso   1.00
C249   C     0.94704   0.68686   0.85086   0.00000  Uiso   1.00
C250   C     0.84691   0.68534   0.82183   0.00000  Uiso   1.00
C251   C     0.84669   0.73091   0.93040   0.00000  Uiso   1.00
C252   C     0.94700   0.76518   0.94391   0.00000  Uiso   1.00
C253   C     0.84684   0.79949   0.95743   0.00000  Uiso   1.00
H254   H     0.42120   0.69016   0.91433   0.00000  Uiso   1.00
H255   H     0.40317   0.61847   0.94820   0.00000  Uiso   1.00
H256   H     0.40317   0.68685   0.85087   0.00000  Uiso   1.00
H257   H     0.40313   0.76516   0.94390   0.00000  Uiso   1.00
H258   H     0.46852   0.53898   0.98575   0.00000  Uiso   1.00
H259   H     0.46851   0.68318   0.78051   0.00000  Uiso   1.00
H260   H     0.46842   0.84832   0.97668   0.00000  Uiso   1.00
H261   H     0.07873   0.69017   0.91433   0.00000  Uiso   1.00
H262   H     0.09679   0.61848   0.94821   0.00000  Uiso   1.00
H263   H     0.09678   0.68686   0.85087   0.00000  Uiso   1.00
H264   H     0.09674   0.76517   0.94390   0.00000  Uiso   1.00
H265   H     0.03148   0.53899   0.98575   0.00000  Uiso   1.00
H266   H     0.03147   0.68320   0.78051   0.00000  Uiso   1.00
H267   H     0.03138   0.84833   0.97669   0.00000  Uiso   1.00
O268   O     0.75001   0.49181   0.00802   0.00000  Uiso   1.00
O269   O     0.75000   0.68102   0.73876   0.00000  Uiso   1.00
O270   O     0.74988   0.89766   0.99614   0.00000  Uiso   1.00
N271   N     0.59853   0.54882   0.98110   0.00000  Uiso   1.00
N272   N     0.59853   0.68364   0.78922   0.00000  Uiso   1.00
N273   N     0.59844   0.83803   0.97262   0.00000  Uiso   1.00
N274   N     0.90146   0.54883   0.98111   0.00000  Uiso   1.00
N275   N     0.90145   0.68365   0.78922   0.00000  Uiso   1.00
N276   N     0.90136   0.83804   0.97262   0.00000  Uiso   1.00
C277   C     0.07184   0.80984   0.08567   0.00000  Uiso   1.00
C278   C     0.15322   0.84879   0.06726   0.00000  Uiso   1.00
C279   C     0.05291   0.88154   0.05179   0.00000  Uiso   1.00
C280   C     0.15306   0.91433   0.03630   0.00000  Uiso   1.00
C281   C     0.25000   0.97482   0.00773   0.00000  Uiso   1.00
C282   C     0.15322   0.81164   0.12015   0.00000  Uiso   1.00
C283   C     0.05290   0.81315   0.14914   0.00000  Uiso   1.00
C284   C     0.15306   0.81466   0.17817   0.00000  Uiso   1.00
C285   C     0.25000   0.81744   0.23171   0.00000  Uiso   1.00
C286   C     0.15319   0.76909   0.06960   0.00000  Uiso   1.00
C287   C     0.05286   0.73482   0.05610   0.00000  Uiso   1.00
C288   C     0.15300   0.70051   0.04257   0.00000  Uiso   1.00
C289   C     0.24989   0.63723   0.01763   0.00000  Uiso   1.00
C290   C     0.42808   0.80983   0.08567   0.00000  Uiso   1.00
C291   C     0.34672   0.84878   0.06726   0.00000  Uiso   1.00
C292   C     0.44705   0.88153   0.05179   0.00000  Uiso   1.00
C293   C     0.34690   0.91433   0.03629   0.00000  Uiso   1.00
C294   C     0.34671   0.81163   0.12015   0.00000  Uiso   1.00
C295   C     0.44704   0.81314   0.14914   0.00000  Uiso   1.00
C296   C     0.34691   0.81466   0.17817   0.00000  Uiso   1.00
C297   C     0.34669   0.76909   0.06960   0.00000  Uiso   1.00
C298   C     0.44700   0.73482   0.05609   0.00000  Uiso   1.00
C299   C     0.34684   0.70051   0.04257   0.00000  Uiso   1.00
H300   H     0.92120   0.80984   0.08567   0.00000  Uiso   1.00
H301   H     0.90317   0.88153   0.05180   0.00000  Uiso   1.00
H302   H     0.90317   0.81315   0.14913   0.00000  Uiso   1.00
H303   H     0.90313   0.73484   0.05610   0.00000  Uiso   1.00
H304   H     0.96852   0.96102   0.01425   0.00000  Uiso   1.00
H305   H     0.96851   0.81682   0.21949   0.00000  Uiso   1.00
H306   H     0.96842   0.65168   0.02332   0.00000  Uiso   1.00
H307   H     0.57873   0.80983   0.08567   0.00000  Uiso   1.00
H308   H     0.59679   0.88152   0.05179   0.00000  Uiso   1.00
H309   H     0.59678   0.81314   0.14913   0.00000  Uiso   1.00
H310   H     0.59674   0.73483   0.05610   0.00000  Uiso   1.00
H311   H     0.53148   0.96101   0.01425   0.00000  Uiso   1.00
H312   H     0.53147   0.81680   0.21949   0.00000  Uiso   1.00
H313   H     0.53138   0.65167   0.02331   0.00000  Uiso   1.00
O314   O     0.25001   0.00819   0.99198   0.00000  Uiso   1.00
O315   O     0.25000   0.81898   0.26124   0.00000  Uiso   1.00
O316   O     0.24988   0.60234   0.00386   0.00000  Uiso   1.00
N317   N     0.09853   0.95118   0.01890   0.00000  Uiso   1.00
N318   N     0.09853   0.81636   0.21078   0.00000  Uiso   1.00
N319   N     0.09844   0.66197   0.02738   0.00000  Uiso   1.00
N320   N     0.40146   0.95117   0.01889   0.00000  Uiso   1.00
N321   N     0.40145   0.81635   0.21078   0.00000  Uiso   1.00
N322   N     0.40136   0.66196   0.02738   0.00000  Uiso   1.00
C323   C     0.42816   0.69016   0.58567   0.00000  Uiso   1.00
C324   C     0.34678   0.65121   0.56726   0.00000  Uiso   1.00
C325   C     0.44709   0.61846   0.55179   0.00000  Uiso   1.00
C326   C     0.34694   0.58567   0.53630   0.00000  Uiso   1.00
C327   C     0.25000   0.52518   0.50773   0.00000  Uiso   1.00
C328   C     0.34678   0.68836   0.62015   0.00000  Uiso   1.00
C329   C     0.44710   0.68685   0.64914   0.00000  Uiso   1.00
C330   C     0.34694   0.68534   0.67817   0.00000  Uiso   1.00
C331   C     0.25000   0.68256   0.73171   0.00000  Uiso   1.00
C332   C     0.34681   0.73091   0.56960   0.00000  Uiso   1.00
C333   C     0.44714   0.76518   0.55610   0.00000  Uiso   1.00
C334   C     0.34700   0.79949   0.54257   0.00000  Uiso   1.00
C335   C     0.25011   0.86277   0.51763   0.00000  Uiso   1.00
C336   C     0.07192   0.69017   0.58567   0.00000  Uiso   1.00
C337   C     0.15328   0.65122   0.56726   0.00000  Uiso   1.00
C338   C     0.05295   0.61847   0.55179   0.00000  Uiso   1.00
C339   C     0.15310   0.58567   0.53629   0.00000  Uiso   1.00
C340   C     0.15329   0.68837   0.62015   0.00000  Uiso   1.00
C341   C     0.05296   0.68686   0.64914   0.00000  Uiso   1.00
C342   C     0.15309   0.68534   0.67817   0.00000  Uiso   1.00
C343   C     0.15331   0.73091   0.56960   0.00000  Uiso   1.00
C344   C     0.05300   0.76518   0.55609   0.00000  Uiso   1.00
C345   C     0.15316   0.79949   0.54257   0.00000  Uiso   1.00
H346   H     0.57880   0.69016   0.58567   0.00000  Uiso   1.00
H347   H     0.59683   0.61847   0.55180   0.00000  Uiso   1.00
H348   H     0.59683   0.68685   0.64913   0.00000  Uiso   1.00
H349   H     0.59687   0.76516   0.55610   0.00000  Uiso   1.00
H350   H     0.53148   0.53898   0.51425   0.00000  Uiso   1.00
H351   H     0.53149   0.68318   0.71949   0.00000  Uiso   1.00
H352   H     0.53158   0.84832   0.52332   0.00000  Uiso   1.00
H353   H     0.92127   0.69017   0.58567   0.00000  Uiso   1.00
H354   H     0.90321   0.61848   0.55179   0.00000  Uiso   1.00
H355   H     0.90322   0.68686   0.64913   0.00000  Uiso   1.00
H356   H     0.90326   0.76517   0.55610   0.00000  Uiso   1.00
H357   H     0.96852   0.53899   0.51425   0.00000  Uiso   1.00
H358   H     0.96853   0.68320   0.71949   0.00000  Uiso   1.00
H359   H     0.96862   0.84833   0.52331   0.00000  Uiso   1.00
O360   O     0.24999   0.49181   0.49198   0.00000  Uiso   1.00
O361   O     0.25000   0.68102   0.76124   0.00000  Uiso   1.00
O362   O     0.25012   0.89766   0.50386   0.00000  Uiso   1.00
N363   N     0.40147   0.54882   0.51890   0.00000  Uiso   1.00
N364   N     0.40147   0.68364   0.71078   0.00000  Uiso   1.00
N365   N     0.40156   0.83803   0.52738   0.00000  Uiso   1.00
N366   N     0.09854   0.54883   0.51889   0.00000  Uiso   1.00
N367   N     0.09855   0.68365   0.71078   0.00000  Uiso   1.00
N368   N     0.09864   0.83804   0.52738   0.00000  Uiso   1.00
