data_job_02852
_audit_creation_date              2018-12-19
_audit_creation_method            'Materials Studio'
_symmetry_space_group_name_H-M    'P1'
_symmetry_Int_Tables_number       1
_symmetry_cell_setting            triclinic
loop_
_symmetry_equiv_pos_as_xyz
  x,y,z
_cell_length_a                    12.2739
_cell_length_b                    12.7131
_cell_length_c                    12.7922
_cell_angle_alpha                 77.8393
_cell_angle_beta                  109.8463
_cell_angle_gamma                 75.3327
loop_
_atom_site_label
_atom_site_type_symbol
_atom_site_fract_x
_atom_site_fract_y
_atom_site_fract_z
_atom_site_U_iso_or_equiv
_atom_site_adp_type
_atom_site_occupancy
C1     C     0.11537   0.70659   0.15324   0.00000  Uiso   1.00
C2     C     0.00006   0.73932   0.17744   0.00000  Uiso   1.00
C3     C     0.88390   0.81669   0.09706   0.00000  Uiso   1.00
C4     C     0.79044   0.83492   0.13632   0.00000  Uiso   1.00
C5     C     0.60806   0.89447   0.15633   0.00000  Uiso   1.00
C6     C     0.21363   0.73220   0.24447   0.00000  Uiso   1.00
C7     C     0.27703   0.80358   0.22043   0.00000  Uiso   1.00
C8     C     0.36335   0.81580   0.31612   0.00000  Uiso   1.00
C9     C     0.51260   0.86424   0.44019   0.00000  Uiso   1.00
C10    C     0.16023   0.57615   0.18357   0.00000  Uiso   1.00
C11    C     0.17878   0.51631   0.10834   0.00000  Uiso   1.00
C12    C     0.22018   0.39714   0.15277   0.00000  Uiso   1.00
C13    C     0.28652   0.20328   0.18228   0.00000  Uiso   1.00
C14    C     0.15595   0.60136   0.36590   0.00000  Uiso   1.00
C15    C     0.02211   0.68216   0.29295   0.00000  Uiso   1.00
C16    C     0.92880   0.70027   0.33234   0.00000  Uiso   1.00
C17    C     0.81251   0.77766   0.25203   0.00000  Uiso   1.00
C18    C     0.23567   0.67505   0.35997   0.00000  Uiso   1.00
C19    C     0.32192   0.68716   0.45571   0.00000  Uiso   1.00
C20    C     0.38544   0.75854   0.43183   0.00000  Uiso   1.00
C21    C     0.18227   0.51899   0.29907   0.00000  Uiso   1.00
C22    C     0.22366   0.39989   0.34363   0.00000  Uiso   1.00
C23    C     0.24226   0.33988   0.26848   0.00000  Uiso   1.00
H24    H     0.09822   0.75109   0.06332   0.00000  Uiso   1.00
H25    H     0.86689   0.86092   0.00768   0.00000  Uiso   1.00
H26    H     0.25996   0.84779   0.13104   0.00000  Uiso   1.00
H27    H     0.16171   0.56057   0.01896   0.00000  Uiso   1.00
H28    H     0.62014   0.95750   0.99694   0.00000  Uiso   1.00
H29    H     0.44899   0.92980   0.25705   0.00000  Uiso   1.00
H30    H     0.24183   0.32413   0.02072   0.00000  Uiso   1.00
H31    H     0.17311   0.55686   0.45584   0.00000  Uiso   1.00
H32    H     0.94588   0.65603   0.42173   0.00000  Uiso   1.00
H33    H     0.33896   0.64291   0.54509   0.00000  Uiso   1.00
H34    H     0.24071   0.35569   0.43302   0.00000  Uiso   1.00
H35    H     0.68426   0.79121   0.33301   0.00000  Uiso   1.00
H36    H     0.51312   0.76351   0.59311   0.00000  Uiso   1.00
H37    H     0.30594   0.15784   0.35678   0.00000  Uiso   1.00
O38    O     0.50138   0.94313   0.13547   0.00000  Uiso   1.00
O39    O     0.58882   0.90676   0.47671   0.00000  Uiso   1.00
O40    O     0.31701   0.11214   0.16665   0.00000  Uiso   1.00
N41    N     0.66641   0.90474   0.08071   0.00000  Uiso   1.00
N42    N     0.44132   0.87886   0.32389   0.00000  Uiso   1.00
N43    N     0.24767   0.31260   0.10295   0.00000  Uiso   1.00
N44    N     0.70091   0.81526   0.26154   0.00000  Uiso   1.00
N45    N     0.47582   0.78937   0.50472   0.00000  Uiso   1.00
N46    N     0.28217   0.22312   0.28378   0.00000  Uiso   1.00
C47    C     0.88463   0.29341   0.84676   0.00000  Uiso   1.00
C48    C     0.99994   0.26068   0.82256   0.00000  Uiso   1.00
C49    C     0.11610   0.18331   0.90294   0.00000  Uiso   1.00
C50    C     0.20956   0.16508   0.86368   0.00000  Uiso   1.00
C51    C     0.39194   0.10553   0.84367   0.00000  Uiso   1.00
C52    C     0.78637   0.26780   0.75553   0.00000  Uiso   1.00
C53    C     0.72297   0.19642   0.77957   0.00000  Uiso   1.00
C54    C     0.63665   0.18420   0.68388   0.00000  Uiso   1.00
C55    C     0.48740   0.13576   0.55981   0.00000  Uiso   1.00
C56    C     0.83977   0.42385   0.81643   0.00000  Uiso   1.00
C57    C     0.82122   0.48369   0.89166   0.00000  Uiso   1.00
C58    C     0.77982   0.60286   0.84723   0.00000  Uiso   1.00
C59    C     0.71348   0.79672   0.81772   0.00000  Uiso   1.00
C60    C     0.84405   0.39864   0.63410   0.00000  Uiso   1.00
C61    C     0.97789   0.31784   0.70705   0.00000  Uiso   1.00
C62    C     0.07120   0.29973   0.66766   0.00000  Uiso   1.00
C63    C     0.18749   0.22234   0.74797   0.00000  Uiso   1.00
C64    C     0.76433   0.32495   0.64003   0.00000  Uiso   1.00
C65    C     0.67808   0.31284   0.54429   0.00000  Uiso   1.00
C66    C     0.61456   0.24146   0.56817   0.00000  Uiso   1.00
C67    C     0.81773   0.48101   0.70093   0.00000  Uiso   1.00
C68    C     0.77634   0.60011   0.65637   0.00000  Uiso   1.00
C69    C     0.75774   0.66012   0.73152   0.00000  Uiso   1.00
H70    H     0.90178   0.24891   0.93668   0.00000  Uiso   1.00
H71    H     0.13311   0.13908   0.99232   0.00000  Uiso   1.00
H72    H     0.74004   0.15221   0.86896   0.00000  Uiso   1.00
H73    H     0.83829   0.43943   0.98104   0.00000  Uiso   1.00
H74    H     0.37986   0.04250   0.00306   0.00000  Uiso   1.00
H75    H     0.55101   0.07020   0.74295   0.00000  Uiso   1.00
H76    H     0.75817   0.67587   0.97928   0.00000  Uiso   1.00
H77    H     0.82689   0.44314   0.54416   0.00000  Uiso   1.00
H78    H     0.05412   0.34397   0.57827   0.00000  Uiso   1.00
H79    H     0.66104   0.35709   0.45491   0.00000  Uiso   1.00
H80    H     0.75929   0.64431   0.56698   0.00000  Uiso   1.00
H81    H     0.31574   0.20879   0.66699   0.00000  Uiso   1.00
H82    H     0.48688   0.23649   0.40689   0.00000  Uiso   1.00
H83    H     0.69406   0.84216   0.64322   0.00000  Uiso   1.00
O84    O     0.49862   0.05687   0.86453   0.00000  Uiso   1.00
O85    O     0.41118   0.09324   0.52329   0.00000  Uiso   1.00
O86    O     0.68299   0.88786   0.83335   0.00000  Uiso   1.00
N87    N     0.33359   0.09526   0.91929   0.00000  Uiso   1.00
N88    N     0.55868   0.12114   0.67611   0.00000  Uiso   1.00
N89    N     0.75233   0.68740   0.89705   0.00000  Uiso   1.00
N90    N     0.29909   0.18474   0.73846   0.00000  Uiso   1.00
N91    N     0.52418   0.21063   0.49528   0.00000  Uiso   1.00
N92    N     0.71783   0.77688   0.71622   0.00000  Uiso   1.00
