data_job_00936
_audit_creation_date              2018-12-19
_audit_creation_method            'Materials Studio'
_symmetry_space_group_name_H-M    'P1'
_symmetry_Int_Tables_number       1
_symmetry_cell_setting            triclinic
loop_
_symmetry_equiv_pos_as_xyz
  x,y,z
_cell_length_a                    17.7688
_cell_length_b                    17.3040
_cell_length_c                    15.9281
_cell_angle_alpha                 90.0000
_cell_angle_beta                  145.2225
_cell_angle_gamma                 90.0000
loop_
_atom_site_label
_atom_site_type_symbol
_atom_site_fract_x
_atom_site_fract_y
_atom_site_fract_z
_atom_site_U_iso_or_equiv
_atom_site_adp_type
_atom_site_occupancy
C1     C     0.10941   0.40028   0.44105   0.00000  Uiso   1.00
C2     C     0.96065   0.40613   0.29186   0.00000  Uiso   1.00
C3     C     0.87149   0.43845   0.26619   0.00000  Uiso   1.00
C4     C     0.73952   0.43822   0.12190   0.00000  Uiso   1.00
C5     C     0.51479   0.45205   0.90766   0.00000  Uiso   1.00
C6     C     0.14345   0.31479   0.46380   0.00000  Uiso   1.00
C7     C     0.20800   0.27032   0.58271   0.00000  Uiso   1.00
C8     C     0.22993   0.19321   0.58315   0.00000  Uiso   1.00
C9     C     0.28909   0.06525   0.63590   0.00000  Uiso   1.00
C10    C     0.17217   0.44025   0.42316   0.00000  Uiso   1.00
C11    C     0.26090   0.50126   0.50792   0.00000  Uiso   1.00
C12    C     0.30703   0.52977   0.47418   0.00000  Uiso   1.00
C13    C     0.41077   0.59661   0.46383   0.00000  Uiso   1.00
C14    C     0.03360   0.34241   0.23044   0.00000  Uiso   1.00
C15    C     0.91948   0.37469   0.17747   0.00000  Uiso   1.00
C16    C     0.78761   0.37442   0.03317   0.00000  Uiso   1.00
C17    C     0.69826   0.40673   0.00729   0.00000  Uiso   1.00
C18    C     0.10228   0.28336   0.34941   0.00000  Uiso   1.00
C19    C     0.12413   0.20630   0.34969   0.00000  Uiso   1.00
C20    C     0.18868   0.16172   0.46855   0.00000  Uiso   1.00
C21    C     0.13099   0.40882   0.30877   0.00000  Uiso   1.00
C22    C     0.17701   0.43724   0.27489   0.00000  Uiso   1.00
C23    C     0.26578   0.49828   0.35958   0.00000  Uiso   1.00
H24    H     0.14147   0.42475   0.53012   0.00000  Uiso   1.00
H25    H     0.90339   0.46276   0.35475   0.00000  Uiso   1.00
H26    H     0.23987   0.29466   0.67122   0.00000  Uiso   1.00
H27    H     0.29274   0.52557   0.59644   0.00000  Uiso   1.00
H28    H     0.62127   0.49101   0.10989   0.00000  Uiso   1.00
H29    H     0.33078   0.13659   0.77720   0.00000  Uiso   1.00
H30    H     0.44228   0.62349   0.61952   0.00000  Uiso   1.00
H31    H     0.00154   0.31794   0.14138   0.00000  Uiso   1.00
H32    H     0.75577   0.35009   0.94467   0.00000  Uiso   1.00
H33    H     0.09225   0.18199   0.26114   0.00000  Uiso   1.00
H34    H     0.14512   0.41290   0.18636   0.00000  Uiso   1.00
H35    H     0.50146   0.39956   0.77705   0.00000  Uiso   1.00
H36    H     0.21098   0.04514   0.44437   0.00000  Uiso   1.00
H37    H     0.32247   0.53204   0.28668   0.00000  Uiso   1.00
O38    O     0.40221   0.46835   0.82109   0.00000  Uiso   1.00
O39    O     0.33309   0.00335   0.69660   0.00000  Uiso   1.00
O40    O     0.47936   0.64216   0.48971   0.00000  Uiso   1.00
N41    N     0.62680   0.46509   0.05854   0.00000  Uiso   1.00
N42    N     0.29014   0.13372   0.68244   0.00000  Uiso   1.00
N43    N     0.39441   0.58892   0.53504   0.00000  Uiso   1.00
N44    N     0.56233   0.41589   0.87945   0.00000  Uiso   1.00
N45    N     0.22567   0.08451   0.50334   0.00000  Uiso   1.00
N46    N     0.32994   0.53972   0.35594   0.00000  Uiso   1.00
C47    C     0.89059   0.90028   0.05895   0.00000  Uiso   1.00
C48    C     0.03935   0.90613   0.20814   0.00000  Uiso   1.00
C49    C     0.12851   0.93845   0.23381   0.00000  Uiso   1.00
C50    C     0.26048   0.93822   0.37810   0.00000  Uiso   1.00
C51    C     0.48521   0.95205   0.59234   0.00000  Uiso   1.00
C52    C     0.85655   0.81479   0.03620   0.00000  Uiso   1.00
C53    C     0.79200   0.77032   0.91729   0.00000  Uiso   1.00
C54    C     0.77007   0.69321   0.91685   0.00000  Uiso   1.00
C55    C     0.71091   0.56525   0.86410   0.00000  Uiso   1.00
C56    C     0.82783   0.94025   0.07684   0.00000  Uiso   1.00
C57    C     0.73910   0.00126   0.99208   0.00000  Uiso   1.00
C58    C     0.69297   0.02977   0.02582   0.00000  Uiso   1.00
C59    C     0.58923   0.09661   0.03617   0.00000  Uiso   1.00
C60    C     0.96640   0.84241   0.26956   0.00000  Uiso   1.00
C61    C     0.08052   0.87469   0.32253   0.00000  Uiso   1.00
C62    C     0.21239   0.87442   0.46683   0.00000  Uiso   1.00
C63    C     0.30174   0.90673   0.49271   0.00000  Uiso   1.00
C64    C     0.89772   0.78336   0.15059   0.00000  Uiso   1.00
C65    C     0.87587   0.70630   0.15031   0.00000  Uiso   1.00
C66    C     0.81132   0.66172   0.03145   0.00000  Uiso   1.00
C67    C     0.86901   0.90882   0.19123   0.00000  Uiso   1.00
C68    C     0.82299   0.93724   0.22511   0.00000  Uiso   1.00
C69    C     0.73422   0.99828   0.14042   0.00000  Uiso   1.00
H70    H     0.85853   0.92475   0.96988   0.00000  Uiso   1.00
H71    H     0.09661   0.96276   0.14525   0.00000  Uiso   1.00
H72    H     0.76013   0.79466   0.82878   0.00000  Uiso   1.00
H73    H     0.70726   0.02557   0.90356   0.00000  Uiso   1.00
H74    H     0.37873   0.99101   0.39011   0.00000  Uiso   1.00
H75    H     0.66922   0.63659   0.72280   0.00000  Uiso   1.00
H76    H     0.55772   0.12349   0.88048   0.00000  Uiso   1.00
H77    H     0.99846   0.81794   0.35862   0.00000  Uiso   1.00
H78    H     0.24423   0.85009   0.55533   0.00000  Uiso   1.00
H79    H     0.90775   0.68199   0.23886   0.00000  Uiso   1.00
H80    H     0.85488   0.91290   0.31364   0.00000  Uiso   1.00
H81    H     0.49854   0.89956   0.72295   0.00000  Uiso   1.00
H82    H     0.78902   0.54514   0.05563   0.00000  Uiso   1.00
H83    H     0.67753   0.03204   0.21332   0.00000  Uiso   1.00
O84    O     0.59779   0.96835   0.67891   0.00000  Uiso   1.00
O85    O     0.66691   0.50335   0.80340   0.00000  Uiso   1.00
O86    O     0.52064   0.14216   0.01029   0.00000  Uiso   1.00
N87    N     0.37320   0.96509   0.44146   0.00000  Uiso   1.00
N88    N     0.70986   0.63372   0.81756   0.00000  Uiso   1.00
N89    N     0.60559   0.08892   0.96496   0.00000  Uiso   1.00
N90    N     0.43767   0.91589   0.62055   0.00000  Uiso   1.00
N91    N     0.77433   0.58451   0.99666   0.00000  Uiso   1.00
N92    N     0.67006   0.03972   0.14406   0.00000  Uiso   1.00
C93    C     0.89059   0.59972   0.55895   0.00000  Uiso   1.00
C94    C     0.03935   0.59387   0.70814   0.00000  Uiso   1.00
C95    C     0.12851   0.56155   0.73381   0.00000  Uiso   1.00
C96    C     0.26048   0.56178   0.87810   0.00000  Uiso   1.00
C97    C     0.48521   0.54795   0.09234   0.00000  Uiso   1.00
C98    C     0.85655   0.68521   0.53620   0.00000  Uiso   1.00
C99    C     0.79200   0.72968   0.41729   0.00000  Uiso   1.00
C100   C     0.77007   0.80679   0.41685   0.00000  Uiso   1.00
C101   C     0.71091   0.93475   0.36410   0.00000  Uiso   1.00
C102   C     0.82783   0.55975   0.57684   0.00000  Uiso   1.00
C103   C     0.73910   0.49874   0.49208   0.00000  Uiso   1.00
C104   C     0.69297   0.47023   0.52582   0.00000  Uiso   1.00
C105   C     0.58923   0.40339   0.53617   0.00000  Uiso   1.00
C106   C     0.96640   0.65759   0.76956   0.00000  Uiso   1.00
C107   C     0.08052   0.62531   0.82253   0.00000  Uiso   1.00
C108   C     0.21239   0.62558   0.96683   0.00000  Uiso   1.00
C109   C     0.30174   0.59327   0.99271   0.00000  Uiso   1.00
C110   C     0.89772   0.71664   0.65059   0.00000  Uiso   1.00
C111   C     0.87587   0.79370   0.65031   0.00000  Uiso   1.00
C112   C     0.81132   0.83828   0.53145   0.00000  Uiso   1.00
C113   C     0.86901   0.59118   0.69123   0.00000  Uiso   1.00
C114   C     0.82299   0.56276   0.72511   0.00000  Uiso   1.00
C115   C     0.73422   0.50172   0.64042   0.00000  Uiso   1.00
H116   H     0.85853   0.57525   0.46988   0.00000  Uiso   1.00
H117   H     0.09661   0.53724   0.64525   0.00000  Uiso   1.00
H118   H     0.76013   0.70534   0.32878   0.00000  Uiso   1.00
H119   H     0.70726   0.47443   0.40356   0.00000  Uiso   1.00
H120   H     0.37873   0.50899   0.89011   0.00000  Uiso   1.00
H121   H     0.66922   0.86341   0.22280   0.00000  Uiso   1.00
H122   H     0.55772   0.37651   0.38048   0.00000  Uiso   1.00
H123   H     0.99846   0.68206   0.85862   0.00000  Uiso   1.00
H124   H     0.24423   0.64991   0.05533   0.00000  Uiso   1.00
H125   H     0.90775   0.81801   0.73886   0.00000  Uiso   1.00
H126   H     0.85488   0.58710   0.81364   0.00000  Uiso   1.00
H127   H     0.49854   0.60044   0.22295   0.00000  Uiso   1.00
H128   H     0.78902   0.95486   0.55563   0.00000  Uiso   1.00
H129   H     0.67753   0.46796   0.71332   0.00000  Uiso   1.00
O130   O     0.59779   0.53165   0.17891   0.00000  Uiso   1.00
O131   O     0.66691   0.99665   0.30340   0.00000  Uiso   1.00
O132   O     0.52064   0.35784   0.51029   0.00000  Uiso   1.00
N133   N     0.37320   0.53491   0.94146   0.00000  Uiso   1.00
N134   N     0.70986   0.86628   0.31756   0.00000  Uiso   1.00
N135   N     0.60559   0.41108   0.46496   0.00000  Uiso   1.00
N136   N     0.43767   0.58411   0.12055   0.00000  Uiso   1.00
N137   N     0.77433   0.91549   0.49666   0.00000  Uiso   1.00
N138   N     0.67006   0.46028   0.64406   0.00000  Uiso   1.00
C139   C     0.10941   0.09972   0.94105   0.00000  Uiso   1.00
C140   C     0.96065   0.09387   0.79186   0.00000  Uiso   1.00
C141   C     0.87149   0.06155   0.76619   0.00000  Uiso   1.00
C142   C     0.73952   0.06178   0.62190   0.00000  Uiso   1.00
C143   C     0.51479   0.04795   0.40766   0.00000  Uiso   1.00
C144   C     0.14345   0.18521   0.96380   0.00000  Uiso   1.00
C145   C     0.20800   0.22968   0.08271   0.00000  Uiso   1.00
C146   C     0.22993   0.30679   0.08315   0.00000  Uiso   1.00
C147   C     0.28909   0.43475   0.13590   0.00000  Uiso   1.00
C148   C     0.17217   0.05975   0.92316   0.00000  Uiso   1.00
C149   C     0.26090   0.99874   0.00792   0.00000  Uiso   1.00
C150   C     0.30703   0.97023   0.97418   0.00000  Uiso   1.00
C151   C     0.41077   0.90339   0.96383   0.00000  Uiso   1.00
C152   C     0.03360   0.15759   0.73044   0.00000  Uiso   1.00
C153   C     0.91948   0.12531   0.67747   0.00000  Uiso   1.00
C154   C     0.78761   0.12558   0.53317   0.00000  Uiso   1.00
C155   C     0.69826   0.09327   0.50729   0.00000  Uiso   1.00
C156   C     0.10228   0.21664   0.84941   0.00000  Uiso   1.00
C157   C     0.12413   0.29370   0.84969   0.00000  Uiso   1.00
C158   C     0.18868   0.33828   0.96855   0.00000  Uiso   1.00
C159   C     0.13099   0.09118   0.80877   0.00000  Uiso   1.00
C160   C     0.17701   0.06276   0.77489   0.00000  Uiso   1.00
C161   C     0.26578   0.00172   0.85958   0.00000  Uiso   1.00
H162   H     0.14147   0.07525   0.03012   0.00000  Uiso   1.00
H163   H     0.90339   0.03724   0.85475   0.00000  Uiso   1.00
H164   H     0.23987   0.20534   0.17122   0.00000  Uiso   1.00
H165   H     0.29274   0.97443   0.09644   0.00000  Uiso   1.00
H166   H     0.62127   0.00899   0.60989   0.00000  Uiso   1.00
H167   H     0.33078   0.36341   0.27720   0.00000  Uiso   1.00
H168   H     0.44228   0.87651   0.11952   0.00000  Uiso   1.00
H169   H     0.00154   0.18206   0.64138   0.00000  Uiso   1.00
H170   H     0.75577   0.14991   0.44467   0.00000  Uiso   1.00
H171   H     0.09225   0.31801   0.76114   0.00000  Uiso   1.00
H172   H     0.14512   0.08710   0.68636   0.00000  Uiso   1.00
H173   H     0.50146   0.10044   0.27705   0.00000  Uiso   1.00
H174   H     0.21098   0.45486   0.94437   0.00000  Uiso   1.00
H175   H     0.32247   0.96796   0.78668   0.00000  Uiso   1.00
O176   O     0.40221   0.03165   0.32109   0.00000  Uiso   1.00
O177   O     0.33309   0.49665   0.19660   0.00000  Uiso   1.00
O178   O     0.47936   0.85784   0.98971   0.00000  Uiso   1.00
N179   N     0.62680   0.03491   0.55854   0.00000  Uiso   1.00
N180   N     0.29014   0.36628   0.18244   0.00000  Uiso   1.00
N181   N     0.39441   0.91108   0.03504   0.00000  Uiso   1.00
N182   N     0.56233   0.08411   0.37945   0.00000  Uiso   1.00
N183   N     0.22567   0.41549   0.00334   0.00000  Uiso   1.00
N184   N     0.32994   0.96028   0.85594   0.00000  Uiso   1.00
