data_job_04475
_audit_creation_date              2018-12-19
_audit_creation_method            'Materials Studio'
_symmetry_space_group_name_H-M    'P1'
_symmetry_Int_Tables_number       1
_symmetry_cell_setting            triclinic
loop_
_symmetry_equiv_pos_as_xyz
  x,y,z
_cell_length_a                    33.4021
_cell_length_b                    7.0425
_cell_length_c                    27.9996
_cell_angle_alpha                 90.0000
_cell_angle_beta                  136.2740
_cell_angle_gamma                 90.0000
loop_
_atom_site_label
_atom_site_type_symbol
_atom_site_fract_x
_atom_site_fract_y
_atom_site_fract_z
_atom_site_U_iso_or_equiv
_atom_site_adp_type
_atom_site_occupancy
C1     C     0.88223   0.42190   0.48820   0.00000  Uiso   1.00
C2     C     0.82530   0.45174   0.46568   0.00000  Uiso   1.00
C3     C     0.78548   0.31114   0.44268   0.00000  Uiso   1.00
C4     C     0.73604   0.36733   0.42447   0.00000  Uiso   1.00
C5     C     0.64902   0.38478   0.38877   0.00000  Uiso   1.00
C6     C     0.88020   0.55373   0.44327   0.00000  Uiso   1.00
C7     C     0.88655   0.49887   0.40143   0.00000  Uiso   1.00
C8     C     0.88332   0.64092   0.36437   0.00000  Uiso   1.00
C9     C     0.88158   0.81672   0.29391   0.00000  Uiso   1.00
C10    C     0.92954   0.49996   0.56152   0.00000  Uiso   1.00
C11    C     0.97739   0.39992   0.61910   0.00000  Uiso   1.00
C12    C     0.01572   0.49673   0.68160   0.00000  Uiso   1.00
C13    C     0.09060   0.58905   0.79474   0.00000  Uiso   1.00
C14    C     0.86522   0.77172   0.49679   0.00000  Uiso   1.00
C15    C     0.81606   0.64175   0.47035   0.00000  Uiso   1.00
C16    C     0.76666   0.69817   0.45218   0.00000  Uiso   1.00
C17    C     0.72678   0.55768   0.42915   0.00000  Uiso   1.00
C18    C     0.87095   0.74373   0.44793   0.00000  Uiso   1.00
C19    C     0.86772   0.88590   0.41093   0.00000  Uiso   1.00
C20    C     0.87406   0.83127   0.36904   0.00000  Uiso   1.00
C21    C     0.92030   0.68997   0.56619   0.00000  Uiso   1.00
C22    C     0.95856   0.78695   0.62860   0.00000  Uiso   1.00
C23    C     0.00646   0.68708   0.68627   0.00000  Uiso   1.00
H24    H     0.88943   0.27398   0.48457   0.00000  Uiso   1.00
H25    H     0.79265   0.16411   0.43907   0.00000  Uiso   1.00
H26    H     0.89370   0.35182   0.39784   0.00000  Uiso   1.00
H27    H     0.98453   0.25289   0.61547   0.00000  Uiso   1.00
H28    H     0.68126   0.12611   0.39066   0.00000  Uiso   1.00
H29    H     0.89437   0.52191   0.30373   0.00000  Uiso   1.00
H30    H     0.08589   0.31329   0.76267   0.00000  Uiso   1.00
H31    H     0.85802   0.91966   0.50042   0.00000  Uiso   1.00
H32    H     0.75952   0.84522   0.45579   0.00000  Uiso   1.00
H33    H     0.86057   0.03293   0.41455   0.00000  Uiso   1.00
H34    H     0.95140   0.93399   0.63219   0.00000  Uiso   1.00
H35    H     0.65437   0.67893   0.40423   0.00000  Uiso   1.00
H36    H     0.86748   0.07473   0.31730   0.00000  Uiso   1.00
H37    H     0.05900   0.86610   0.77623   0.00000  Uiso   1.00
O38    O     0.60358   0.34191   0.36778   0.00000  Uiso   1.00
O39    O     0.88317   0.86119   0.25375   0.00000  Uiso   1.00
O40    O     0.13444   0.58748   0.85585   0.00000  Uiso   1.00
N41    N     0.68846   0.26643   0.39999   0.00000  Uiso   1.00
N42    N     0.88769   0.63647   0.31871   0.00000  Uiso   1.00
N43    N     0.06676   0.44144   0.74777   0.00000  Uiso   1.00
N44    N     0.67399   0.56389   0.40729   0.00000  Uiso   1.00
N45    N     0.87322   0.93394   0.32601   0.00000  Uiso   1.00
N46    N     0.05229   0.73890   0.75507   0.00000  Uiso   1.00
C47    C     0.38223   0.92190   0.48820   0.00000  Uiso   1.00
C48    C     0.32530   0.95174   0.46568   0.00000  Uiso   1.00
C49    C     0.28548   0.81114   0.44268   0.00000  Uiso   1.00
C50    C     0.23604   0.86733   0.42447   0.00000  Uiso   1.00
C51    C     0.14902   0.88478   0.38877   0.00000  Uiso   1.00
C52    C     0.38020   0.05373   0.44327   0.00000  Uiso   1.00
C53    C     0.38655   0.99887   0.40143   0.00000  Uiso   1.00
C54    C     0.38332   0.14092   0.36437   0.00000  Uiso   1.00
C55    C     0.38158   0.31672   0.29391   0.00000  Uiso   1.00
C56    C     0.42954   0.99996   0.56152   0.00000  Uiso   1.00
C57    C     0.47739   0.89992   0.61910   0.00000  Uiso   1.00
C58    C     0.51572   0.99673   0.68160   0.00000  Uiso   1.00
C59    C     0.59060   0.08905   0.79474   0.00000  Uiso   1.00
C60    C     0.36522   0.27172   0.49679   0.00000  Uiso   1.00
C61    C     0.31606   0.14175   0.47035   0.00000  Uiso   1.00
C62    C     0.26666   0.19817   0.45218   0.00000  Uiso   1.00
C63    C     0.22678   0.05768   0.42915   0.00000  Uiso   1.00
C64    C     0.37095   0.24373   0.44793   0.00000  Uiso   1.00
C65    C     0.36772   0.38590   0.41093   0.00000  Uiso   1.00
C66    C     0.37406   0.33127   0.36904   0.00000  Uiso   1.00
C67    C     0.42030   0.18997   0.56619   0.00000  Uiso   1.00
C68    C     0.45856   0.28695   0.62860   0.00000  Uiso   1.00
C69    C     0.50646   0.18708   0.68627   0.00000  Uiso   1.00
H70    H     0.38943   0.77398   0.48457   0.00000  Uiso   1.00
H71    H     0.29265   0.66411   0.43907   0.00000  Uiso   1.00
H72    H     0.39370   0.85182   0.39784   0.00000  Uiso   1.00
H73    H     0.48453   0.75289   0.61547   0.00000  Uiso   1.00
H74    H     0.18126   0.62611   0.39066   0.00000  Uiso   1.00
H75    H     0.39437   0.02191   0.30373   0.00000  Uiso   1.00
H76    H     0.58589   0.81329   0.76267   0.00000  Uiso   1.00
H77    H     0.35802   0.41966   0.50042   0.00000  Uiso   1.00
H78    H     0.25952   0.34522   0.45579   0.00000  Uiso   1.00
H79    H     0.36057   0.53293   0.41455   0.00000  Uiso   1.00
H80    H     0.45140   0.43399   0.63219   0.00000  Uiso   1.00
H81    H     0.15437   0.17893   0.40423   0.00000  Uiso   1.00
H82    H     0.36748   0.57473   0.31730   0.00000  Uiso   1.00
H83    H     0.55900   0.36610   0.77623   0.00000  Uiso   1.00
O84    O     0.10358   0.84191   0.36778   0.00000  Uiso   1.00
O85    O     0.38317   0.36119   0.25375   0.00000  Uiso   1.00
O86    O     0.63444   0.08748   0.85585   0.00000  Uiso   1.00
N87    N     0.18846   0.76643   0.39999   0.00000  Uiso   1.00
N88    N     0.38769   0.13647   0.31871   0.00000  Uiso   1.00
N89    N     0.56676   0.94144   0.74777   0.00000  Uiso   1.00
N90    N     0.17399   0.06389   0.40729   0.00000  Uiso   1.00
N91    N     0.37322   0.43394   0.32601   0.00000  Uiso   1.00
N92    N     0.55229   0.23890   0.75507   0.00000  Uiso   1.00
C93    C     0.11777   0.42190   0.01180   0.00000  Uiso   1.00
C94    C     0.17470   0.45174   0.03432   0.00000  Uiso   1.00
C95    C     0.21452   0.31114   0.05732   0.00000  Uiso   1.00
C96    C     0.26396   0.36733   0.07553   0.00000  Uiso   1.00
C97    C     0.35098   0.38478   0.11123   0.00000  Uiso   1.00
C98    C     0.11980   0.55373   0.05673   0.00000  Uiso   1.00
C99    C     0.11345   0.49887   0.09857   0.00000  Uiso   1.00
C100   C     0.11668   0.64092   0.13563   0.00000  Uiso   1.00
C101   C     0.11842   0.81672   0.20609   0.00000  Uiso   1.00
C102   C     0.07046   0.49996   0.93848   0.00000  Uiso   1.00
C103   C     0.02261   0.39992   0.88090   0.00000  Uiso   1.00
C104   C     0.98428   0.49673   0.81840   0.00000  Uiso   1.00
C105   C     0.90940   0.58905   0.70526   0.00000  Uiso   1.00
C106   C     0.13478   0.77172   0.00321   0.00000  Uiso   1.00
C107   C     0.18394   0.64175   0.02965   0.00000  Uiso   1.00
C108   C     0.23334   0.69817   0.04782   0.00000  Uiso   1.00
C109   C     0.27322   0.55768   0.07085   0.00000  Uiso   1.00
C110   C     0.12905   0.74373   0.05207   0.00000  Uiso   1.00
C111   C     0.13228   0.88590   0.08907   0.00000  Uiso   1.00
C112   C     0.12594   0.83127   0.13096   0.00000  Uiso   1.00
C113   C     0.07970   0.68997   0.93381   0.00000  Uiso   1.00
C114   C     0.04144   0.78695   0.87140   0.00000  Uiso   1.00
C115   C     0.99354   0.68708   0.81373   0.00000  Uiso   1.00
H116   H     0.11057   0.27398   0.01543   0.00000  Uiso   1.00
H117   H     0.20735   0.16411   0.06093   0.00000  Uiso   1.00
H118   H     0.10630   0.35182   0.10216   0.00000  Uiso   1.00
H119   H     0.01547   0.25289   0.88453   0.00000  Uiso   1.00
H120   H     0.31874   0.12611   0.10934   0.00000  Uiso   1.00
H121   H     0.10563   0.52191   0.19627   0.00000  Uiso   1.00
H122   H     0.91411   0.31329   0.73733   0.00000  Uiso   1.00
H123   H     0.14198   0.91966   0.99958   0.00000  Uiso   1.00
H124   H     0.24048   0.84522   0.04421   0.00000  Uiso   1.00
H125   H     0.13943   0.03293   0.08545   0.00000  Uiso   1.00
H126   H     0.04860   0.93399   0.86781   0.00000  Uiso   1.00
H127   H     0.34563   0.67893   0.09577   0.00000  Uiso   1.00
H128   H     0.13252   0.07473   0.18270   0.00000  Uiso   1.00
H129   H     0.94100   0.86610   0.72377   0.00000  Uiso   1.00
O130   O     0.39642   0.34191   0.13222   0.00000  Uiso   1.00
O131   O     0.11683   0.86119   0.24625   0.00000  Uiso   1.00
O132   O     0.86556   0.58748   0.64415   0.00000  Uiso   1.00
N133   N     0.31154   0.26643   0.10001   0.00000  Uiso   1.00
N134   N     0.11231   0.63647   0.18129   0.00000  Uiso   1.00
N135   N     0.93324   0.44144   0.75223   0.00000  Uiso   1.00
N136   N     0.32601   0.56389   0.09271   0.00000  Uiso   1.00
N137   N     0.12678   0.93394   0.17399   0.00000  Uiso   1.00
N138   N     0.94771   0.73890   0.74493   0.00000  Uiso   1.00
C139   C     0.61777   0.92190   0.01180   0.00000  Uiso   1.00
C140   C     0.67470   0.95174   0.03432   0.00000  Uiso   1.00
C141   C     0.71452   0.81114   0.05732   0.00000  Uiso   1.00
C142   C     0.76396   0.86733   0.07553   0.00000  Uiso   1.00
C143   C     0.85098   0.88478   0.11123   0.00000  Uiso   1.00
C144   C     0.61980   0.05373   0.05673   0.00000  Uiso   1.00
C145   C     0.61345   0.99887   0.09857   0.00000  Uiso   1.00
C146   C     0.61668   0.14092   0.13563   0.00000  Uiso   1.00
C147   C     0.61842   0.31672   0.20609   0.00000  Uiso   1.00
C148   C     0.57046   0.99996   0.93848   0.00000  Uiso   1.00
C149   C     0.52261   0.89992   0.88090   0.00000  Uiso   1.00
C150   C     0.48428   0.99673   0.81840   0.00000  Uiso   1.00
C151   C     0.40940   0.08905   0.70526   0.00000  Uiso   1.00
C152   C     0.63478   0.27172   0.00321   0.00000  Uiso   1.00
C153   C     0.68394   0.14175   0.02965   0.00000  Uiso   1.00
C154   C     0.73334   0.19817   0.04782   0.00000  Uiso   1.00
C155   C     0.77322   0.05768   0.07085   0.00000  Uiso   1.00
C156   C     0.62905   0.24373   0.05207   0.00000  Uiso   1.00
C157   C     0.63228   0.38590   0.08907   0.00000  Uiso   1.00
C158   C     0.62594   0.33127   0.13096   0.00000  Uiso   1.00
C159   C     0.57970   0.18997   0.93381   0.00000  Uiso   1.00
C160   C     0.54144   0.28695   0.87140   0.00000  Uiso   1.00
C161   C     0.49354   0.18708   0.81373   0.00000  Uiso   1.00
H162   H     0.61057   0.77398   0.01543   0.00000  Uiso   1.00
H163   H     0.70735   0.66411   0.06093   0.00000  Uiso   1.00
H164   H     0.60630   0.85182   0.10216   0.00000  Uiso   1.00
H165   H     0.51547   0.75289   0.88453   0.00000  Uiso   1.00
H166   H     0.81874   0.62611   0.10934   0.00000  Uiso   1.00
H167   H     0.60563   0.02191   0.19627   0.00000  Uiso   1.00
H168   H     0.41411   0.81329   0.73733   0.00000  Uiso   1.00
H169   H     0.64198   0.41966   0.99958   0.00000  Uiso   1.00
H170   H     0.74048   0.34522   0.04421   0.00000  Uiso   1.00
H171   H     0.63943   0.53293   0.08545   0.00000  Uiso   1.00
H172   H     0.54860   0.43399   0.86781   0.00000  Uiso   1.00
H173   H     0.84563   0.17893   0.09577   0.00000  Uiso   1.00
H174   H     0.63252   0.57473   0.18270   0.00000  Uiso   1.00
H175   H     0.44100   0.36610   0.72377   0.00000  Uiso   1.00
O176   O     0.89642   0.84191   0.13222   0.00000  Uiso   1.00
O177   O     0.61683   0.36119   0.24625   0.00000  Uiso   1.00
O178   O     0.36556   0.08748   0.64415   0.00000  Uiso   1.00
N179   N     0.81154   0.76643   0.10001   0.00000  Uiso   1.00
N180   N     0.61231   0.13647   0.18129   0.00000  Uiso   1.00
N181   N     0.43324   0.94144   0.75223   0.00000  Uiso   1.00
N182   N     0.82601   0.06389   0.09271   0.00000  Uiso   1.00
N183   N     0.62678   0.43394   0.17399   0.00000  Uiso   1.00
N184   N     0.44771   0.23890   0.74493   0.00000  Uiso   1.00
C185   C     0.11777   0.57810   0.51180   0.00000  Uiso   1.00
C186   C     0.17470   0.54826   0.53432   0.00000  Uiso   1.00
C187   C     0.21452   0.68886   0.55732   0.00000  Uiso   1.00
C188   C     0.26396   0.63267   0.57553   0.00000  Uiso   1.00
C189   C     0.35098   0.61522   0.61123   0.00000  Uiso   1.00
C190   C     0.11980   0.44627   0.55673   0.00000  Uiso   1.00
C191   C     0.11345   0.50113   0.59857   0.00000  Uiso   1.00
C192   C     0.11668   0.35908   0.63563   0.00000  Uiso   1.00
C193   C     0.11842   0.18328   0.70609   0.00000  Uiso   1.00
C194   C     0.07046   0.50004   0.43848   0.00000  Uiso   1.00
C195   C     0.02261   0.60008   0.38090   0.00000  Uiso   1.00
C196   C     0.98428   0.50327   0.31840   0.00000  Uiso   1.00
C197   C     0.90940   0.41095   0.20526   0.00000  Uiso   1.00
C198   C     0.13478   0.22828   0.50321   0.00000  Uiso   1.00
C199   C     0.18394   0.35825   0.52965   0.00000  Uiso   1.00
C200   C     0.23334   0.30183   0.54782   0.00000  Uiso   1.00
C201   C     0.27322   0.44232   0.57085   0.00000  Uiso   1.00
C202   C     0.12905   0.25627   0.55207   0.00000  Uiso   1.00
C203   C     0.13228   0.11410   0.58907   0.00000  Uiso   1.00
C204   C     0.12594   0.16873   0.63096   0.00000  Uiso   1.00
C205   C     0.07970   0.31003   0.43381   0.00000  Uiso   1.00
C206   C     0.04144   0.21305   0.37140   0.00000  Uiso   1.00
C207   C     0.99354   0.31292   0.31373   0.00000  Uiso   1.00
H208   H     0.11057   0.72602   0.51543   0.00000  Uiso   1.00
H209   H     0.20735   0.83589   0.56093   0.00000  Uiso   1.00
H210   H     0.10630   0.64818   0.60216   0.00000  Uiso   1.00
H211   H     0.01547   0.74711   0.38453   0.00000  Uiso   1.00
H212   H     0.31874   0.87389   0.60934   0.00000  Uiso   1.00
H213   H     0.10563   0.47809   0.69627   0.00000  Uiso   1.00
H214   H     0.91411   0.68671   0.23733   0.00000  Uiso   1.00
H215   H     0.14198   0.08034   0.49958   0.00000  Uiso   1.00
H216   H     0.24048   0.15478   0.54421   0.00000  Uiso   1.00
H217   H     0.13943   0.96707   0.58545   0.00000  Uiso   1.00
H218   H     0.04860   0.06601   0.36781   0.00000  Uiso   1.00
H219   H     0.34563   0.32107   0.59577   0.00000  Uiso   1.00
H220   H     0.13252   0.92527   0.68270   0.00000  Uiso   1.00
H221   H     0.94100   0.13390   0.22377   0.00000  Uiso   1.00
O222   O     0.39642   0.65809   0.63222   0.00000  Uiso   1.00
O223   O     0.11683   0.13881   0.74625   0.00000  Uiso   1.00
O224   O     0.86556   0.41252   0.14415   0.00000  Uiso   1.00
N225   N     0.31154   0.73357   0.60001   0.00000  Uiso   1.00
N226   N     0.11231   0.36353   0.68129   0.00000  Uiso   1.00
N227   N     0.93324   0.55856   0.25223   0.00000  Uiso   1.00
N228   N     0.32601   0.43611   0.59271   0.00000  Uiso   1.00
N229   N     0.12678   0.06606   0.67399   0.00000  Uiso   1.00
N230   N     0.94771   0.26110   0.24493   0.00000  Uiso   1.00
C231   C     0.61777   0.07810   0.51180   0.00000  Uiso   1.00
C232   C     0.67470   0.04826   0.53432   0.00000  Uiso   1.00
C233   C     0.71452   0.18886   0.55732   0.00000  Uiso   1.00
C234   C     0.76396   0.13267   0.57553   0.00000  Uiso   1.00
C235   C     0.85098   0.11522   0.61123   0.00000  Uiso   1.00
C236   C     0.61980   0.94627   0.55673   0.00000  Uiso   1.00
C237   C     0.61345   0.00113   0.59857   0.00000  Uiso   1.00
C238   C     0.61668   0.85908   0.63563   0.00000  Uiso   1.00
C239   C     0.61842   0.68328   0.70609   0.00000  Uiso   1.00
C240   C     0.57046   0.00004   0.43848   0.00000  Uiso   1.00
C241   C     0.52261   0.10008   0.38090   0.00000  Uiso   1.00
C242   C     0.48428   0.00327   0.31840   0.00000  Uiso   1.00
C243   C     0.40940   0.91095   0.20526   0.00000  Uiso   1.00
C244   C     0.63478   0.72828   0.50321   0.00000  Uiso   1.00
C245   C     0.68394   0.85825   0.52965   0.00000  Uiso   1.00
C246   C     0.73334   0.80183   0.54782   0.00000  Uiso   1.00
C247   C     0.77322   0.94232   0.57085   0.00000  Uiso   1.00
C248   C     0.62905   0.75627   0.55207   0.00000  Uiso   1.00
C249   C     0.63228   0.61410   0.58907   0.00000  Uiso   1.00
C250   C     0.62594   0.66873   0.63096   0.00000  Uiso   1.00
C251   C     0.57970   0.81003   0.43381   0.00000  Uiso   1.00
C252   C     0.54144   0.71305   0.37140   0.00000  Uiso   1.00
C253   C     0.49354   0.81292   0.31373   0.00000  Uiso   1.00
H254   H     0.61057   0.22602   0.51543   0.00000  Uiso   1.00
H255   H     0.70735   0.33589   0.56093   0.00000  Uiso   1.00
H256   H     0.60630   0.14818   0.60216   0.00000  Uiso   1.00
H257   H     0.51547   0.24711   0.38453   0.00000  Uiso   1.00
H258   H     0.81874   0.37389   0.60934   0.00000  Uiso   1.00
H259   H     0.60563   0.97809   0.69627   0.00000  Uiso   1.00
H260   H     0.41411   0.18671   0.23733   0.00000  Uiso   1.00
H261   H     0.64198   0.58034   0.49958   0.00000  Uiso   1.00
H262   H     0.74048   0.65478   0.54421   0.00000  Uiso   1.00
H263   H     0.63943   0.46707   0.58545   0.00000  Uiso   1.00
H264   H     0.54860   0.56601   0.36781   0.00000  Uiso   1.00
H265   H     0.84563   0.82107   0.59577   0.00000  Uiso   1.00
H266   H     0.63252   0.42527   0.68270   0.00000  Uiso   1.00
H267   H     0.44100   0.63390   0.22377   0.00000  Uiso   1.00
O268   O     0.89642   0.15809   0.63222   0.00000  Uiso   1.00
O269   O     0.61683   0.63881   0.74625   0.00000  Uiso   1.00
O270   O     0.36556   0.91252   0.14415   0.00000  Uiso   1.00
N271   N     0.81154   0.23357   0.60001   0.00000  Uiso   1.00
N272   N     0.61231   0.86353   0.68129   0.00000  Uiso   1.00
N273   N     0.43324   0.05856   0.25223   0.00000  Uiso   1.00
N274   N     0.82601   0.93611   0.59271   0.00000  Uiso   1.00
N275   N     0.62678   0.56606   0.67399   0.00000  Uiso   1.00
N276   N     0.44771   0.76110   0.24493   0.00000  Uiso   1.00
C277   C     0.88223   0.57810   0.98820   0.00000  Uiso   1.00
C278   C     0.82530   0.54826   0.96568   0.00000  Uiso   1.00
C279   C     0.78548   0.68886   0.94268   0.00000  Uiso   1.00
C280   C     0.73604   0.63267   0.92447   0.00000  Uiso   1.00
C281   C     0.64902   0.61522   0.88877   0.00000  Uiso   1.00
C282   C     0.88020   0.44627   0.94327   0.00000  Uiso   1.00
C283   C     0.88655   0.50113   0.90143   0.00000  Uiso   1.00
C284   C     0.88332   0.35908   0.86437   0.00000  Uiso   1.00
C285   C     0.88158   0.18328   0.79391   0.00000  Uiso   1.00
C286   C     0.92954   0.50004   0.06152   0.00000  Uiso   1.00
C287   C     0.97739   0.60008   0.11910   0.00000  Uiso   1.00
C288   C     0.01572   0.50327   0.18160   0.00000  Uiso   1.00
C289   C     0.09060   0.41095   0.29474   0.00000  Uiso   1.00
C290   C     0.86522   0.22828   0.99679   0.00000  Uiso   1.00
C291   C     0.81606   0.35825   0.97035   0.00000  Uiso   1.00
C292   C     0.76666   0.30183   0.95218   0.00000  Uiso   1.00
C293   C     0.72678   0.44232   0.92915   0.00000  Uiso   1.00
C294   C     0.87095   0.25627   0.94793   0.00000  Uiso   1.00
C295   C     0.86772   0.11410   0.91093   0.00000  Uiso   1.00
C296   C     0.87406   0.16873   0.86904   0.00000  Uiso   1.00
C297   C     0.92030   0.31003   0.06619   0.00000  Uiso   1.00
C298   C     0.95856   0.21305   0.12860   0.00000  Uiso   1.00
C299   C     0.00646   0.31292   0.18627   0.00000  Uiso   1.00
H300   H     0.88943   0.72602   0.98457   0.00000  Uiso   1.00
H301   H     0.79265   0.83589   0.93907   0.00000  Uiso   1.00
H302   H     0.89370   0.64818   0.89784   0.00000  Uiso   1.00
H303   H     0.98453   0.74711   0.11547   0.00000  Uiso   1.00
H304   H     0.68126   0.87389   0.89066   0.00000  Uiso   1.00
H305   H     0.89437   0.47809   0.80373   0.00000  Uiso   1.00
H306   H     0.08589   0.68671   0.26267   0.00000  Uiso   1.00
H307   H     0.85802   0.08034   0.00042   0.00000  Uiso   1.00
H308   H     0.75952   0.15478   0.95579   0.00000  Uiso   1.00
H309   H     0.86057   0.96707   0.91455   0.00000  Uiso   1.00
H310   H     0.95140   0.06601   0.13219   0.00000  Uiso   1.00
H311   H     0.65437   0.32107   0.90423   0.00000  Uiso   1.00
H312   H     0.86748   0.92527   0.81730   0.00000  Uiso   1.00
H313   H     0.05900   0.13390   0.27623   0.00000  Uiso   1.00
O314   O     0.60358   0.65809   0.86778   0.00000  Uiso   1.00
O315   O     0.88317   0.13881   0.75375   0.00000  Uiso   1.00
O316   O     0.13444   0.41252   0.35585   0.00000  Uiso   1.00
N317   N     0.68846   0.73357   0.89999   0.00000  Uiso   1.00
N318   N     0.88769   0.36353   0.81871   0.00000  Uiso   1.00
N319   N     0.06676   0.55856   0.24777   0.00000  Uiso   1.00
N320   N     0.67399   0.43611   0.90729   0.00000  Uiso   1.00
N321   N     0.87322   0.06606   0.82601   0.00000  Uiso   1.00
N322   N     0.05229   0.26110   0.25507   0.00000  Uiso   1.00
C323   C     0.38223   0.07810   0.98820   0.00000  Uiso   1.00
C324   C     0.32530   0.04826   0.96568   0.00000  Uiso   1.00
C325   C     0.28548   0.18886   0.94268   0.00000  Uiso   1.00
C326   C     0.23604   0.13267   0.92447   0.00000  Uiso   1.00
C327   C     0.14902   0.11522   0.88877   0.00000  Uiso   1.00
C328   C     0.38020   0.94627   0.94327   0.00000  Uiso   1.00
C329   C     0.38655   0.00113   0.90143   0.00000  Uiso   1.00
C330   C     0.38332   0.85908   0.86437   0.00000  Uiso   1.00
C331   C     0.38158   0.68328   0.79391   0.00000  Uiso   1.00
C332   C     0.42954   0.00004   0.06152   0.00000  Uiso   1.00
C333   C     0.47739   0.10008   0.11910   0.00000  Uiso   1.00
C334   C     0.51572   0.00327   0.18160   0.00000  Uiso   1.00
C335   C     0.59060   0.91095   0.29474   0.00000  Uiso   1.00
C336   C     0.36522   0.72828   0.99679   0.00000  Uiso   1.00
C337   C     0.31606   0.85825   0.97035   0.00000  Uiso   1.00
C338   C     0.26666   0.80183   0.95218   0.00000  Uiso   1.00
C339   C     0.22678   0.94232   0.92915   0.00000  Uiso   1.00
C340   C     0.37095   0.75627   0.94793   0.00000  Uiso   1.00
C341   C     0.36772   0.61410   0.91093   0.00000  Uiso   1.00
C342   C     0.37406   0.66873   0.86904   0.00000  Uiso   1.00
C343   C     0.42030   0.81003   0.06619   0.00000  Uiso   1.00
C344   C     0.45856   0.71305   0.12860   0.00000  Uiso   1.00
C345   C     0.50646   0.81292   0.18627   0.00000  Uiso   1.00
H346   H     0.38943   0.22602   0.98457   0.00000  Uiso   1.00
H347   H     0.29265   0.33589   0.93907   0.00000  Uiso   1.00
H348   H     0.39370   0.14818   0.89784   0.00000  Uiso   1.00
H349   H     0.48453   0.24711   0.11547   0.00000  Uiso   1.00
H350   H     0.18126   0.37389   0.89066   0.00000  Uiso   1.00
H351   H     0.39437   0.97809   0.80373   0.00000  Uiso   1.00
H352   H     0.58589   0.18671   0.26267   0.00000  Uiso   1.00
H353   H     0.35802   0.58034   0.00042   0.00000  Uiso   1.00
H354   H     0.25952   0.65478   0.95579   0.00000  Uiso   1.00
H355   H     0.36057   0.46707   0.91455   0.00000  Uiso   1.00
H356   H     0.45140   0.56601   0.13219   0.00000  Uiso   1.00
H357   H     0.15437   0.82107   0.90423   0.00000  Uiso   1.00
H358   H     0.36748   0.42527   0.81730   0.00000  Uiso   1.00
H359   H     0.55900   0.63390   0.27623   0.00000  Uiso   1.00
O360   O     0.10358   0.15809   0.86778   0.00000  Uiso   1.00
O361   O     0.38317   0.63881   0.75375   0.00000  Uiso   1.00
O362   O     0.63444   0.91252   0.35585   0.00000  Uiso   1.00
N363   N     0.18846   0.23357   0.89999   0.00000  Uiso   1.00
N364   N     0.38769   0.86353   0.81871   0.00000  Uiso   1.00
N365   N     0.56676   0.05856   0.24777   0.00000  Uiso   1.00
N366   N     0.17399   0.93611   0.90729   0.00000  Uiso   1.00
N367   N     0.37322   0.56606   0.82601   0.00000  Uiso   1.00
N368   N     0.55229   0.76110   0.25507   0.00000  Uiso   1.00
