data_job_06571
_audit_creation_date              2018-12-19
_audit_creation_method            'Materials Studio'
_symmetry_space_group_name_H-M    'P1'
_symmetry_Int_Tables_number       1
_symmetry_cell_setting            triclinic
loop_
_symmetry_equiv_pos_as_xyz
  x,y,z
_cell_length_a                    19.6639
_cell_length_b                    19.3406
_cell_length_c                    21.1346
_cell_angle_alpha                 82.6087
_cell_angle_beta                  82.2579
_cell_angle_gamma                 71.7012
loop_
_atom_site_label
_atom_site_type_symbol
_atom_site_fract_x
_atom_site_fract_y
_atom_site_fract_z
_atom_site_U_iso_or_equiv
_atom_site_adp_type
_atom_site_occupancy
C1     C     0.48581   0.34003   0.88994   0.00000  Uiso   1.00
C2     C     0.53030   0.39246   0.86917   0.00000  Uiso   1.00
C3     C     0.56326   0.42032   0.90957   0.00000  Uiso   1.00
C4     C     0.60154   0.46751   0.88124   0.00000  Uiso   1.00
C5     C     0.66982   0.54612   0.85909   0.00000  Uiso   1.00
C6     C     0.41260   0.37738   0.86501   0.00000  Uiso   1.00
C7     C     0.34659   0.39253   0.90191   0.00000  Uiso   1.00
C8     C     0.28579   0.42702   0.87007   0.00000  Uiso   1.00
C9     C     0.17133   0.48215   0.84144   0.00000  Uiso   1.00
C10    C     0.52096   0.27376   0.85193   0.00000  Uiso   1.00
C11    C     0.54604   0.20179   0.87783   0.00000  Uiso   1.00
C12    C     0.57645   0.14903   0.83497   0.00000  Uiso   1.00
C13    C     0.63023   0.04328   0.78604   0.00000  Uiso   1.00
C14    C     0.49520   0.37431   0.76778   0.00000  Uiso   1.00
C15    C     0.53540   0.41108   0.80281   0.00000  Uiso   1.00
C16    C     0.57364   0.45824   0.77441   0.00000  Uiso   1.00
C17    C     0.60665   0.48616   0.81477   0.00000  Uiso   1.00
C18    C     0.41770   0.39599   0.79865   0.00000  Uiso   1.00
C19    C     0.35698   0.43046   0.76675   0.00000  Uiso   1.00
C20    C     0.29089   0.44567   0.80359   0.00000  Uiso   1.00
C21    C     0.52606   0.29237   0.78557   0.00000  Uiso   1.00
C22    C     0.55643   0.23971   0.74267   0.00000  Uiso   1.00
C23    C     0.58156   0.16768   0.76850   0.00000  Uiso   1.00
H24    H     0.48184   0.32554   0.94160   0.00000  Uiso   1.00
H25    H     0.55929   0.40590   0.96092   0.00000  Uiso   1.00
H26    H     0.34266   0.37811   0.95325   0.00000  Uiso   1.00
H27    H     0.54209   0.18740   0.92918   0.00000  Uiso   1.00
H28    H     0.64739   0.50323   0.95308   0.00000  Uiso   1.00
H29    H     0.19061   0.44462   0.93692   0.00000  Uiso   1.00
H30    H     0.61113   0.04245   0.88615   0.00000  Uiso   1.00
H31    H     0.49917   0.38880   0.71611   0.00000  Uiso   1.00
H32    H     0.57758   0.47264   0.72306   0.00000  Uiso   1.00
H33    H     0.36094   0.44485   0.71540   0.00000  Uiso   1.00
H34    H     0.56037   0.25414   0.69132   0.00000  Uiso   1.00
H35    H     0.66223   0.55740   0.76003   0.00000  Uiso   1.00
H36    H     0.20545   0.49878   0.74387   0.00000  Uiso   1.00
H37    H     0.62597   0.09662   0.69310   0.00000  Uiso   1.00
O38    O     0.70606   0.58434   0.86520   0.00000  Uiso   1.00
O39    O     0.10678   0.50743   0.84399   0.00000  Uiso   1.00
O40    O     0.65850   0.97980   0.77738   0.00000  Uiso   1.00
N41    N     0.64014   0.50446   0.90669   0.00000  Uiso   1.00
N42    N     0.21307   0.44967   0.89158   0.00000  Uiso   1.00
N43    N     0.60621   0.07368   0.84412   0.00000  Uiso   1.00
N44    N     0.64812   0.53361   0.80281   0.00000  Uiso   1.00
N45    N     0.22106   0.47882   0.78770   0.00000  Uiso   1.00
N46    N     0.61419   0.10283   0.74024   0.00000  Uiso   1.00
C47    C     0.78554   0.51980   0.45193   0.00000  Uiso   1.00
C48    C     0.81711   0.56485   0.48705   0.00000  Uiso   1.00
C49    C     0.88641   0.57043   0.47473   0.00000  Uiso   1.00
C50    C     0.90497   0.61440   0.51215   0.00000  Uiso   1.00
C51    C     0.96145   0.67869   0.55940   0.00000  Uiso   1.00
C52    C     0.75980   0.46820   0.50341   0.00000  Uiso   1.00
C53    C     0.78090   0.39252   0.50483   0.00000  Uiso   1.00
C54    C     0.75121   0.35513   0.55602   0.00000  Uiso   1.00
C55    C     0.71867   0.26937   0.62864   0.00000  Uiso   1.00
C56    C     0.71787   0.57305   0.42590   0.00000  Uiso   1.00
C57    C     0.70371   0.58553   0.36215   0.00000  Uiso   1.00
C58    C     0.63871   0.63641   0.34808   0.00000  Uiso   1.00
C59    C     0.54108   0.71346   0.30036   0.00000  Uiso   1.00
C60    C     0.69528   0.58797   0.54030   0.00000  Uiso   1.00
C61    C     0.76808   0.60187   0.53505   0.00000  Uiso   1.00
C62    C     0.78654   0.64585   0.57250   0.00000  Uiso   1.00
C63    C     0.85585   0.65150   0.56023   0.00000  Uiso   1.00
C64    C     0.71077   0.50522   0.55141   0.00000  Uiso   1.00
C65    C     0.68103   0.46794   0.60260   0.00000  Uiso   1.00
C66    C     0.70209   0.39222   0.60410   0.00000  Uiso   1.00
C67    C     0.66884   0.61008   0.47390   0.00000  Uiso   1.00
C68    C     0.60385   0.66095   0.45992   0.00000  Uiso   1.00
C69    C     0.58959   0.67350   0.39617   0.00000  Uiso   1.00
H70    H     0.82372   0.49097   0.41457   0.00000  Uiso   1.00
H71    H     0.92434   0.54176   0.43759   0.00000  Uiso   1.00
H72    H     0.81884   0.36388   0.46768   0.00000  Uiso   1.00
H73    H     0.74167   0.55686   0.32503   0.00000  Uiso   1.00
H74    H     0.01428   0.61439   0.48429   0.00000  Uiso   1.00
H75    H     0.79182   0.23931   0.54773   0.00000  Uiso   1.00
H76    H     0.62908   0.64625   0.24691   0.00000  Uiso   1.00
H77    H     0.65710   0.61679   0.57767   0.00000  Uiso   1.00
H78    H     0.74858   0.67450   0.60964   0.00000  Uiso   1.00
H79    H     0.64309   0.49661   0.63973   0.00000  Uiso   1.00
H80    H     0.56592   0.68959   0.49708   0.00000  Uiso   1.00
H81    H     0.87163   0.72211   0.62393   0.00000  Uiso   1.00
H82    H     0.64917   0.34704   0.68738   0.00000  Uiso   1.00
H83    H     0.48643   0.75398   0.38656   0.00000  Uiso   1.00
O84    O     0.00615   0.70392   0.57221   0.00000  Uiso   1.00
O85    O     0.71428   0.21184   0.65544   0.00000  Uiso   1.00
O86    O     0.50078   0.74573   0.26077   0.00000  Uiso   1.00
N87    N     0.96815   0.63183   0.51276   0.00000  Uiso   1.00
N88    N     0.76017   0.28116   0.57208   0.00000  Uiso   1.00
N89    N     0.60802   0.66160   0.29084   0.00000  Uiso   1.00
N90    N     0.89139   0.68980   0.58790   0.00000  Uiso   1.00
N91    N     0.68341   0.33913   0.64722   0.00000  Uiso   1.00
N92    N     0.53126   0.71957   0.36598   0.00000  Uiso   1.00
C93    C     0.32151   0.74352   0.60734   0.00000  Uiso   1.00
C94    C     0.35629   0.77114   0.65507   0.00000  Uiso   1.00
C95    C     0.36477   0.84022   0.65091   0.00000  Uiso   1.00
C96    C     0.39797   0.85488   0.69940   0.00000  Uiso   1.00
C97    C     0.44839   0.90576   0.76578   0.00000  Uiso   1.00
C98    C     0.37755   0.67437   0.58487   0.00000  Uiso   1.00
C99    C     0.40390   0.66207   0.52169   0.00000  Uiso   1.00
C100   C     0.45497   0.59526   0.51108   0.00000  Uiso   1.00
C101   C     0.53836   0.49587   0.46847   0.00000  Uiso   1.00
C102   C     0.26074   0.71871   0.64614   0.00000  Uiso   1.00
C103   C     0.18888   0.74368   0.63445   0.00000  Uiso   1.00
C104   C     0.14161   0.71418   0.67542   0.00000  Uiso   1.00
C105   C     0.04364   0.68364   0.72793   0.00000  Uiso   1.00
C106   C     0.36537   0.64672   0.70084   0.00000  Uiso   1.00
C107   C     0.38012   0.71857   0.70586   0.00000  Uiso   1.00
C108   C     0.41330   0.73312   0.75437   0.00000  Uiso   1.00
C109   C     0.42183   0.80221   0.75029   0.00000  Uiso   1.00
C110   C     0.40137   0.62179   0.63566   0.00000  Uiso   1.00
C111   C     0.45242   0.55498   0.62514   0.00000  Uiso   1.00
C112   C     0.47884   0.54259   0.56196   0.00000  Uiso   1.00
C113   C     0.28457   0.66613   0.69693   0.00000  Uiso   1.00
C114   C     0.23740   0.63659   0.73792   0.00000  Uiso   1.00
C115   C     0.16548   0.66151   0.72630   0.00000  Uiso   1.00
H116   H     0.30296   0.78445   0.56779   0.00000  Uiso   1.00
H117   H     0.34634   0.88089   0.61160   0.00000  Uiso   1.00
H118   H     0.38544   0.70276   0.48239   0.00000  Uiso   1.00
H119   H     0.17046   0.78436   0.59515   0.00000  Uiso   1.00
H120   H     0.40495   0.96461   0.68255   0.00000  Uiso   1.00
H121   H     0.48740   0.58902   0.41012   0.00000  Uiso   1.00
H122   H     0.03406   0.76108   0.64787   0.00000  Uiso   1.00
H123   H     0.38392   0.60579   0.74039   0.00000  Uiso   1.00
H124   H     0.43173   0.69243   0.79367   0.00000  Uiso   1.00
H125   H     0.47084   0.51430   0.66446   0.00000  Uiso   1.00
H126   H     0.25586   0.59590   0.77721   0.00000  Uiso   1.00
H127   H     0.47427   0.81165   0.83033   0.00000  Uiso   1.00
H128   H     0.55671   0.43606   0.55789   0.00000  Uiso   1.00
H129   H     0.10337   0.60812   0.79565   0.00000  Uiso   1.00
O130   O     0.46963   0.94834   0.78836   0.00000  Uiso   1.00
O131   O     0.57778   0.45558   0.43094   0.00000  Uiso   1.00
O132   O     0.98301   0.68132   0.74287   0.00000  Uiso   1.00
N133   N     0.41469   0.91673   0.71003   0.00000  Uiso   1.00
N134   N     0.49178   0.56558   0.45531   0.00000  Uiso   1.00
N135   N     0.06795   0.72643   0.67759   0.00000  Uiso   1.00
N136   N     0.45199   0.83442   0.78954   0.00000  Uiso   1.00
N137   N     0.52908   0.48327   0.53483   0.00000  Uiso   1.00
N138   N     0.10525   0.64412   0.75710   0.00000  Uiso   1.00
C139   C     0.96516   0.28426   0.03012   0.00000  Uiso   1.00
C140   C     0.98333   0.35545   0.02937   0.00000  Uiso   1.00
C141   C     0.97179   0.41213   0.98075   0.00000  Uiso   1.00
C142   C     0.99210   0.47266   0.98913   0.00000  Uiso   1.00
C143   C     0.01560   0.58266   0.97961   0.00000  Uiso   1.00
C144   C     0.91577   0.27907   0.09152   0.00000  Uiso   1.00
C145   C     0.84743   0.27151   0.09515   0.00000  Uiso   1.00
C146   C     0.81087   0.26774   0.15584   0.00000  Uiso   1.00
C147   C     0.72951   0.25910   0.24281   0.00000  Uiso   1.00
C148   C     0.03517   0.22287   0.03891   0.00000  Uiso   1.00
C149   C     0.06721   0.16805   0.99832   0.00000  Uiso   1.00
C150   C     0.13118   0.11695   0.01473   0.00000  Uiso   1.00
C151   C     0.23520   0.02105   0.02001   0.00000  Uiso   1.00
C152   C     0.02178   0.29097   0.13145   0.00000  Uiso   1.00
C153   C     0.01408   0.35909   0.08442   0.00000  Uiso   1.00
C154   C     0.03442   0.41956   0.09286   0.00000  Uiso   1.00
C155   C     0.02291   0.47632   0.04426   0.00000  Uiso   1.00
C156   C     0.94652   0.28271   0.14656   0.00000  Uiso   1.00
C157   C     0.91007   0.27894   0.20726   0.00000  Uiso   1.00
C158   C     0.84168   0.27139   0.21098   0.00000  Uiso   1.00
C159   C     0.06593   0.22651   0.09395   0.00000  Uiso   1.00
C160   C     0.12985   0.17548   0.11043   0.00000  Uiso   1.00
C161   C     0.16198   0.12060   0.06987   0.00000  Uiso   1.00
H162   H     0.94122   0.28142   0.98727   0.00000  Uiso   1.00
H163   H     0.94798   0.40929   0.93817   0.00000  Uiso   1.00
H164   H     0.82365   0.26868   0.05255   0.00000  Uiso   1.00
H165   H     0.04340   0.16524   0.95573   0.00000  Uiso   1.00
H166   H     0.96901   0.55267   0.90801   0.00000  Uiso   1.00
H167   H     0.70686   0.25618   0.14919   0.00000  Uiso   1.00
H168   H     0.17024   0.03805   0.94503   0.00000  Uiso   1.00
H169   H     0.04572   0.29381   0.17431   0.00000  Uiso   1.00
H170   H     0.05822   0.42236   0.13546   0.00000  Uiso   1.00
H171   H     0.93388   0.28176   0.24984   0.00000  Uiso   1.00
H172   H     0.15363   0.17832   0.15303   0.00000  Uiso   1.00
H173   H     0.05848   0.56329   0.06814   0.00000  Uiso   1.00
H174   H     0.79633   0.26679   0.30932   0.00000  Uiso   1.00
H175   H     0.25972   0.04867   0.10516   0.00000  Uiso   1.00
O176   O     0.02006   0.64233   0.95916   0.00000  Uiso   1.00
O177   O     0.67613   0.25333   0.27557   0.00000  Uiso   1.00
O178   O     0.28408   0.96716   0.00772   0.00000  Uiso   1.00
N179   N     0.98837   0.53752   0.95102   0.00000  Uiso   1.00
N180   N     0.74326   0.26033   0.17651   0.00000  Uiso   1.00
N181   N     0.17648   0.05639   0.98564   0.00000  Uiso   1.00
N182   N     0.03651   0.54323   0.03719   0.00000  Uiso   1.00
N183   N     0.79141   0.26605   0.26267   0.00000  Uiso   1.00
N184   N     0.22463   0.06210   0.07181   0.00000  Uiso   1.00
C185   C     0.18812   0.86342   0.16173   0.00000  Uiso   1.00
C186   C     0.23940   0.90041   0.18070   0.00000  Uiso   1.00
C187   C     0.31100   0.88818   0.15663   0.00000  Uiso   1.00
C188   C     0.34884   0.92746   0.18009   0.00000  Uiso   1.00
C189   C     0.43343   0.97736   0.20254   0.00000  Uiso   1.00
C190   C     0.12391   0.92501   0.13853   0.00000  Uiso   1.00
C191   C     0.09841   0.93346   0.07902   0.00000  Uiso   1.00
C192   C     0.03902   0.99344   0.06699   0.00000  Uiso   1.00
C193   C     0.94428   0.08151   0.02400   0.00000  Uiso   1.00
C194   C     0.15982   0.82755   0.22384   0.00000  Uiso   1.00
C195   C     0.16449   0.75404   0.23604   0.00000  Uiso   1.00
C196   C     0.13531   0.73197   0.29583   0.00000  Uiso   1.00
C197   C     0.09633   0.66871   0.38529   0.00000  Uiso   1.00
C198   C     0.12798   0.95493   0.24620   0.00000  Uiso   1.00
C199   C     0.20673   0.95012   0.22658   0.00000  Uiso   1.00
C200   C     0.24447   0.98942   0.25009   0.00000  Uiso   1.00
C201   C     0.31612   0.97725   0.22606   0.00000  Uiso   1.00
C202   C     0.09125   0.97472   0.18441   0.00000  Uiso   1.00
C203   C     0.03188   0.03470   0.17247   0.00000  Uiso   1.00
C204   C     0.00629   0.04323   0.11295   0.00000  Uiso   1.00
C205   C     0.12716   0.87725   0.26972   0.00000  Uiso   1.00
C206   C     0.09796   0.85529   0.32950   0.00000  Uiso   1.00
C207   C     0.10259   0.78176   0.34180   0.00000  Uiso   1.00
H208   H     0.21354   0.82473   0.12601   0.00000  Uiso   1.00
H209   H     0.33626   0.84971   0.12112   0.00000  Uiso   1.00
H210   H     0.12369   0.89498   0.04352   0.00000  Uiso   1.00
H211   H     0.18977   0.71560   0.20053   0.00000  Uiso   1.00
H212   H     0.45790   0.89936   0.13592   0.00000  Uiso   1.00
H213   H     0.00968   0.99479   0.97231   0.00000  Uiso   1.00
H214   H     0.14901   0.61652   0.30338   0.00000  Uiso   1.00
H215   H     0.10255   0.99362   0.28192   0.00000  Uiso   1.00
H216   H     0.21918   0.02788   0.28559   0.00000  Uiso   1.00
H217   H     0.00661   0.07315   0.20799   0.00000  Uiso   1.00
H218   H     0.07269   0.89376   0.36500   0.00000  Uiso   1.00
H219   H     0.36287   0.04397   0.26941   0.00000  Uiso   1.00
H220   H     0.91465   0.13940   0.10580   0.00000  Uiso   1.00
H221   H     0.05399   0.76113   0.43687   0.00000  Uiso   1.00
O222   O     0.48911   0.99117   0.20225   0.00000  Uiso   1.00
O223   O     0.90105   0.11636   0.98760   0.00000  Uiso   1.00
O224   O     0.08386   0.62008   0.42196   0.00000  Uiso   1.00
N225   N     0.41953   0.92868   0.16684   0.00000  Uiso   1.00
N226   N     0.00048   0.01791   0.01387   0.00000  Uiso   1.00
N227   N     0.13073   0.66426   0.32339   0.00000  Uiso   1.00
N228   N     0.36840   0.00649   0.23867   0.00000  Uiso   1.00
N229   N     0.94935   0.09572   0.08570   0.00000  Uiso   1.00
N230   N     0.07960   0.74208   0.39522   0.00000  Uiso   1.00
C231   C     0.70075   0.92631   0.46313   0.00000  Uiso   1.00
C232   C     0.73271   0.95964   0.50890   0.00000  Uiso   1.00
C233   C     0.71835   0.95526   0.57516   0.00000  Uiso   1.00
C234   C     0.75301   0.98939   0.60849   0.00000  Uiso   1.00
C235   C     0.79547   0.03547   0.68441   0.00000  Uiso   1.00
C236   C     0.76459   0.87688   0.42456   0.00000  Uiso   1.00
C237   C     0.77702   0.80292   0.41990   0.00000  Uiso   1.00
C238   C     0.83850   0.76738   0.38222   0.00000  Uiso   1.00
C239   C     0.93043   0.68499   0.32716   0.00000  Uiso   1.00
C240   C     0.66462   0.98927   0.41575   0.00000  Uiso   1.00
C241   C     0.59300   0.00979   0.40366   0.00000  Uiso   1.00
C242   C     0.57032   0.06887   0.35855   0.00000  Uiso   1.00
C243   C     0.50703   0.16098   0.28980   0.00000  Uiso   1.00
C244   C     0.78783   0.99472   0.40449   0.00000  Uiso   1.00
C245   C     0.78001   0.99680   0.47705   0.00000  Uiso   1.00
C246   C     0.81469   0.03095   0.51029   0.00000  Uiso   1.00
C247   C     0.80039   0.02662   0.57659   0.00000  Uiso   1.00
C248   C     0.81189   0.91404   0.39271   0.00000  Uiso   1.00
C249   C     0.87336   0.87861   0.35503   0.00000  Uiso   1.00
C250   C     0.88589   0.80461   0.35031   0.00000  Uiso   1.00
C251   C     0.71192   0.02644   0.38390   0.00000  Uiso   1.00
C252   C     0.68934   0.08549   0.33879   0.00000  Uiso   1.00
C253   C     0.61770   0.10610   0.32664   0.00000  Uiso   1.00
H254   H     0.66393   0.89737   0.48792   0.00000  Uiso   1.00
H255   H     0.68175   0.92649   0.59979   0.00000  Uiso   1.00
H256   H     0.74041   0.77418   0.44455   0.00000  Uiso   1.00
H257   H     0.55642   0.98102   0.42831   0.00000  Uiso   1.00
H258   H     0.72239   0.97513   0.70977   0.00000  Uiso   1.00
H259   H     0.84605   0.65398   0.38242   0.00000  Uiso   1.00
H260   H     0.45807   0.09016   0.34818   0.00000  Uiso   1.00
H261   H     0.82465   0.02365   0.37970   0.00000  Uiso   1.00
H262   H     0.85129   0.05970   0.48563   0.00000  Uiso   1.00
H263   H     0.90995   0.90739   0.33038   0.00000  Uiso   1.00
H264   H     0.72596   0.11423   0.31415   0.00000  Uiso   1.00
H265   H     0.86000   0.08325   0.61712   0.00000  Uiso   1.00
H266   H     0.98366   0.76210   0.28975   0.00000  Uiso   1.00
H267   H     0.59568   0.19827   0.25552   0.00000  Uiso   1.00
O268   O     0.80584   0.05061   0.73509   0.00000  Uiso   1.00
O269   O     0.96807   0.62927   0.30559   0.00000  Uiso   1.00
O270   O     0.45905   0.20152   0.26069   0.00000  Uiso   1.00
N271   N     0.75111   0.99564   0.67343   0.00000  Uiso   1.00
N272   N     0.86673   0.69538   0.36738   0.00000  Uiso   1.00
N273   N     0.50401   0.10316   0.33536   0.00000  Uiso   1.00
N274   N     0.82516   0.05382   0.62357   0.00000  Uiso   1.00
N275   N     0.94078   0.75356   0.31752   0.00000  Uiso   1.00
N276   N     0.57805   0.16134   0.28550   0.00000  Uiso   1.00
C277   C     0.40119   0.63030   0.19930   0.00000  Uiso   1.00
C278   C     0.35996   0.58284   0.17975   0.00000  Uiso   1.00
C279   C     0.33201   0.59078   0.12143   0.00000  Uiso   1.00
C280   C     0.29606   0.54184   0.11282   0.00000  Uiso   1.00
C281   C     0.23325   0.47647   0.07514   0.00000  Uiso   1.00
C282   C     0.47328   0.57801   0.21741   0.00000  Uiso   1.00
C283   C     0.54061   0.58189   0.19075   0.00000  Uiso   1.00
C284   C     0.60005   0.52889   0.21384   0.00000  Uiso   1.00
C285   C     0.71317   0.45606   0.23466   0.00000  Uiso   1.00
C286   C     0.36063   0.66082   0.26134   0.00000  Uiso   1.00
C287   C     0.33325   0.73434   0.27163   0.00000  Uiso   1.00
C288   C     0.29786   0.75107   0.33172   0.00000  Uiso   1.00
C289   C     0.23607   0.80681   0.42074   0.00000  Uiso   1.00
C290   C     0.38705   0.52929   0.28772   0.00000  Uiso   1.00
C291   C     0.35229   0.52797   0.22778   0.00000  Uiso   1.00
C292   C     0.31637   0.47901   0.21925   0.00000  Uiso   1.00
C293   C     0.28836   0.48688   0.16093   0.00000  Uiso   1.00
C294   C     0.46561   0.52314   0.26543   0.00000  Uiso   1.00
C295   C     0.52497   0.47013   0.28857   0.00000  Uiso   1.00
C296   C     0.59236   0.47393   0.26195   0.00000  Uiso   1.00
C297   C     0.35295   0.60596   0.30936   0.00000  Uiso   1.00
C298   C     0.31760   0.62257   0.36945   0.00000  Uiso   1.00
C299   C     0.29017   0.69610   0.37983   0.00000  Uiso   1.00
H300   H     0.40717   0.67301   0.16192   0.00000  Uiso   1.00
H301   H     0.33797   0.63324   0.08428   0.00000  Uiso   1.00
H302   H     0.54653   0.62436   0.15359   0.00000  Uiso   1.00
H303   H     0.33920   0.77678   0.23445   0.00000  Uiso   1.00
H304   H     0.25788   0.56493   0.01937   0.00000  Uiso   1.00
H305   H     0.69765   0.54622   0.16554   0.00000  Uiso   1.00
H306   H     0.26045   0.86763   0.33605   0.00000  Uiso   1.00
H307   H     0.38107   0.48657   0.32511   0.00000  Uiso   1.00
H308   H     0.31044   0.43656   0.25642   0.00000  Uiso   1.00
H309   H     0.51900   0.42768   0.32574   0.00000  Uiso   1.00
H310   H     0.31167   0.58010   0.40660   0.00000  Uiso   1.00
H311   H     0.23554   0.40529   0.15909   0.00000  Uiso   1.00
H312   H     0.67531   0.38659   0.30526   0.00000  Uiso   1.00
H313   H     0.23811   0.70800   0.47577   0.00000  Uiso   1.00
O314   O     0.20074   0.45556   0.04109   0.00000  Uiso   1.00
O315   O     0.77769   0.43103   0.23287   0.00000  Uiso   1.00
O316   O     0.20410   0.85271   0.45658   0.00000  Uiso   1.00
N317   N     0.26231   0.53423   0.06168   0.00000  Uiso   1.00
N318   N     0.67346   0.51673   0.19833   0.00000  Uiso   1.00
N319   N     0.26474   0.81723   0.35776   0.00000  Uiso   1.00
N320   N     0.25028   0.44833   0.13686   0.00000  Uiso   1.00
N321   N     0.66144   0.43084   0.27352   0.00000  Uiso   1.00
N322   N     0.25271   0.73133   0.43294   0.00000  Uiso   1.00
C323   C     0.05795   0.38548   0.73575   0.00000  Uiso   1.00
C324   C     0.04196   0.32679   0.70370   0.00000  Uiso   1.00
C325   C     0.97402   0.32181   0.69875   0.00000  Uiso   1.00
C326   C     0.97077   0.26409   0.66764   0.00000  Uiso   1.00
C327   C     0.93642   0.18073   0.62168   0.00000  Uiso   1.00
C328   C     0.10282   0.42064   0.68500   0.00000  Uiso   1.00
C329   C     0.08606   0.49457   0.66433   0.00000  Uiso   1.00
C330   C     0.13405   0.51586   0.61748   0.00000  Uiso   1.00
C331   C     0.19422   0.57821   0.54253   0.00000  Uiso   1.00
C332   C     0.10792   0.34483   0.78670   0.00000  Uiso   1.00
C333   C     0.09545   0.35502   0.85155   0.00000  Uiso   1.00
C334   C     0.14774   0.31249   0.89032   0.00000  Uiso   1.00
C335   C     0.21582   0.25713   0.97328   0.00000  Uiso   1.00
C336   C     0.17299   0.29183   0.68929   0.00000  Uiso   1.00
C337   C     0.10444   0.27592   0.67847   0.00000  Uiso   1.00
C338   C     0.10129   0.21820   0.64735   0.00000  Uiso   1.00
C339   C     0.03336   0.21313   0.64236   0.00000  Uiso   1.00
C340   C     0.16530   0.36978   0.65977   0.00000  Uiso   1.00
C341   C     0.21333   0.39096   0.61294   0.00000  Uiso   1.00
C342   C     0.19664   0.46490   0.59220   0.00000  Uiso   1.00
C343   C     0.17040   0.29396   0.76147   0.00000  Uiso   1.00
C344   C     0.22272   0.25141   0.80015   0.00000  Uiso   1.00
C345   C     0.21033   0.26154   0.86505   0.00000  Uiso   1.00
H346   H     0.00931   0.42508   0.75539   0.00000  Uiso   1.00
H347   H     0.92568   0.36119   0.71828   0.00000  Uiso   1.00
H348   H     0.03771   0.53392   0.68387   0.00000  Uiso   1.00
H349   H     0.04709   0.39439   0.87106   0.00000  Uiso   1.00
H350   H     0.86051   0.26794   0.66599   0.00000  Uiso   1.00
H351   H     0.09673   0.63216   0.59346   0.00000  Uiso   1.00
H352   H     0.11653   0.33794   0.98817   0.00000  Uiso   1.00
H353   H     0.22163   0.25222   0.66965   0.00000  Uiso   1.00
H354   H     0.14965   0.17884   0.62783   0.00000  Uiso   1.00
H355   H     0.26168   0.35158   0.59342   0.00000  Uiso   1.00
H356   H     0.27106   0.21205   0.78061   0.00000  Uiso   1.00
H357   H     0.04229   0.11994   0.59257   0.00000  Uiso   1.00
H358   H     0.27852   0.48417   0.52004   0.00000  Uiso   1.00
H359   H     0.29832   0.18994   0.91476   0.00000  Uiso   1.00
O360   O     0.90022   0.14880   0.60330   0.00000  Uiso   1.00
O361   O     0.21014   0.62665   0.50815   0.00000  Uiso   1.00
O362   O     0.23611   0.24063   0.02601   0.00000  Uiso   1.00
N363   N     0.91317   0.24317   0.65446   0.00000  Uiso   1.00
N364   N     0.13402   0.58370   0.58664   0.00000  Uiso   1.00
N365   N     0.15254   0.30863   0.95566   0.00000  Uiso   1.00
N366   N     0.01099   0.16353   0.61496   0.00000  Uiso   1.00
N367   N     0.23184   0.50406   0.54714   0.00000  Uiso   1.00
N368   N     0.25036   0.22900   0.91616   0.00000  Uiso   1.00
C369   C     0.48602   0.11956   0.55334   0.00000  Uiso   1.00
C370   C     0.41897   0.14146   0.51755   0.00000  Uiso   1.00
C371   C     0.39615   0.09505   0.48638   0.00000  Uiso   1.00
C372   C     0.33340   0.12564   0.45646   0.00000  Uiso   1.00
C373   C     0.23513   0.14834   0.40073   0.00000  Uiso   1.00
C374   C     0.46006   0.14164   0.62124   0.00000  Uiso   1.00
C375   C     0.47179   0.09538   0.67724   0.00000  Uiso   1.00
C376   C     0.44364   0.12612   0.73461   0.00000  Uiso   1.00
C377   C     0.40919   0.14910   0.83985   0.00000  Uiso   1.00
C378   C     0.53049   0.16936   0.52282   0.00000  Uiso   1.00
C379   C     0.60144   0.14641   0.49608   0.00000  Uiso   1.00
C380   C     0.63259   0.20049   0.47060   0.00000  Uiso   1.00
C381   C     0.70749   0.26650   0.42303   0.00000  Uiso   1.00
C382   C     0.41519   0.25641   0.55564   0.00000  Uiso   1.00
C383   C     0.38050   0.21579   0.51880   0.00000  Uiso   1.00
C384   C     0.31777   0.24646   0.48892   0.00000  Uiso   1.00
C385   C     0.29486   0.20011   0.45771   0.00000  Uiso   1.00
C386   C     0.42158   0.21596   0.62249   0.00000  Uiso   1.00
C387   C     0.39342   0.24678   0.67978   0.00000  Uiso   1.00
C388   C     0.40509   0.20058   0.73586   0.00000  Uiso   1.00
C389   C     0.49201   0.24369   0.52406   0.00000  Uiso   1.00
C390   C     0.52306   0.29781   0.49862   0.00000  Uiso   1.00
C391   C     0.59404   0.27495   0.47185   0.00000  Uiso   1.00
H392   H     0.51598   0.06169   0.55237   0.00000  Uiso   1.00
H393   H     0.42593   0.03753   0.48543   0.00000  Uiso   1.00
H394   H     0.50157   0.03786   0.67626   0.00000  Uiso   1.00
H395   H     0.63119   0.08888   0.49513   0.00000  Uiso   1.00
H396   H     0.30912   0.04352   0.41178   0.00000  Uiso   1.00
H397   H     0.46863   0.04422   0.81416   0.00000  Uiso   1.00
H398   H     0.74197   0.15181   0.43220   0.00000  Uiso   1.00
H399   H     0.38523   0.31428   0.55661   0.00000  Uiso   1.00
H400   H     0.28801   0.30398   0.48989   0.00000  Uiso   1.00
H401   H     0.36365   0.30431   0.68073   0.00000  Uiso   1.00
H402   H     0.49327   0.35533   0.49959   0.00000  Uiso   1.00
H403   H     0.19718   0.25978   0.41541   0.00000  Uiso   1.00
H404   H     0.35669   0.26048   0.81779   0.00000  Uiso   1.00
H405   H     0.63002   0.36807   0.43583   0.00000  Uiso   1.00
O406   O     0.19154   0.14032   0.36965   0.00000  Uiso   1.00
O407   O     0.40082   0.14123   0.89755   0.00000  Uiso   1.00
O408   O     0.75943   0.28239   0.39643   0.00000  Uiso   1.00
N409   N     0.29613   0.09584   0.42178   0.00000  Uiso   1.00
N410   N     0.44524   0.09648   0.79798   0.00000  Uiso   1.00
N411   N     0.70080   0.19707   0.44090   0.00000  Uiso   1.00
N412   N     0.23589   0.21220   0.42373   0.00000  Uiso   1.00
N413   N     0.38501   0.21285   0.79993   0.00000  Uiso   1.00
N414   N     0.64057   0.31344   0.44285   0.00000  Uiso   1.00
C415   C     0.85808   0.64433   0.16743   0.00000  Uiso   1.00
C416   C     0.83452   0.60969   0.11672   0.00000  Uiso   1.00
C417   C     0.83630   0.53706   0.11961   0.00000  Uiso   1.00
C418   C     0.81243   0.51605   0.06838   0.00000  Uiso   1.00
C419   C     0.77964   0.45466   0.99757   0.00000  Uiso   1.00
C420   C     0.91513   0.67779   0.13283   0.00000  Uiso   1.00
C421   C     0.98469   0.66242   0.14927   0.00000  Uiso   1.00
C422   C     0.02868   0.69875   0.11160   0.00000  Uiso   1.00
C423   C     0.12103   0.74314   0.06582   0.00000  Uiso   1.00
C424   C     0.79337   0.70845   0.18687   0.00000  Uiso   1.00
C425   C     0.76055   0.71887   0.24875   0.00000  Uiso   1.00
C426   C     0.70203   0.78102   0.25658   0.00000  Uiso   1.00
C427   C     0.60532   0.87300   0.29472   0.00000  Uiso   1.00
C428   C     0.81251   0.73618   0.07132   0.00000  Uiso   1.00
C429   C     0.80977   0.65958   0.06452   0.00000  Uiso   1.00
C430   C     0.78588   0.63868   0.01327   0.00000  Uiso   1.00
C431   C     0.78763   0.56603   0.01608   0.00000  Uiso   1.00
C432   C     0.89038   0.72768   0.08062   0.00000  Uiso   1.00
C433   C     0.93427   0.76404   0.04292   0.00000  Uiso   1.00
C434   C     0.00388   0.74873   0.05930   0.00000  Uiso   1.00
C435   C     0.76861   0.75834   0.13467   0.00000  Uiso   1.00
C436   C     0.71013   0.82049   0.14241   0.00000  Uiso   1.00
C437   C     0.67723   0.83100   0.20428   0.00000  Uiso   1.00
H438   H     0.87735   0.60549   0.20807   0.00000  Uiso   1.00
H439   H     0.85547   0.49846   0.16002   0.00000  Uiso   1.00
H440   H     0.00383   0.62382   0.18967   0.00000  Uiso   1.00
H441   H     0.77972   0.68025   0.28914   0.00000  Uiso   1.00
H442   H     0.82031   0.40180   0.08371   0.00000  Uiso   1.00
H443   H     0.13313   0.66613   0.14624   0.00000  Uiso   1.00
H444   H     0.66057   0.78514   0.35599   0.00000  Uiso   1.00
H445   H     0.79324   0.77502   0.03067   0.00000  Uiso   1.00
H446   H     0.76673   0.67730   0.97288   0.00000  Uiso   1.00
H447   H     0.91510   0.80265   0.00253   0.00000  Uiso   1.00
H448   H     0.69099   0.85908   0.10200   0.00000  Uiso   1.00
H449   H     0.74829   0.54695   0.93181   0.00000  Uiso   1.00
H450   H     0.06112   0.81128   0.99435   0.00000  Uiso   1.00
H451   H     0.58855   0.93029   0.20410   0.00000  Uiso   1.00
O452   O     0.76840   0.40702   0.97293   0.00000  Uiso   1.00
O453   O     0.17881   0.75383   0.05499   0.00000  Uiso   1.00
O454   O     0.55881   0.90995   0.33017   0.00000  Uiso   1.00
N455   N     0.80698   0.44937   0.05589   0.00000  Uiso   1.00
N456   N     0.09946   0.69650   0.11436   0.00000  Uiso   1.00
N457   N     0.65766   0.80777   0.31046   0.00000  Uiso   1.00
N458   N     0.76823   0.52748   0.97416   0.00000  Uiso   1.00
N459   N     0.06071   0.77461   0.03263   0.00000  Uiso   1.00
N460   N     0.61891   0.88587   0.22872   0.00000  Uiso   1.00
C461   C     0.68826   0.15023   0.06072   0.00000  Uiso   1.00
C462   C     0.61869   0.13039   0.06341   0.00000  Uiso   1.00
C463   C     0.55360   0.16462   0.09706   0.00000  Uiso   1.00
C464   C     0.49627   0.13836   0.09345   0.00000  Uiso   1.00
C465   C     0.38709   0.11641   0.10312   0.00000  Uiso   1.00
C466   C     0.74477   0.08039   0.08352   0.00000  Uiso   1.00
C467   C     0.78571   0.07260   0.13407   0.00000  Uiso   1.00
C468   C     0.83452   0.00426   0.14737   0.00000  Uiso   1.00
C469   C     0.92113   0.90471   0.18823   0.00000  Uiso   1.00
C470   C     0.71086   0.16623   0.98984   0.00000  Uiso   1.00
C471   C     0.72330   0.23060   0.96163   0.00000  Uiso   1.00
C472   C     0.74358   0.23452   0.89607   0.00000  Uiso   1.00
C473   C     0.77755   0.26824   0.79148   0.00000  Uiso   1.00
C474   C     0.70217   0.04273   0.99446   0.00000  Uiso   1.00
C475   C     0.62625   0.07200   0.02742   0.00000  Uiso   1.00
C476   C     0.56899   0.04568   0.02375   0.00000  Uiso   1.00
C477   C     0.50383   0.07987   0.05739   0.00000  Uiso   1.00
C478   C     0.75233   0.02201   0.04753   0.00000  Uiso   1.00
C479   C     0.80110   0.95366   0.06076   0.00000  Uiso   1.00
C480   C     0.84209   0.94576   0.11132   0.00000  Uiso   1.00
C481   C     0.71842   0.10784   0.95385   0.00000  Uiso   1.00
C482   C     0.73869   0.11166   0.88832   0.00000  Uiso   1.00
C483   C     0.75115   0.17602   0.86001   0.00000  Uiso   1.00
H484   H     0.68239   0.19568   0.08875   0.00000  Uiso   1.00
H485   H     0.54778   0.20980   0.12492   0.00000  Uiso   1.00
H486   H     0.77985   0.11780   0.16191   0.00000  Uiso   1.00
H487   H     0.71745   0.27577   0.98950   0.00000  Uiso   1.00
H488   H     0.40188   0.19968   0.14916   0.00000  Uiso   1.00
H489   H     0.89124   0.00569   0.22715   0.00000  Uiso   1.00
H490   H     0.75966   0.33881   0.86359   0.00000  Uiso   1.00
H491   H     0.70806   0.99727   0.96644   0.00000  Uiso   1.00
H492   H     0.57485   0.00049   0.99589   0.00000  Uiso   1.00
H493   H     0.80693   0.90849   0.03289   0.00000  Uiso   1.00
H494   H     0.74453   0.06647   0.86048   0.00000  Uiso   1.00
H495   H     0.42386   0.02980   0.04445   0.00000  Uiso   1.00
H496   H     0.91322   0.83581   0.12244   0.00000  Uiso   1.00
H497   H     0.78164   0.16893   0.75887   0.00000  Uiso   1.00
O498   O     0.32479   0.12042   0.11840   0.00000  Uiso   1.00
O499   O     0.96681   0.86593   0.22072   0.00000  Uiso   1.00
O500   O     0.79418   0.30297   0.74373   0.00000  Uiso   1.00
N501   N     0.42533   0.15926   0.12046   0.00000  Uiso   1.00
N502   N     0.88284   0.97790   0.19339   0.00000  Uiso   1.00
N503   N     0.75985   0.28933   0.85349   0.00000  Uiso   1.00
N504   N     0.43716   0.06785   0.06412   0.00000  Uiso   1.00
N505   N     0.89467   0.88648   0.13704   0.00000  Uiso   1.00
N506   N     0.77167   0.19792   0.79714   0.00000  Uiso   1.00
C507   C     0.12242   0.93683   0.73020   0.00000  Uiso   1.00
C508   C     0.07838   0.92564   0.68042   0.00000  Uiso   1.00
C509   C     0.09887   0.92434   0.61502   0.00000  Uiso   1.00
C510   C     0.05101   0.91341   0.57752   0.00000  Uiso   1.00
C511   C     0.99264   0.89749   0.49612   0.00000  Uiso   1.00
C512   C     0.07439   0.00239   0.76450   0.00000  Uiso   1.00
C513   C     0.09154   0.06562   0.76980   0.00000  Uiso   1.00
C514   C     0.04031   0.11930   0.80309   0.00000  Uiso   1.00
C515   C     0.97578   0.22251   0.85226   0.00000  Uiso   1.00
C516   C     0.13125   0.87075   0.77974   0.00000  Uiso   1.00
C517   C     0.19621   0.82329   0.79787   0.00000  Uiso   1.00
C518   C     0.19286   0.76614   0.84401   0.00000  Uiso   1.00
C519   C     0.21661   0.66495   0.91684   0.00000  Uiso   1.00
C520   C     0.00096   0.91973   0.77990   0.00000  Uiso   1.00
C521   C     0.01240   0.91635   0.70742   0.00000  Uiso   1.00
C522   C     0.96449   0.90542   0.67001   0.00000  Uiso   1.00
C523   C     0.98492   0.90411   0.60457   0.00000  Uiso   1.00
C524   C     0.00842   0.99311   0.79149   0.00000  Uiso   1.00
C525   C     0.95716   0.04670   0.82479   0.00000  Uiso   1.00
C526   C     0.97422   0.11000   0.83013   0.00000  Uiso   1.00
C527   C     0.06528   0.86146   0.80673   0.00000  Uiso   1.00
C528   C     0.06183   0.80437   0.85285   0.00000  Uiso   1.00
C529   C     0.12677   0.75684   0.87105   0.00000  Uiso   1.00
H530   H     0.17378   0.94406   0.70918   0.00000  Uiso   1.00
H531   H     0.14993   0.93154   0.59415   0.00000  Uiso   1.00
H532   H     0.14260   0.07279   0.74891   0.00000  Uiso   1.00
H533   H     0.24725   0.83050   0.77697   0.00000  Uiso   1.00
H534   H     0.09439   0.91358   0.47851   0.00000  Uiso   1.00
H535   H     0.07893   0.21141   0.80485   0.00000  Uiso   1.00
H536   H     0.29962   0.70049   0.86403   0.00000  Uiso   1.00
H537   H     0.94959   0.91250   0.80092   0.00000  Uiso   1.00
H538   H     0.91344   0.89824   0.69091   0.00000  Uiso   1.00
H539   H     0.90611   0.03950   0.84567   0.00000  Uiso   1.00
H540   H     0.01076   0.79720   0.87374   0.00000  Uiso   1.00
H541   H     0.90244   0.88656   0.55705   0.00000  Uiso   1.00
H542   H     0.88699   0.18439   0.88339   0.00000  Uiso   1.00
H543   H     0.10768   0.67347   0.94257   0.00000  Uiso   1.00
O544   O     0.97867   0.89128   0.44376   0.00000  Uiso   1.00
O545   O     0.95840   0.28202   0.87191   0.00000  Uiso   1.00
O546   O     0.24794   0.61170   0.94955   0.00000  Uiso   1.00
N547   N     0.05418   0.90916   0.51209   0.00000  Uiso   1.00
N548   N     0.03973   0.18762   0.81719   0.00000  Uiso   1.00
N549   N     0.24605   0.70996   0.87253   0.00000  Uiso   1.00
N550   N     0.95090   0.89462   0.55435   0.00000  Uiso   1.00
N551   N     0.93645   0.17308   0.85945   0.00000  Uiso   1.00
N552   N     0.14277   0.69542   0.91479   0.00000  Uiso   1.00
