data_job_02869
_audit_creation_date              2018-12-19
_audit_creation_method            'Materials Studio'
_symmetry_space_group_name_H-M    'P1'
_symmetry_Int_Tables_number       1
_symmetry_cell_setting            triclinic
loop_
_symmetry_equiv_pos_as_xyz
  x,y,z
_cell_length_a                    11.5582
_cell_length_b                    12.6237
_cell_length_c                    15.4553
_cell_angle_alpha                 94.7760
_cell_angle_beta                  75.2170
_cell_angle_gamma                 69.2350
loop_
_atom_site_label
_atom_site_type_symbol
_atom_site_fract_x
_atom_site_fract_y
_atom_site_fract_z
_atom_site_U_iso_or_equiv
_atom_site_adp_type
_atom_site_occupancy
C1     C     0.66565   0.68920   0.18906   0.00000  Uiso   1.00
C2     C     0.73136   0.59238   0.23465   0.00000  Uiso   1.00
C3     C     0.79202   0.47587   0.19541   0.00000  Uiso   1.00
C4     C     0.84630   0.40094   0.24835   0.00000  Uiso   1.00
C5     C     0.94921   0.24448   0.30563   0.00000  Uiso   1.00
C6     C     0.52649   0.75163   0.25173   0.00000  Uiso   1.00
C7     C     0.41490   0.76903   0.22684   0.00000  Uiso   1.00
C8     C     0.29672   0.82817   0.29415   0.00000  Uiso   1.00
C9     C     0.08158   0.91903   0.37792   0.00000  Uiso   1.00
C10    C     0.73124   0.77437   0.19304   0.00000  Uiso   1.00
C11    C     0.79177   0.81092   0.11881   0.00000  Uiso   1.00
C12    C     0.84596   0.88923   0.13671   0.00000  Uiso   1.00
C13    C     0.94871   0.01538   0.12935   0.00000  Uiso   1.00
C14    C     0.65419   0.76332   0.35285   0.00000  Uiso   1.00
C15    C     0.72513   0.63264   0.32362   0.00000  Uiso   1.00
C16    C     0.77934   0.55787   0.37663   0.00000  Uiso   1.00
C17    C     0.84007   0.44127   0.33747   0.00000  Uiso   1.00
C18    C     0.52026   0.79189   0.34069   0.00000  Uiso   1.00
C19    C     0.40222   0.85103   0.40805   0.00000  Uiso   1.00
C20    C     0.29048   0.86851   0.38327   0.00000  Uiso   1.00
C21    C     0.72502   0.81463   0.28201   0.00000  Uiso   1.00
C22    C     0.77910   0.89291   0.30002   0.00000  Uiso   1.00
C23    C     0.83972   0.92956   0.22583   0.00000  Uiso   1.00
H24    H     0.67049   0.65786   0.11980   0.00000  Uiso   1.00
H25    H     0.79680   0.44475   0.12657   0.00000  Uiso   1.00
H26    H     0.41975   0.73787   0.15799   0.00000  Uiso   1.00
H27    H     0.79657   0.77974   0.04997   0.00000  Uiso   1.00
H28    H     0.93406   0.22623   0.17331   0.00000  Uiso   1.00
H29    H     0.13902   0.84433   0.23956   0.00000  Uiso   1.00
H30    H     0.93362   0.93262   0.01179   0.00000  Uiso   1.00
H31    H     0.64934   0.79466   0.42212   0.00000  Uiso   1.00
H32    H     0.77450   0.58905   0.44547   0.00000  Uiso   1.00
H33    H     0.39744   0.88218   0.47689   0.00000  Uiso   1.00
H34    H     0.77427   0.92405   0.36888   0.00000  Uiso   1.00
H35    H     0.91595   0.34335   0.43215   0.00000  Uiso   1.00
H36    H     0.12091   0.96146   0.49839   0.00000  Uiso   1.00
H37    H     0.91552   0.04975   0.27062   0.00000  Uiso   1.00
O38    O     0.00768   0.14706   0.31265   0.00000  Uiso   1.00
O39    O     0.96463   0.95800   0.39955   0.00000  Uiso   1.00
O40    O     0.00713   0.07384   0.10072   0.00000  Uiso   1.00
N41    N     0.91265   0.28201   0.23102   0.00000  Uiso   1.00
N42    N     0.16933   0.85988   0.29296   0.00000  Uiso   1.00
N43    N     0.91218   0.94246   0.08001   0.00000  Uiso   1.00
N44    N     0.90290   0.34503   0.37029   0.00000  Uiso   1.00
N45    N     0.15959   0.92291   0.43223   0.00000  Uiso   1.00
N46    N     0.90244   0.00548   0.21929   0.00000  Uiso   1.00
C47    C     0.33435   0.31080   0.81094   0.00000  Uiso   1.00
C48    C     0.26864   0.40762   0.76535   0.00000  Uiso   1.00
C49    C     0.20798   0.52413   0.80459   0.00000  Uiso   1.00
C50    C     0.15370   0.59906   0.75165   0.00000  Uiso   1.00
C51    C     0.05079   0.75552   0.69437   0.00000  Uiso   1.00
C52    C     0.47351   0.24837   0.74827   0.00000  Uiso   1.00
C53    C     0.58510   0.23097   0.77316   0.00000  Uiso   1.00
C54    C     0.70328   0.17183   0.70585   0.00000  Uiso   1.00
C55    C     0.91842   0.08097   0.62208   0.00000  Uiso   1.00
C56    C     0.26876   0.22563   0.80696   0.00000  Uiso   1.00
C57    C     0.20823   0.18908   0.88119   0.00000  Uiso   1.00
C58    C     0.15404   0.11077   0.86329   0.00000  Uiso   1.00
C59    C     0.05129   0.98462   0.87065   0.00000  Uiso   1.00
C60    C     0.34581   0.23668   0.64715   0.00000  Uiso   1.00
C61    C     0.27487   0.36736   0.67638   0.00000  Uiso   1.00
C62    C     0.22066   0.44213   0.62337   0.00000  Uiso   1.00
C63    C     0.15993   0.55873   0.66253   0.00000  Uiso   1.00
C64    C     0.47974   0.20811   0.65931   0.00000  Uiso   1.00
C65    C     0.59778   0.14897   0.59195   0.00000  Uiso   1.00
C66    C     0.70952   0.13149   0.61673   0.00000  Uiso   1.00
C67    C     0.27498   0.18537   0.71799   0.00000  Uiso   1.00
C68    C     0.22090   0.10709   0.69998   0.00000  Uiso   1.00
C69    C     0.16028   0.07044   0.77417   0.00000  Uiso   1.00
H70    H     0.32951   0.34214   0.88020   0.00000  Uiso   1.00
H71    H     0.20320   0.55525   0.87343   0.00000  Uiso   1.00
H72    H     0.58025   0.26213   0.84201   0.00000  Uiso   1.00
H73    H     0.20343   0.22026   0.95003   0.00000  Uiso   1.00
H74    H     0.06594   0.77377   0.82669   0.00000  Uiso   1.00
H75    H     0.86098   0.15567   0.76044   0.00000  Uiso   1.00
H76    H     0.06638   0.06738   0.98821   0.00000  Uiso   1.00
H77    H     0.35066   0.20534   0.57788   0.00000  Uiso   1.00
H78    H     0.22550   0.41095   0.55453   0.00000  Uiso   1.00
H79    H     0.60256   0.11782   0.52311   0.00000  Uiso   1.00
H80    H     0.22573   0.07595   0.63112   0.00000  Uiso   1.00
H81    H     0.08405   0.65665   0.56785   0.00000  Uiso   1.00
H82    H     0.87909   0.03854   0.50161   0.00000  Uiso   1.00
H83    H     0.08448   0.95025   0.72938   0.00000  Uiso   1.00
O84    O     0.99232   0.85294   0.68735   0.00000  Uiso   1.00
O85    O     0.03537   0.04200   0.60045   0.00000  Uiso   1.00
O86    O     0.99287   0.92616   0.89928   0.00000  Uiso   1.00
N87    N     0.08735   0.71799   0.76898   0.00000  Uiso   1.00
N88    N     0.83067   0.14012   0.70704   0.00000  Uiso   1.00
N89    N     0.08782   0.05754   0.91999   0.00000  Uiso   1.00
N90    N     0.09710   0.65497   0.62971   0.00000  Uiso   1.00
N91    N     0.84041   0.07709   0.56777   0.00000  Uiso   1.00
N92    N     0.09756   0.99452   0.78071   0.00000  Uiso   1.00
