data_job_06551
_audit_creation_date              2018-12-19
_audit_creation_method            'Materials Studio'
_symmetry_space_group_name_H-M    'P1'
_symmetry_Int_Tables_number       1
_symmetry_cell_setting            triclinic
loop_
_symmetry_equiv_pos_as_xyz
  x,y,z
_cell_length_a                    21.4044
_cell_length_b                    23.2112
_cell_length_c                    23.8099
_cell_angle_alpha                 118.1405
_cell_angle_beta                  87.3370
_cell_angle_gamma                 65.2731
loop_
_atom_site_label
_atom_site_type_symbol
_atom_site_fract_x
_atom_site_fract_y
_atom_site_fract_z
_atom_site_U_iso_or_equiv
_atom_site_adp_type
_atom_site_occupancy
C1     C     0.24974   0.49749   0.91469   0.00000  Uiso   1.00
C2     C     0.20992   0.47570   0.94880   0.00000  Uiso   1.00
C3     C     0.23837   0.43718   0.97984   0.00000  Uiso   1.00
C4     C     0.19324   0.42261   0.00810   0.00000  Uiso   1.00
C5     C     0.14223   0.38522   0.06145   0.00000  Uiso   1.00
C6     C     0.24578   0.46324   0.84327   0.00000  Uiso   1.00
C7     C     0.30437   0.41425   0.78558   0.00000  Uiso   1.00
C8     C     0.28943   0.38920   0.72501   0.00000  Uiso   1.00
C9     C     0.29408   0.33250   0.61453   0.00000  Uiso   1.00
C10    C     0.20394   0.58274   0.94857   0.00000  Uiso   1.00
C11    C     0.22735   0.63423   0.97940   0.00000  Uiso   1.00
C12    C     0.17719   0.70979   0.00748   0.00000  Uiso   1.00
C13    C     0.11687   0.83864   0.06048   0.00000  Uiso   1.00
C14    C     0.11902   0.54013   0.90970   0.00000  Uiso   1.00
C15    C     0.13892   0.49886   0.94609   0.00000  Uiso   1.00
C16    C     0.09374   0.48435   0.97431   0.00000  Uiso   1.00
C17    C     0.12211   0.44581   0.00539   0.00000  Uiso   1.00
C18    C     0.17478   0.48640   0.84056   0.00000  Uiso   1.00
C19    C     0.15975   0.46142   0.78006   0.00000  Uiso   1.00
C20    C     0.21830   0.41239   0.72229   0.00000  Uiso   1.00
C21    C     0.13294   0.60590   0.94586   0.00000  Uiso   1.00
C22    C     0.08273   0.68140   0.97388   0.00000  Uiso   1.00
C23    C     0.10606   0.73299   0.00476   0.00000  Uiso   1.00
H24    H     0.30502   0.47946   0.91680   0.00000  Uiso   1.00
H25    H     0.29332   0.41926   0.98192   0.00000  Uiso   1.00
H26    H     0.35931   0.39635   0.78770   0.00000  Uiso   1.00
H27    H     0.28230   0.61629   0.98149   0.00000  Uiso   1.00
H28    H     0.24904   0.36271   0.05290   0.00000  Uiso   1.00
H29    H     0.38819   0.31440   0.64338   0.00000  Uiso   1.00
H30    H     0.22581   0.77820   0.05203   0.00000  Uiso   1.00
H31    H     0.06374   0.55815   0.90758   0.00000  Uiso   1.00
H32    H     0.03880   0.50227   0.97220   0.00000  Uiso   1.00
H33    H     0.10479   0.47935   0.77798   0.00000  Uiso   1.00
H34    H     0.02778   0.69930   0.97177   0.00000  Uiso   1.00
H35    H     0.04247   0.43008   0.04501   0.00000  Uiso   1.00
H36    H     0.18162   0.38177   0.63548   0.00000  Uiso   1.00
H37    H     0.01923   0.84557   0.04414   0.00000  Uiso   1.00
O38    O     0.13371   0.35819   0.09161   0.00000  Uiso   1.00
O39    O     0.31627   0.29483   0.55433   0.00000  Uiso   1.00
O40    O     0.10322   0.90332   0.09047   0.00000  Uiso   1.00
N41    N     0.20384   0.38625   0.04219   0.00000  Uiso   1.00
N42    N     0.33394   0.34107   0.65931   0.00000  Uiso   1.00
N43    N     0.18213   0.77468   0.04135   0.00000  Uiso   1.00
N44    N     0.09268   0.42250   0.03794   0.00000  Uiso   1.00
N45    N     0.22278   0.37732   0.65506   0.00000  Uiso   1.00
N46    N     0.07097   0.81094   0.03710   0.00000  Uiso   1.00
C47    C     0.16519   0.28310   0.75557   0.00000  Uiso   1.00
C48    C     0.20419   0.24270   0.78908   0.00000  Uiso   1.00
C49    C     0.25878   0.24919   0.81604   0.00000  Uiso   1.00
C50    C     0.28754   0.20758   0.84446   0.00000  Uiso   1.00
C51    C     0.35192   0.15187   0.89625   0.00000  Uiso   1.00
C52    C     0.17484   0.22145   0.68588   0.00000  Uiso   1.00
C53    C     0.20473   0.21009   0.62608   0.00000  Uiso   1.00
C54    C     0.20877   0.15059   0.56762   0.00000  Uiso   1.00
C55    C     0.22752   0.06193   0.45919   0.00000  Uiso   1.00
C56    C     0.08503   0.32660   0.79348   0.00000  Uiso   1.00
C57    C     0.03941   0.40365   0.82415   0.00000  Uiso   1.00
C58    C     0.96783   0.43267   0.85628   0.00000  Uiso   1.00
C59    C     0.84716   0.50727   0.91492   0.00000  Uiso   1.00
C60    C     0.11920   0.19765   0.75809   0.00000  Uiso   1.00
C61    C     0.17921   0.19628   0.79044   0.00000  Uiso   1.00
C62    C     0.20789   0.15464   0.81883   0.00000  Uiso   1.00
C63    C     0.26251   0.16108   0.84583   0.00000  Uiso   1.00
C64    C     0.14986   0.17503   0.68724   0.00000  Uiso   1.00
C65    C     0.15384   0.11554   0.62886   0.00000  Uiso   1.00
C66    C     0.18374   0.10409   0.56899   0.00000  Uiso   1.00
C67    C     0.06005   0.28018   0.79485   0.00000  Uiso   1.00
C68    C     0.98853   0.30909   0.82693   0.00000  Uiso   1.00
C69    C     0.94280   0.38617   0.85765   0.00000  Uiso   1.00
H70    H     0.18464   0.31924   0.75451   0.00000  Uiso   1.00
H71    H     0.27810   0.28512   0.81497   0.00000  Uiso   1.00
H72    H     0.22405   0.24602   0.62504   0.00000  Uiso   1.00
H73    H     0.05876   0.43955   0.82308   0.00000  Uiso   1.00
H74    H     0.37072   0.22679   0.88259   0.00000  Uiso   1.00
H75    H     0.25673   0.14438   0.48211   0.00000  Uiso   1.00
H76    H     0.90818   0.55246   0.89972   0.00000  Uiso   1.00
H77    H     0.09975   0.16151   0.75915   0.00000  Uiso   1.00
H78    H     0.18855   0.11873   0.81987   0.00000  Uiso   1.00
H79    H     0.13450   0.07964   0.62994   0.00000  Uiso   1.00
H80    H     0.96921   0.27316   0.82798   0.00000  Uiso   1.00
H81    H     0.29804   0.09174   0.88657   0.00000  Uiso   1.00
H82    H     0.18405   0.00933   0.48608   0.00000  Uiso   1.00
H83    H     0.83550   0.41742   0.90369   0.00000  Uiso   1.00
O84    O     0.39434   0.13395   0.92442   0.00000  Uiso   1.00
O85    O     0.24478   0.02584   0.39900   0.00000  Uiso   1.00
O86    O     0.78750   0.56124   0.94690   0.00000  Uiso   1.00
N87    N     0.34142   0.20089   0.87521   0.00000  Uiso   1.00
N88    N     0.23486   0.12383   0.50077   0.00000  Uiso   1.00
N89    N     0.90899   0.50535   0.89119   0.00000  Uiso   1.00
N90    N     0.30231   0.12822   0.87735   0.00000  Uiso   1.00
N91    N     0.19574   0.05117   0.50291   0.00000  Uiso   1.00
N92    N     0.86988   0.43269   0.89333   0.00000  Uiso   1.00
C93    C     0.43861   0.92873   0.46753   0.00000  Uiso   1.00
C94    C     0.46483   0.98550   0.49670   0.00000  Uiso   1.00
C95    C     0.42206   0.06179   0.54534   0.00000  Uiso   1.00
C96    C     0.45628   0.10423   0.56536   0.00000  Uiso   1.00
C97    C     0.48568   0.19737   0.61482   0.00000  Uiso   1.00
C98    C     0.46107   0.89303   0.39211   0.00000  Uiso   1.00
C99    C     0.41514   0.89157   0.35283   0.00000  Uiso   1.00
C100   C     0.44620   0.85616   0.28481   0.00000  Uiso   1.00
C101   C     0.46977   0.80570   0.17190   0.00000  Uiso   1.00
C102   C     0.48369   0.86634   0.47888   0.00000  Uiso   1.00
C103   C     0.45679   0.84241   0.51252   0.00000  Uiso   1.00
C104   C     0.50690   0.78452   0.51753   0.00000  Uiso   1.00
C105   C     0.56560   0.69261   0.53934   0.00000  Uiso   1.00
C106   C     0.57544   0.86844   0.41659   0.00000  Uiso   1.00
C107   C     0.53915   0.95275   0.46902   0.00000  Uiso   1.00
C108   C     0.57345   0.99509   0.48898   0.00000  Uiso   1.00
C109   C     0.53074   0.07143   0.53764   0.00000  Uiso   1.00
C110   C     0.53539   0.86029   0.36444   0.00000  Uiso   1.00
C111   C     0.56653   0.82487   0.29646   0.00000  Uiso   1.00
C112   C     0.52066   0.82336   0.25708   0.00000  Uiso   1.00
C113   C     0.55802   0.83359   0.45121   0.00000  Uiso   1.00
C114   C     0.60818   0.77572   0.45616   0.00000  Uiso   1.00
C115   C     0.58136   0.75172   0.48981   0.00000  Uiso   1.00
H116   H     0.38074   0.95422   0.48907   0.00000  Uiso   1.00
H117   H     0.36454   0.08711   0.56674   0.00000  Uiso   1.00
H118   H     0.35763   0.91691   0.37425   0.00000  Uiso   1.00
H119   H     0.39927   0.86777   0.53393   0.00000  Uiso   1.00
H120   H     0.37935   0.22001   0.64062   0.00000  Uiso   1.00
H121   H     0.36477   0.86111   0.23476   0.00000  Uiso   1.00
H122   H     0.45259   0.75748   0.57146   0.00000  Uiso   1.00
H123   H     0.63331   0.84294   0.39504   0.00000  Uiso   1.00
H124   H     0.63097   0.96973   0.46755   0.00000  Uiso   1.00
H125   H     0.62404   0.79953   0.27507   0.00000  Uiso   1.00
H126   H     0.66569   0.75039   0.43474   0.00000  Uiso   1.00
H127   H     0.59559   0.12474   0.56012   0.00000  Uiso   1.00
H128   H     0.58100   0.76584   0.15425   0.00000  Uiso   1.00
H129   H     0.66882   0.66222   0.49096   0.00000  Uiso   1.00
O130   O     0.48137   0.25780   0.64975   0.00000  Uiso   1.00
O131   O     0.46224   0.78692   0.11727   0.00000  Uiso   1.00
O132   O     0.57745   0.65097   0.55902   0.00000  Uiso   1.00
N133   N     0.43057   0.18019   0.61173   0.00000  Uiso   1.00
N134   N     0.41693   0.84465   0.23228   0.00000  Uiso   1.00
N135   N     0.49903   0.74775   0.54705   0.00000  Uiso   1.00
N136   N     0.54692   0.12892   0.56842   0.00000  Uiso   1.00
N137   N     0.53329   0.79338   0.18896   0.00000  Uiso   1.00
N138   N     0.61539   0.69649   0.50373   0.00000  Uiso   1.00
C139   C     0.85423   0.30477   0.17981   0.00000  Uiso   1.00
C140   C     0.88037   0.28593   0.23062   0.00000  Uiso   1.00
C141   C     0.84619   0.26962   0.26730   0.00000  Uiso   1.00
C142   C     0.87873   0.25382   0.31120   0.00000  Uiso   1.00
C143   C     0.90954   0.22445   0.38902   0.00000  Uiso   1.00
C144   C     0.91625   0.24782   0.11457   0.00000  Uiso   1.00
C145   C     0.91221   0.19948   0.05369   0.00000  Uiso   1.00
C146   C     0.97495   0.15162   0.99990   0.00000  Uiso   1.00
C147   C     0.06144   0.06312   0.89756   0.00000  Uiso   1.00
C148   C     0.84736   0.38121   0.20294   0.00000  Uiso   1.00
C149   C     0.78540   0.44503   0.21634   0.00000  Uiso   1.00
C150   C     0.79015   0.50947   0.23694   0.00000  Uiso   1.00
C151   C     0.76967   0.62809   0.27180   0.00000  Uiso   1.00
C152   C     0.97282   0.30572   0.19253   0.00000  Uiso   1.00
C153   C     0.94479   0.28644   0.23753   0.00000  Uiso   1.00
C154   C     0.97739   0.27067   0.28139   0.00000  Uiso   1.00
C155   C     0.94326   0.25435   0.31813   0.00000  Uiso   1.00
C156   C     0.98066   0.24833   0.12149   0.00000  Uiso   1.00
C157   C     0.04342   0.20054   0.06778   0.00000  Uiso   1.00
C158   C     0.03948   0.15214   0.00683   0.00000  Uiso   1.00
C159   C     0.91177   0.38173   0.20986   0.00000  Uiso   1.00
C160   C     0.91661   0.44608   0.23043   0.00000  Uiso   1.00
C161   C     0.85468   0.50999   0.24386   0.00000  Uiso   1.00
H162   H     0.80409   0.30436   0.17442   0.00000  Uiso   1.00
H163   H     0.79634   0.26922   0.26193   0.00000  Uiso   1.00
H164   H     0.86236   0.19910   0.04835   0.00000  Uiso   1.00
H165   H     0.73557   0.44461   0.21099   0.00000  Uiso   1.00
H166   H     0.81617   0.23045   0.36199   0.00000  Uiso   1.00
H167   H     0.95536   0.08262   0.91165   0.00000  Uiso   1.00
H168   H     0.68800   0.60033   0.25458   0.00000  Uiso   1.00
H169   H     0.02298   0.30613   0.19792   0.00000  Uiso   1.00
H170   H     0.02724   0.27108   0.28673   0.00000  Uiso   1.00
H171   H     0.09325   0.20096   0.07314   0.00000  Uiso   1.00
H172   H     0.96646   0.44647   0.23578   0.00000  Uiso   1.00
H173   H     0.00358   0.23195   0.38211   0.00000  Uiso   1.00
H174   H     0.14277   0.08413   0.93176   0.00000  Uiso   1.00
H175   H     0.87541   0.60183   0.27470   0.00000  Uiso   1.00
O176   O     0.90875   0.20809   0.43003   0.00000  Uiso   1.00
O177   O     0.09135   0.01415   0.83919   0.00000  Uiso   1.00
O178   O     0.74058   0.69337   0.28912   0.00000  Uiso   1.00
N179   N     0.85969   0.23563   0.35455   0.00000  Uiso   1.00
N180   N     0.98982   0.09741   0.93350   0.00000  Uiso   1.00
N181   N     0.73987   0.58142   0.25410   0.00000  Uiso   1.00
N182   N     0.96053   0.23644   0.36538   0.00000  Uiso   1.00
N183   N     0.09067   0.09822   0.94433   0.00000  Uiso   1.00
N184   N     0.84071   0.58223   0.26493   0.00000  Uiso   1.00
C185   C     0.89884   0.95856   0.16793   0.00000  Uiso   1.00
C186   C     0.84402   0.02571   0.23554   0.00000  Uiso   1.00
C187   C     0.86025   0.06389   0.29278   0.00000  Uiso   1.00
C188   C     0.80241   0.12385   0.34962   0.00000  Uiso   1.00
C189   C     0.72814   0.22495   0.45466   0.00000  Uiso   1.00
C190   C     0.88020   0.98108   0.11765   0.00000  Uiso   1.00
C191   C     0.92686   0.98172   0.07577   0.00000  Uiso   1.00
C192   C     0.89948   0.00411   0.03337   0.00000  Uiso   1.00
C193   C     0.88142   0.03586   0.95535   0.00000  Uiso   1.00
C194   C     0.88214   0.89535   0.15001   0.00000  Uiso   1.00
C195   C     0.93043   0.82391   0.13532   0.00000  Uiso   1.00
C196   C     0.90468   0.77411   0.12015   0.00000  Uiso   1.00
C197   C     0.88961   0.67276   0.09239   0.00000  Uiso   1.00
C198   C     0.76725   0.99716   0.16708   0.00000  Uiso   1.00
C199   C     0.77254   0.04667   0.23508   0.00000  Uiso   1.00
C200   C     0.71466   0.10659   0.29185   0.00000  Uiso   1.00
C201   C     0.73080   0.14486   0.34916   0.00000  Uiso   1.00
C202   C     0.80873   0.00204   0.11719   0.00000  Uiso   1.00
C203   C     0.78127   0.02443   0.07484   0.00000  Uiso   1.00
C204   C     0.82788   0.02511   0.03291   0.00000  Uiso   1.00
C205   C     0.81066   0.91632   0.14956   0.00000  Uiso   1.00
C206   C     0.78483   0.86662   0.13440   0.00000  Uiso   1.00
C207   C     0.83307   0.79511   0.11969   0.00000  Uiso   1.00
H208   H     0.95449   0.94224   0.16828   0.00000  Uiso   1.00
H209   H     0.91557   0.04765   0.29311   0.00000  Uiso   1.00
H210   H     0.98218   0.96549   0.07613   0.00000  Uiso   1.00
H211   H     0.98573   0.80770   0.13568   0.00000  Uiso   1.00
H212   H     0.84090   0.17378   0.43130   0.00000  Uiso   1.00
H213   H     0.98135   0.00052   0.97377   0.00000  Uiso   1.00
H214   H     0.98885   0.66779   0.09934   0.00000  Uiso   1.00
H215   H     0.71160   0.01348   0.16673   0.00000  Uiso   1.00
H216   H     0.65935   0.12281   0.29148   0.00000  Uiso   1.00
H217   H     0.72596   0.04064   0.07450   0.00000  Uiso   1.00
H218   H     0.72952   0.88286   0.13405   0.00000  Uiso   1.00
H219   H     0.63294   0.23478   0.42997   0.00000  Uiso   1.00
H220   H     0.77339   0.06151   0.97244   0.00000  Uiso   1.00
H221   H     0.78090   0.72879   0.09802   0.00000  Uiso   1.00
O222   O     0.70693   0.27493   0.51272   0.00000  Uiso   1.00
O223   O     0.89120   0.04759   0.91246   0.00000  Uiso   1.00
O224   O     0.90104   0.61108   0.07721   0.00000  Uiso   1.00
N225   N     0.79913   0.17313   0.41387   0.00000  Uiso   1.00
N226   N     0.93043   0.01114   0.98612   0.00000  Uiso   1.00
N227   N     0.93746   0.70007   0.10350   0.00000  Uiso   1.00
N228   N     0.68723   0.20595   0.41316   0.00000  Uiso   1.00
N229   N     0.81853   0.04397   0.98540   0.00000  Uiso   1.00
N230   N     0.82556   0.73289   0.10279   0.00000  Uiso   1.00
C231   C     0.60947   0.42276   0.41071   0.00000  Uiso   1.00
C232   C     0.67370   0.43510   0.42086   0.00000  Uiso   1.00
C233   C     0.71865   0.41459   0.45611   0.00000  Uiso   1.00
C234   C     0.77442   0.43076   0.45964   0.00000  Uiso   1.00
C235   C     0.87259   0.44450   0.48003   0.00000  Uiso   1.00
C236   C     0.62338   0.37754   0.33530   0.00000  Uiso   1.00
C237   C     0.62601   0.30864   0.29862   0.00000  Uiso   1.00
C238   C     0.63942   0.27636   0.23012   0.00000  Uiso   1.00
C239   C     0.65942   0.20076   0.11769   0.00000  Uiso   1.00
C240   C     0.54444   0.50030   0.43728   0.00000  Uiso   1.00
C241   C     0.48069   0.53462   0.48635   0.00000  Uiso   1.00
C242   C     0.42764   0.60569   0.50370   0.00000  Uiso   1.00
C243   C     0.32507   0.72070   0.54962   0.00000  Uiso   1.00
C244   C     0.62860   0.48795   0.35427   0.00000  Uiso   1.00
C245   C     0.68409   0.47050   0.39020   0.00000  Uiso   1.00
C246   C     0.73981   0.48671   0.39367   0.00000  Uiso   1.00
C247   C     0.78483   0.46623   0.42893   0.00000  Uiso   1.00
C248   C     0.63377   0.41294   0.30464   0.00000  Uiso   1.00
C249   C     0.64717   0.38076   0.23618   0.00000  Uiso   1.00
C250   C     0.64983   0.31183   0.19941   0.00000  Uiso   1.00
C251   C     0.55483   0.53571   0.40663   0.00000  Uiso   1.00
C252   C     0.50186   0.60674   0.42391   0.00000  Uiso   1.00
C253   C     0.43804   0.64116   0.47299   0.00000  Uiso   1.00
H254   H     0.60138   0.39519   0.43457   0.00000  Uiso   1.00
H255   H     0.71059   0.38718   0.47983   0.00000  Uiso   1.00
H256   H     0.61796   0.28126   0.32236   0.00000  Uiso   1.00
H257   H     0.47267   0.50720   0.51006   0.00000  Uiso   1.00
H258   H     0.83627   0.39390   0.51646   0.00000  Uiso   1.00
H259   H     0.64093   0.17055   0.18444   0.00000  Uiso   1.00
H260   H     0.33456   0.64700   0.58024   0.00000  Uiso   1.00
H261   H     0.63668   0.51551   0.33040   0.00000  Uiso   1.00
H262   H     0.74783   0.51411   0.36994   0.00000  Uiso   1.00
H263   H     0.65521   0.40818   0.21247   0.00000  Uiso   1.00
H264   H     0.50992   0.63412   0.40017   0.00000  Uiso   1.00
H265   H     0.86650   0.49691   0.42728   0.00000  Uiso   1.00
H266   H     0.67116   0.27357   0.09525   0.00000  Uiso   1.00
H267   H     0.36479   0.75001   0.49105   0.00000  Uiso   1.00
O268   O     0.92388   0.44229   0.49974   0.00000  Uiso   1.00
O269   O     0.66759   0.14928   0.06414   0.00000  Uiso   1.00
O270   O     0.26564   0.77436   0.58343   0.00000  Uiso   1.00
N271   N     0.82812   0.41835   0.49006   0.00000  Uiso   1.00
N272   N     0.64551   0.20953   0.17963   0.00000  Uiso   1.00
N273   N     0.35906   0.65496   0.54966   0.00000  Uiso   1.00
N274   N     0.84439   0.47378   0.44207   0.00000  Uiso   1.00
N275   N     0.66177   0.26496   0.13164   0.00000  Uiso   1.00
N276   N     0.37533   0.71039   0.50167   0.00000  Uiso   1.00
C277   C     0.58423   0.56855   0.08229   0.00000  Uiso   1.00
C278   C     0.66290   0.52778   0.07916   0.00000  Uiso   1.00
C279   C     0.71385   0.54836   0.07299   0.00000  Uiso   1.00
C280   C     0.78293   0.50376   0.07104   0.00000  Uiso   1.00
C281   C     0.90243   0.45004   0.06560   0.00000  Uiso   1.00
C282   C     0.53918   0.58894   0.14708   0.00000  Uiso   1.00
C283   C     0.48609   0.66094   0.19802   0.00000  Uiso   1.00
C284   C     0.45101   0.66781   0.25323   0.00000  Uiso   1.00
C285   C     0.37838   0.70904   0.35322   0.00000  Uiso   1.00
C286   C     0.57260   0.50959   0.02577   0.00000  Uiso   1.00
C287   C     0.54759   0.51487   0.97470   0.00000  Uiso   1.00
C288   C     0.54063   0.45495   0.92779   0.00000  Uiso   1.00
C289   C     0.51989   0.37297   0.83941   0.00000  Uiso   1.00
C290   C     0.61631   0.45276   0.08979   0.00000  Uiso   1.00
C291   C     0.68032   0.46489   0.08324   0.00000  Uiso   1.00
C292   C     0.74934   0.42024   0.08129   0.00000  Uiso   1.00
C293   C     0.80039   0.44075   0.07511   0.00000  Uiso   1.00
C294   C     0.55660   0.52605   0.15116   0.00000  Uiso   1.00
C295   C     0.52158   0.53282   0.20631   0.00000  Uiso   1.00
C296   C     0.46846   0.60480   0.25731   0.00000  Uiso   1.00
C297   C     0.59002   0.44669   0.02984   0.00000  Uiso   1.00
C298   C     0.58309   0.38675   0.98300   0.00000  Uiso   1.00
C299   C     0.55808   0.39194   0.93187   0.00000  Uiso   1.00
H300   H     0.57066   0.61752   0.07912   0.00000  Uiso   1.00
H301   H     0.70034   0.59704   0.06985   0.00000  Uiso   1.00
H302   H     0.47261   0.70960   0.19485   0.00000  Uiso   1.00
H303   H     0.53411   0.56356   0.97157   0.00000  Uiso   1.00
H304   H     0.85180   0.54661   0.06139   0.00000  Uiso   1.00
H305   H     0.37160   0.78394   0.32494   0.00000  Uiso   1.00
H306   H     0.50127   0.47598   0.85411   0.00000  Uiso   1.00
H307   H     0.62988   0.40379   0.09296   0.00000  Uiso   1.00
H308   H     0.76281   0.37157   0.08444   0.00000  Uiso   1.00
H309   H     0.53508   0.48413   0.20944   0.00000  Uiso   1.00
H310   H     0.59658   0.33809   0.98616   0.00000  Uiso   1.00
H311   H     0.90250   0.36362   0.07323   0.00000  Uiso   1.00
H312   H     0.42230   0.60094   0.33679   0.00000  Uiso   1.00
H313   H     0.55198   0.29299   0.86596   0.00000  Uiso   1.00
O314   O     0.96352   0.43779   0.06148   0.00000  Uiso   1.00
O315   O     0.33351   0.74915   0.40725   0.00000  Uiso   1.00
O316   O     0.50365   0.34512   0.78953   0.00000  Uiso   1.00
N317   N     0.84549   0.50796   0.06533   0.00000  Uiso   1.00
N318   N     0.39654   0.72984   0.31175   0.00000  Uiso   1.00
N319   N     0.51776   0.44194   0.87157   0.00000  Uiso   1.00
N320   N     0.87277   0.40949   0.07170   0.00000  Uiso   1.00
N321   N     0.42382   0.63137   0.31812   0.00000  Uiso   1.00
N322   N     0.54504   0.34347   0.87794   0.00000  Uiso   1.00
C323   C     0.53408   0.91566   0.10258   0.00000  Uiso   1.00
C324   C     0.49231   0.95245   0.06757   0.00000  Uiso   1.00
C325   C     0.43492   0.94633   0.04611   0.00000  Uiso   1.00
C326   C     0.40391   0.98426   0.01515   0.00000  Uiso   1.00
C327   C     0.33514   0.03494   0.96221   0.00000  Uiso   1.00
C328   C     0.52905   0.97964   0.16833   0.00000  Uiso   1.00
C329   C     0.50256   0.99637   0.23160   0.00000  Uiso   1.00
C330   C     0.50250   0.05718   0.28546   0.00000  Uiso   1.00
C331   C     0.49082   0.15005   0.38896   0.00000  Uiso   1.00
C332   C     0.61309   0.86852   0.06030   0.00000  Uiso   1.00
C333   C     0.65727   0.79183   0.03275   0.00000  Uiso   1.00
C334   C     0.72797   0.75909   0.99567   0.00000  Uiso   1.00
C335   C     0.84678   0.67943   0.93143   0.00000  Uiso   1.00
C336   C     0.58108   0.99390   0.08574   0.00000  Uiso   1.00
C337   C     0.51783   0.99495   0.05842   0.00000  Uiso   1.00
C338   C     0.48691   0.03289   0.02748   0.00000  Uiso   1.00
C339   C     0.42948   0.02682   0.00599   0.00000  Uiso   1.00
C340   C     0.55457   0.02214   0.15919   0.00000  Uiso   1.00
C341   C     0.55455   0.08293   0.21297   0.00000  Uiso   1.00
C342   C     0.52807   0.09976   0.27630   0.00000  Uiso   1.00
C343   C     0.63862   0.91102   0.05115   0.00000  Uiso   1.00
C344   C     0.70926   0.87839   0.01412   0.00000  Uiso   1.00
C345   C     0.75354   0.80166   0.98651   0.00000  Uiso   1.00
H346   H     0.51421   0.88258   0.10970   0.00000  Uiso   1.00
H347   H     0.41517   0.91344   0.05321   0.00000  Uiso   1.00
H348   H     0.48282   0.96347   0.23866   0.00000  Uiso   1.00
H349   H     0.63750   0.75897   0.03984   0.00000  Uiso   1.00
H350   H     0.31662   0.96642   0.98656   0.00000  Uiso   1.00
H351   H     0.45927   0.07190   0.37760   0.00000  Uiso   1.00
H352   H     0.78545   0.64065   0.95834   0.00000  Uiso   1.00
H353   H     0.60095   0.02699   0.07862   0.00000  Uiso   1.00
H354   H     0.50667   0.06577   0.02041   0.00000  Uiso   1.00
H355   H     0.57432   0.11580   0.20587   0.00000  Uiso   1.00
H356   H     0.72900   0.91129   0.00705   0.00000  Uiso   1.00
H357   H     0.39088   0.09006   0.95995   0.00000  Uiso   1.00
H358   H     0.53353   0.19553   0.35099   0.00000  Uiso   1.00
H359   H     0.85971   0.76428   0.93173   0.00000  Uiso   1.00
O360   O     0.29015   0.05117   0.93555   0.00000  Uiso   1.00
O361   O     0.47731   0.18954   0.44858   0.00000  Uiso   1.00
O362   O     0.90526   0.62375   0.89852   0.00000  Uiso   1.00
N363   N     0.34704   0.99018   0.98827   0.00000  Uiso   1.00
N364   N     0.48040   0.08881   0.35388   0.00000  Uiso   1.00
N365   N     0.78536   0.68563   0.96192   0.00000  Uiso   1.00
N366   N     0.38700   0.05671   0.97395   0.00000  Uiso   1.00
N367   N     0.52036   0.15533   0.33955   0.00000  Uiso   1.00
N368   N     0.82532   0.75215   0.94760   0.00000  Uiso   1.00
C369   C     0.31133   0.13211   0.24554   0.00000  Uiso   1.00
C370   C     0.28999   0.07186   0.21097   0.00000  Uiso   1.00
C371   C     0.33417   0.99522   0.18365   0.00000  Uiso   1.00
C372   C     0.30456   0.94936   0.15422   0.00000  Uiso   1.00
C373   C     0.28225   0.85128   0.10087   0.00000  Uiso   1.00
C374   C     0.25630   0.18980   0.31498   0.00000  Uiso   1.00
C375   C     0.27216   0.21233   0.37512   0.00000  Uiso   1.00
C376   C     0.21419   0.26577   0.43326   0.00000  Uiso   1.00
C377   C     0.13958   0.35084   0.54139   0.00000  Uiso   1.00
C378   C     0.29781   0.17226   0.20816   0.00000  Uiso   1.00
C379   C     0.34857   0.18006   0.17849   0.00000  Uiso   1.00
C380   C     0.32553   0.21875   0.14670   0.00000  Uiso   1.00
C381   C     0.31538   0.27658   0.08897   0.00000  Uiso   1.00
C382   C     0.18017   0.18696   0.24187   0.00000  Uiso   1.00
C383   C     0.21875   0.10165   0.20897   0.00000  Uiso   1.00
C384   C     0.18906   0.05591   0.17958   0.00000  Uiso   1.00
C385   C     0.23319   0.97921   0.15222   0.00000  Uiso   1.00
C386   C     0.18506   0.21959   0.31299   0.00000  Uiso   1.00
C387   C     0.12705   0.27302   0.37105   0.00000  Uiso   1.00
C388   C     0.14282   0.29562   0.43126   0.00000  Uiso   1.00
C389   C     0.22657   0.20205   0.20616   0.00000  Uiso   1.00
C390   C     0.20346   0.24075   0.17442   0.00000  Uiso   1.00
C391   C     0.25416   0.24860   0.14470   0.00000  Uiso   1.00
H392   H     0.36679   0.10891   0.24710   0.00000  Uiso   1.00
H393   H     0.38930   0.97218   0.18521   0.00000  Uiso   1.00
H394   H     0.32730   0.18927   0.37665   0.00000  Uiso   1.00
H395   H     0.40369   0.15700   0.18004   0.00000  Uiso   1.00
H396   H     0.38283   0.83373   0.11573   0.00000  Uiso   1.00
H397   H     0.25210   0.29149   0.51939   0.00000  Uiso   1.00
H398   H     0.41319   0.22344   0.10481   0.00000  Uiso   1.00
H399   H     0.12471   0.21016   0.24031   0.00000  Uiso   1.00
H400   H     0.13393   0.07898   0.17804   0.00000  Uiso   1.00
H401   H     0.07193   0.29607   0.36949   0.00000  Uiso   1.00
H402   H     0.14832   0.26379   0.17288   0.00000  Uiso   1.00
H403   H     0.17556   0.92041   0.10992   0.00000  Uiso   1.00
H404   H     0.04483   0.37818   0.51358   0.00000  Uiso   1.00
H405   H     0.20592   0.31012   0.09900   0.00000  Uiso   1.00
O406   O     0.28963   0.78895   0.07201   0.00000  Uiso   1.00
O407   O     0.11811   0.38953   0.60159   0.00000  Uiso   1.00
O408   O     0.32946   0.30024   0.05767   0.00000  Uiso   1.00
N409   N     0.33279   0.87213   0.12290   0.00000  Uiso   1.00
N410   N     0.21056   0.30010   0.50030   0.00000  Uiso   1.00
N411   N     0.36116   0.23650   0.11272   0.00000  Uiso   1.00
N412   N     0.22126   0.91877   0.11977   0.00000  Uiso   1.00
N413   N     0.09903   0.34675   0.49717   0.00000  Uiso   1.00
N414   N     0.24963   0.28314   0.10959   0.00000  Uiso   1.00
C415   C     0.82454   0.92728   0.47306   0.00000  Uiso   1.00
C416   C     0.88193   0.94663   0.46189   0.00000  Uiso   1.00
C417   C     0.95506   0.90456   0.45178   0.00000  Uiso   1.00
C418   C     0.99871   0.93179   0.44253   0.00000  Uiso   1.00
C419   C     0.09216   0.95168   0.42511   0.00000  Uiso   1.00
C420   C     0.76784   0.99554   0.53925   0.00000  Uiso   1.00
C421   C     0.74503   0.99458   0.59418   0.00000  Uiso   1.00
C422   C     0.69264   0.06299   0.65005   0.00000  Uiso   1.00
C423   C     0.60893   0.15879   0.75271   0.00000  Uiso   1.00
C424   C     0.78786   0.92409   0.41910   0.00000  Uiso   1.00
C425   C     0.78186   0.86307   0.37300   0.00000  Uiso   1.00
C426   C     0.74630   0.87134   0.32772   0.00000  Uiso   1.00
C427   C     0.69366   0.85622   0.24381   0.00000  Uiso   1.00
C428   C     0.77203   0.05047   0.47462   0.00000  Uiso   1.00
C429   C     0.85341   0.01354   0.46275   0.00000  Uiso   1.00
C430   C     0.89697   0.04085   0.45351   0.00000  Uiso   1.00
C431   C     0.97014   0.99882   0.44338   0.00000  Uiso   1.00
C432   C     0.73932   0.06245   0.54011   0.00000  Uiso   1.00
C433   C     0.68694   0.13087   0.59591   0.00000  Uiso   1.00
C434   C     0.66407   0.13002   0.65090   0.00000  Uiso   1.00
C435   C     0.75934   0.99100   0.41994   0.00000  Uiso   1.00
C436   C     0.72377   0.99937   0.37473   0.00000  Uiso   1.00
C437   C     0.71773   0.93837   0.32857   0.00000  Uiso   1.00
H438   H     0.84674   0.87519   0.47240   0.00000  Uiso   1.00
H439   H     0.97710   0.85278   0.45113   0.00000  Uiso   1.00
H440   H     0.76711   0.94279   0.59350   0.00000  Uiso   1.00
H441   H     0.80393   0.81131   0.37236   0.00000  Uiso   1.00
H442   H     0.10906   0.85746   0.42795   0.00000  Uiso   1.00
H443   H     0.66626   0.04724   0.72814   0.00000  Uiso   1.00
H444   H     0.74390   0.76998   0.26182   0.00000  Uiso   1.00
H445   H     0.74983   0.10256   0.47528   0.00000  Uiso   1.00
H446   H     0.87488   0.09263   0.45417   0.00000  Uiso   1.00
H447   H     0.66489   0.18264   0.59654   0.00000  Uiso   1.00
H448   H     0.70171   0.05115   0.37540   0.00000  Uiso   1.00
H449   H     0.02609   0.05213   0.43042   0.00000  Uiso   1.00
H450   H     0.58329   0.24191   0.73061   0.00000  Uiso   1.00
H451   H     0.66094   0.96465   0.26428   0.00000  Uiso   1.00
O452   O     0.15158   0.94417   0.41527   0.00000  Uiso   1.00
O453   O     0.57064   0.19315   0.80910   0.00000  Uiso   1.00
O454   O     0.67251   0.82939   0.19729   0.00000  Uiso   1.00
N455   N     0.07237   0.90463   0.43142   0.00000  Uiso   1.00
N456   N     0.65839   0.08207   0.71208   0.00000  Uiso   1.00
N457   N     0.73097   0.82286   0.27612   0.00000  Uiso   1.00
N458   N     0.02773   0.00938   0.43274   0.00000  Uiso   1.00
N459   N     0.61374   0.18682   0.71341   0.00000  Uiso   1.00
N460   N     0.68632   0.92761   0.27744   0.00000  Uiso   1.00
C461   C     0.86177   0.09998   0.67530   0.00000  Uiso   1.00
C462   C     0.93572   0.02885   0.64294   0.00000  Uiso   1.00
C463   C     0.95035   0.95609   0.59731   0.00000  Uiso   1.00
C464   C     0.02152   0.89863   0.57353   0.00000  Uiso   1.00
C465   C     0.12804   0.78592   0.52010   0.00000  Uiso   1.00
C466   C     0.84799   0.13692   0.75059   0.00000  Uiso   1.00
C467   C     0.78886   0.15503   0.79548   0.00000  Uiso   1.00
C468   C     0.78618   0.18855   0.86232   0.00000  Uiso   1.00
C469   C     0.75649   0.24367   0.97602   0.00000  Uiso   1.00
C470   C     0.87037   0.15292   0.65903   0.00000  Uiso   1.00
C471   C     0.83004   0.18450   0.62695   0.00000  Uiso   1.00
C472   C     0.84618   0.23151   0.61672   0.00000  Uiso   1.00
C473   C     0.85123   0.31147   0.58826   0.00000  Uiso   1.00
C474   C     0.96213   0.12734   0.71420   0.00000  Uiso   1.00
C475   C     0.99023   0.04371   0.66407   0.00000  Uiso   1.00
C476   C     0.06140   0.98635   0.64035   0.00000  Uiso   1.00
C477   C     0.07613   0.91352   0.59470   0.00000  Uiso   1.00
C478   C     0.90250   0.15178   0.77172   0.00000  Uiso   1.00
C479   C     0.89991   0.18529   0.83852   0.00000  Uiso   1.00
C480   C     0.84079   0.20344   0.88349   0.00000  Uiso   1.00
C481   C     0.92488   0.16778   0.68016   0.00000  Uiso   1.00
C482   C     0.94109   0.21476   0.66999   0.00000  Uiso   1.00
C483   C     0.90080   0.24640   0.63789   0.00000  Uiso   1.00
H484   H     0.81932   0.08842   0.65885   0.00000  Uiso   1.00
H485   H     0.90814   0.94461   0.58098   0.00000  Uiso   1.00
H486   H     0.74668   0.14353   0.77911   0.00000  Uiso   1.00
H487   H     0.78786   0.17299   0.61060   0.00000  Uiso   1.00
H488   H     0.03066   0.79173   0.50397   0.00000  Uiso   1.00
H489   H     0.69019   0.21117   0.92175   0.00000  Uiso   1.00
H490   H     0.77701   0.27330   0.56643   0.00000  Uiso   1.00
H491   H     0.00458   0.13891   0.73066   0.00000  Uiso   1.00
H492   H     0.10357   0.99787   0.65671   0.00000  Uiso   1.00
H493   H     0.94210   0.19678   0.85485   0.00000  Uiso   1.00
H494   H     0.98328   0.22624   0.68635   0.00000  Uiso   1.00
H495   H     0.18927   0.83495   0.56545   0.00000  Uiso   1.00
H496   H     0.84880   0.25440   0.98323   0.00000  Uiso   1.00
H497   H     0.93563   0.31652   0.62790   0.00000  Uiso   1.00
O498   O     0.17174   0.71965   0.48479   0.00000  Uiso   1.00
O499   O     0.72505   0.26996   0.03290   0.00000  Uiso   1.00
O500   O     0.83896   0.35146   0.56672   0.00000  Uiso   1.00
N501   N     0.05441   0.82126   0.52858   0.00000  Uiso   1.00
N502   N     0.73610   0.21341   0.91917   0.00000  Uiso   1.00
N503   N     0.81725   0.27150   0.58699   0.00000  Uiso   1.00
N504   N     0.13976   0.84452   0.56166   0.00000  Uiso   1.00
N505   N     0.82144   0.23666   0.95225   0.00000  Uiso   1.00
N506   N     0.90260   0.29476   0.62007   0.00000  Uiso   1.00
C507   C     0.18318   0.61357   0.54555   0.00000  Uiso   1.00
C508   C     0.12458   0.59310   0.52868   0.00000  Uiso   1.00
C509   C     0.08468   0.60648   0.48758   0.00000  Uiso   1.00
C510   C     0.03358   0.58352   0.47844   0.00000  Uiso   1.00
C511   C     0.94421   0.55711   0.44759   0.00000  Uiso   1.00
C512   C     0.16046   0.66305   0.62163   0.00000  Uiso   1.00
C513   C     0.15074   0.73524   0.65867   0.00000  Uiso   1.00
C514   C     0.12985   0.77117   0.72777   0.00000  Uiso   1.00
C515   C     0.09623   0.85334   0.84121   0.00000  Uiso   1.00
C516   C     0.25093   0.54032   0.52530   0.00000  Uiso   1.00
C517   C     0.31728   0.50932   0.48136   0.00000  Uiso   1.00
C518   C     0.37257   0.44192   0.46937   0.00000  Uiso   1.00
C519   C     0.47941   0.33352   0.43324   0.00000  Uiso   1.00
C520   C     0.16339   0.54901   0.60240   0.00000  Uiso   1.00
C521   C     0.11383   0.55803   0.55956   0.00000  Uiso   1.00
C522   C     0.06279   0.53505   0.55048   0.00000  Uiso   1.00
C523   C     0.02282   0.54839   0.50937   0.00000  Uiso   1.00
C524   C     0.14971   0.62799   0.65251   0.00000  Uiso   1.00
C525   C     0.12884   0.66382   0.72157   0.00000  Uiso   1.00
C526   C     0.11909   0.73605   0.75871   0.00000  Uiso   1.00
C527   C     0.24018   0.50525   0.55617   0.00000  Uiso   1.00
C528   C     0.29538   0.43789   0.54425   0.00000  Uiso   1.00
C529   C     0.36180   0.40679   0.50030   0.00000  Uiso   1.00
H530   H     0.19154   0.64087   0.52151   0.00000  Uiso   1.00
H531   H     0.09301   0.63362   0.46370   0.00000  Uiso   1.00
H532   H     0.15906   0.76236   0.63476   0.00000  Uiso   1.00
H533   H     0.32557   0.53647   0.45747   0.00000  Uiso   1.00
H534   H     0.97900   0.61014   0.41325   0.00000  Uiso   1.00
H535   H     0.11831   0.88160   0.77394   0.00000  Uiso   1.00
H536   H     0.46943   0.40525   0.40009   0.00000  Uiso   1.00
H537   H     0.15503   0.52171   0.62644   0.00000  Uiso   1.00
H538   H     0.05448   0.50792   0.57438   0.00000  Uiso   1.00
H539   H     0.12054   0.63666   0.74544   0.00000  Uiso   1.00
H540   H     0.28705   0.41077   0.56815   0.00000  Uiso   1.00
H541   H     0.94773   0.50812   0.50308   0.00000  Uiso   1.00
H542   H     0.08704   0.77957   0.86377   0.00000  Uiso   1.00
H543   H     0.43816   0.30323   0.48992   0.00000  Uiso   1.00
O544   O     0.89787   0.55223   0.42204   0.00000  Uiso   1.00
O545   O     0.08065   0.90836   0.89525   0.00000  Uiso   1.00
O546   O     0.54131   0.28341   0.40477   0.00000  Uiso   1.00
N547   N     0.98545   0.58801   0.44152   0.00000  Uiso   1.00
N548   N     0.11568   0.84181   0.77875   0.00000  Uiso   1.00
N549   N     0.44396   0.39648   0.42924   0.00000  Uiso   1.00
N550   N     0.96863   0.53311   0.48986   0.00000  Uiso   1.00
N551   N     0.09886   0.78691   0.82708   0.00000  Uiso   1.00
N552   N     0.42713   0.34158   0.47758   0.00000  Uiso   1.00
