data_job_02555
_audit_creation_date              2018-12-19
_audit_creation_method            'Materials Studio'
_symmetry_space_group_name_H-M    'P1'
_symmetry_Int_Tables_number       1
_symmetry_cell_setting            triclinic
loop_
_symmetry_equiv_pos_as_xyz
  x,y,z
_cell_length_a                    19.6441
_cell_length_b                    22.7885
_cell_length_c                    14.4678
_cell_angle_alpha                 90.0000
_cell_angle_beta                  139.7959
_cell_angle_gamma                 90.0000
loop_
_atom_site_label
_atom_site_type_symbol
_atom_site_fract_x
_atom_site_fract_y
_atom_site_fract_z
_atom_site_U_iso_or_equiv
_atom_site_adp_type
_atom_site_occupancy
C1     C     0.74733   0.58235   0.70557   0.00000  Uiso   1.00
C2     C     0.82030   0.62743   0.73677   0.00000  Uiso   1.00
C3     C     0.88573   0.66609   0.85157   0.00000  Uiso   1.00
C4     C     0.94638   0.70391   0.86122   0.00000  Uiso   1.00
C5     C     0.06036   0.77407   0.92507   0.00000  Uiso   1.00
C6     C     0.63718   0.59543   0.55441   0.00000  Uiso   1.00
C7     C     0.54865   0.60718   0.51589   0.00000  Uiso   1.00
C8     C     0.45515   0.61806   0.37202   0.00000  Uiso   1.00
C9     C     0.28481   0.63850   0.15275   0.00000  Uiso   1.00
C10    C     0.77858   0.52310   0.69737   0.00000  Uiso   1.00
C11    C     0.80892   0.47402   0.77901   0.00000  Uiso   1.00
C12    C     0.83444   0.42399   0.75548   0.00000  Uiso   1.00
C13    C     0.88365   0.33211   0.75817   0.00000  Uiso   1.00
C14    C     0.73869   0.58076   0.51857   0.00000  Uiso   1.00
C15    C     0.81560   0.62657   0.63519   0.00000  Uiso   1.00
C16    C     0.87617   0.66434   0.64467   0.00000  Uiso   1.00
C17    C     0.94168   0.70305   0.75947   0.00000  Uiso   1.00
C18    C     0.63248   0.59457   0.45284   0.00000  Uiso   1.00
C19    C     0.53908   0.60543   0.30899   0.00000  Uiso   1.00
C20    C     0.45044   0.61720   0.27026   0.00000  Uiso   1.00
C21    C     0.77389   0.52224   0.59580   0.00000  Uiso   1.00
C22    C     0.79936   0.47227   0.57213   0.00000  Uiso   1.00
C23    C     0.82973   0.42313   0.65372   0.00000  Uiso   1.00
H24    H     0.75098   0.58302   0.78464   0.00000  Uiso   1.00
H25    H     0.88934   0.66675   0.93014   0.00000  Uiso   1.00
H26    H     0.55231   0.60784   0.59451   0.00000  Uiso   1.00
H27    H     0.81255   0.47470   0.85760   0.00000  Uiso   1.00
H28    H     0.04063   0.75921   0.04664   0.00000  Uiso   1.00
H29    H     0.32998   0.63499   0.33893   0.00000  Uiso   1.00
H30    H     0.87873   0.35423   0.89371   0.00000  Uiso   1.00
H31    H     0.73503   0.58009   0.43949   0.00000  Uiso   1.00
H32    H     0.87251   0.66367   0.56606   0.00000  Uiso   1.00
H33    H     0.53548   0.60476   0.23042   0.00000  Uiso   1.00
H34    H     0.79571   0.47162   0.49352   0.00000  Uiso   1.00
H35    H     0.02697   0.75671   0.75113   0.00000  Uiso   1.00
H36    H     0.31631   0.63248   0.04342   0.00000  Uiso   1.00
H37    H     0.86507   0.35173   0.59820   0.00000  Uiso   1.00
O38    O     0.12451   0.81300   0.98834   0.00000  Uiso   1.00
O39    O     0.19215   0.65001   0.05987   0.00000  Uiso   1.00
O40    O     0.91211   0.28168   0.78773   0.00000  Uiso   1.00
N41    N     0.01857   0.74715   0.95974   0.00000  Uiso   1.00
N42    N     0.35415   0.63101   0.29808   0.00000  Uiso   1.00
N43    N     0.86716   0.36853   0.81672   0.00000  Uiso   1.00
N44    N     0.01122   0.74580   0.80073   0.00000  Uiso   1.00
N45    N     0.34680   0.62967   0.13907   0.00000  Uiso   1.00
N46    N     0.85981   0.36718   0.65771   0.00000  Uiso   1.00
C47    C     0.25267   0.08235   0.79443   0.00000  Uiso   1.00
C48    C     0.17970   0.12743   0.76323   0.00000  Uiso   1.00
C49    C     0.11427   0.16609   0.64843   0.00000  Uiso   1.00
C50    C     0.05362   0.20391   0.63878   0.00000  Uiso   1.00
C51    C     0.93964   0.27407   0.57493   0.00000  Uiso   1.00
C52    C     0.36282   0.09543   0.94559   0.00000  Uiso   1.00
C53    C     0.45135   0.10718   0.98411   0.00000  Uiso   1.00
C54    C     0.54485   0.11806   0.12798   0.00000  Uiso   1.00
C55    C     0.71519   0.13850   0.34725   0.00000  Uiso   1.00
C56    C     0.22142   0.02310   0.80263   0.00000  Uiso   1.00
C57    C     0.19108   0.97402   0.72099   0.00000  Uiso   1.00
C58    C     0.16556   0.92399   0.74452   0.00000  Uiso   1.00
C59    C     0.11635   0.83211   0.74183   0.00000  Uiso   1.00
C60    C     0.26131   0.08076   0.98143   0.00000  Uiso   1.00
C61    C     0.18440   0.12657   0.86481   0.00000  Uiso   1.00
C62    C     0.12383   0.16434   0.85533   0.00000  Uiso   1.00
C63    C     0.05832   0.20305   0.74053   0.00000  Uiso   1.00
C64    C     0.36752   0.09457   0.04716   0.00000  Uiso   1.00
C65    C     0.46092   0.10543   0.19101   0.00000  Uiso   1.00
C66    C     0.54956   0.11720   0.22974   0.00000  Uiso   1.00
C67    C     0.22611   0.02224   0.90420   0.00000  Uiso   1.00
C68    C     0.20064   0.97227   0.92787   0.00000  Uiso   1.00
C69    C     0.17027   0.92313   0.84628   0.00000  Uiso   1.00
H70    H     0.24902   0.08302   0.71536   0.00000  Uiso   1.00
H71    H     0.11066   0.16675   0.56986   0.00000  Uiso   1.00
H72    H     0.44769   0.10784   0.90549   0.00000  Uiso   1.00
H73    H     0.18745   0.97470   0.64240   0.00000  Uiso   1.00
H74    H     0.95937   0.25921   0.45336   0.00000  Uiso   1.00
H75    H     0.67002   0.13499   0.16107   0.00000  Uiso   1.00
H76    H     0.12127   0.85423   0.60629   0.00000  Uiso   1.00
H77    H     0.26497   0.08009   0.06051   0.00000  Uiso   1.00
H78    H     0.12749   0.16367   0.93394   0.00000  Uiso   1.00
H79    H     0.46452   0.10476   0.26958   0.00000  Uiso   1.00
H80    H     0.20429   0.97162   0.00648   0.00000  Uiso   1.00
H81    H     0.97303   0.25671   0.74887   0.00000  Uiso   1.00
H82    H     0.68369   0.13248   0.45658   0.00000  Uiso   1.00
H83    H     0.13493   0.85173   0.90180   0.00000  Uiso   1.00
O84    O     0.87549   0.31300   0.51166   0.00000  Uiso   1.00
O85    O     0.80785   0.15001   0.44013   0.00000  Uiso   1.00
O86    O     0.08789   0.78168   0.71227   0.00000  Uiso   1.00
N87    N     0.98143   0.24715   0.54026   0.00000  Uiso   1.00
N88    N     0.64585   0.13101   0.20192   0.00000  Uiso   1.00
N89    N     0.13284   0.86853   0.68328   0.00000  Uiso   1.00
N90    N     0.98878   0.24580   0.69927   0.00000  Uiso   1.00
N91    N     0.65320   0.12967   0.36093   0.00000  Uiso   1.00
N92    N     0.14019   0.86718   0.84229   0.00000  Uiso   1.00
C93    C     0.25267   0.41765   0.29443   0.00000  Uiso   1.00
C94    C     0.17970   0.37257   0.26323   0.00000  Uiso   1.00
C95    C     0.11427   0.33391   0.14843   0.00000  Uiso   1.00
C96    C     0.05362   0.29609   0.13878   0.00000  Uiso   1.00
C97    C     0.93964   0.22593   0.07493   0.00000  Uiso   1.00
C98    C     0.36282   0.40457   0.44559   0.00000  Uiso   1.00
C99    C     0.45135   0.39282   0.48411   0.00000  Uiso   1.00
C100   C     0.54485   0.38194   0.62798   0.00000  Uiso   1.00
C101   C     0.71519   0.36150   0.84725   0.00000  Uiso   1.00
C102   C     0.22142   0.47690   0.30263   0.00000  Uiso   1.00
C103   C     0.19108   0.52598   0.22099   0.00000  Uiso   1.00
C104   C     0.16556   0.57601   0.24452   0.00000  Uiso   1.00
C105   C     0.11635   0.66789   0.24183   0.00000  Uiso   1.00
C106   C     0.26131   0.41924   0.48143   0.00000  Uiso   1.00
C107   C     0.18440   0.37343   0.36481   0.00000  Uiso   1.00
C108   C     0.12383   0.33566   0.35533   0.00000  Uiso   1.00
C109   C     0.05832   0.29695   0.24053   0.00000  Uiso   1.00
C110   C     0.36752   0.40543   0.54716   0.00000  Uiso   1.00
C111   C     0.46092   0.39457   0.69101   0.00000  Uiso   1.00
C112   C     0.54956   0.38280   0.72974   0.00000  Uiso   1.00
C113   C     0.22611   0.47776   0.40420   0.00000  Uiso   1.00
C114   C     0.20064   0.52773   0.42787   0.00000  Uiso   1.00
C115   C     0.17027   0.57687   0.34628   0.00000  Uiso   1.00
H116   H     0.24902   0.41698   0.21536   0.00000  Uiso   1.00
H117   H     0.11066   0.33325   0.06986   0.00000  Uiso   1.00
H118   H     0.44769   0.39216   0.40549   0.00000  Uiso   1.00
H119   H     0.18745   0.52530   0.14240   0.00000  Uiso   1.00
H120   H     0.95937   0.24079   0.95336   0.00000  Uiso   1.00
H121   H     0.67002   0.36501   0.66107   0.00000  Uiso   1.00
H122   H     0.12127   0.64577   0.10629   0.00000  Uiso   1.00
H123   H     0.26497   0.41991   0.56051   0.00000  Uiso   1.00
H124   H     0.12749   0.33633   0.43394   0.00000  Uiso   1.00
H125   H     0.46452   0.39524   0.76958   0.00000  Uiso   1.00
H126   H     0.20429   0.52838   0.50648   0.00000  Uiso   1.00
H127   H     0.97303   0.24329   0.24887   0.00000  Uiso   1.00
H128   H     0.68369   0.36752   0.95658   0.00000  Uiso   1.00
H129   H     0.13493   0.64827   0.40180   0.00000  Uiso   1.00
O130   O     0.87549   0.18700   0.01166   0.00000  Uiso   1.00
O131   O     0.80785   0.34999   0.94013   0.00000  Uiso   1.00
O132   O     0.08789   0.71832   0.21227   0.00000  Uiso   1.00
N133   N     0.98143   0.25285   0.04026   0.00000  Uiso   1.00
N134   N     0.64585   0.36899   0.70192   0.00000  Uiso   1.00
N135   N     0.13284   0.63147   0.18328   0.00000  Uiso   1.00
N136   N     0.98878   0.25420   0.19927   0.00000  Uiso   1.00
N137   N     0.65320   0.37033   0.86093   0.00000  Uiso   1.00
N138   N     0.14019   0.63282   0.34229   0.00000  Uiso   1.00
C139   C     0.74733   0.91765   0.20557   0.00000  Uiso   1.00
C140   C     0.82030   0.87257   0.23677   0.00000  Uiso   1.00
C141   C     0.88573   0.83391   0.35157   0.00000  Uiso   1.00
C142   C     0.94638   0.79609   0.36122   0.00000  Uiso   1.00
C143   C     0.06036   0.72593   0.42507   0.00000  Uiso   1.00
C144   C     0.63718   0.90457   0.05441   0.00000  Uiso   1.00
C145   C     0.54865   0.89282   0.01589   0.00000  Uiso   1.00
C146   C     0.45515   0.88194   0.87202   0.00000  Uiso   1.00
C147   C     0.28481   0.86150   0.65275   0.00000  Uiso   1.00
C148   C     0.77858   0.97690   0.19737   0.00000  Uiso   1.00
C149   C     0.80892   0.02598   0.27901   0.00000  Uiso   1.00
C150   C     0.83444   0.07601   0.25548   0.00000  Uiso   1.00
C151   C     0.88365   0.16789   0.25817   0.00000  Uiso   1.00
C152   C     0.73869   0.91924   0.01857   0.00000  Uiso   1.00
C153   C     0.81560   0.87343   0.13519   0.00000  Uiso   1.00
C154   C     0.87617   0.83566   0.14467   0.00000  Uiso   1.00
C155   C     0.94168   0.79695   0.25947   0.00000  Uiso   1.00
C156   C     0.63248   0.90543   0.95284   0.00000  Uiso   1.00
C157   C     0.53908   0.89457   0.80899   0.00000  Uiso   1.00
C158   C     0.45044   0.88280   0.77026   0.00000  Uiso   1.00
C159   C     0.77389   0.97776   0.09580   0.00000  Uiso   1.00
C160   C     0.79936   0.02773   0.07213   0.00000  Uiso   1.00
C161   C     0.82973   0.07687   0.15372   0.00000  Uiso   1.00
H162   H     0.75098   0.91698   0.28464   0.00000  Uiso   1.00
H163   H     0.88934   0.83325   0.43014   0.00000  Uiso   1.00
H164   H     0.55231   0.89216   0.09451   0.00000  Uiso   1.00
H165   H     0.81255   0.02530   0.35760   0.00000  Uiso   1.00
H166   H     0.04063   0.74079   0.54664   0.00000  Uiso   1.00
H167   H     0.32998   0.86501   0.83893   0.00000  Uiso   1.00
H168   H     0.87873   0.14577   0.39371   0.00000  Uiso   1.00
H169   H     0.73503   0.91991   0.93949   0.00000  Uiso   1.00
H170   H     0.87251   0.83633   0.06606   0.00000  Uiso   1.00
H171   H     0.53548   0.89524   0.73042   0.00000  Uiso   1.00
H172   H     0.79571   0.02838   0.99352   0.00000  Uiso   1.00
H173   H     0.02697   0.74329   0.25113   0.00000  Uiso   1.00
H174   H     0.31631   0.86752   0.54342   0.00000  Uiso   1.00
H175   H     0.86507   0.14827   0.09820   0.00000  Uiso   1.00
O176   O     0.12451   0.68700   0.48834   0.00000  Uiso   1.00
O177   O     0.19215   0.84999   0.55987   0.00000  Uiso   1.00
O178   O     0.91211   0.21832   0.28773   0.00000  Uiso   1.00
N179   N     0.01857   0.75285   0.45974   0.00000  Uiso   1.00
N180   N     0.35415   0.86899   0.79808   0.00000  Uiso   1.00
N181   N     0.86716   0.13147   0.31672   0.00000  Uiso   1.00
N182   N     0.01122   0.75420   0.30073   0.00000  Uiso   1.00
N183   N     0.34680   0.87033   0.63907   0.00000  Uiso   1.00
N184   N     0.85981   0.13282   0.15771   0.00000  Uiso   1.00
