data_job_04413
_audit_creation_date              2018-12-19
_audit_creation_method            'Materials Studio'
_symmetry_space_group_name_H-M    'P1'
_symmetry_Int_Tables_number       1
_symmetry_cell_setting            triclinic
loop_
_symmetry_equiv_pos_as_xyz
  x,y,z
_cell_length_a                    12.3021
_cell_length_b                    14.1262
_cell_length_c                    32.1643
_cell_angle_alpha                 90.0000
_cell_angle_beta                  114.6263
_cell_angle_gamma                 90.0000
loop_
_atom_site_label
_atom_site_type_symbol
_atom_site_fract_x
_atom_site_fract_y
_atom_site_fract_z
_atom_site_U_iso_or_equiv
_atom_site_adp_type
_atom_site_occupancy
C1     C     0.87675   0.42017   0.81905   0.00000  Uiso   1.00
C2     C     0.83212   0.51783   0.79900   0.00000  Uiso   1.00
C3     C     0.79134   0.54260   0.75323   0.00000  Uiso   1.00
C4     C     0.75441   0.63557   0.74177   0.00000  Uiso   1.00
C5     C     0.68460   0.77722   0.70560   0.00000  Uiso   1.00
C6     C     0.00269   0.43494   0.85610   0.00000  Uiso   1.00
C7     C     0.10531   0.39000   0.85834   0.00000  Uiso   1.00
C8     C     0.21195   0.41319   0.89496   0.00000  Uiso   1.00
C9     C     0.40694   0.42610   0.94745   0.00000  Uiso   1.00
C10    C     0.80018   0.39070   0.84388   0.00000  Uiso   1.00
C11    C     0.73256   0.30856   0.83585   0.00000  Uiso   1.00
C12    C     0.66873   0.29449   0.86218   0.00000  Uiso   1.00
C13    C     0.54930   0.23871   0.89570   0.00000  Uiso   1.00
C14    C     0.88366   0.54122   0.88009   0.00000  Uiso   1.00
C15    C     0.83588   0.58358   0.83216   0.00000  Uiso   1.00
C16    C     0.79899   0.67654   0.82076   0.00000  Uiso   1.00
C17    C     0.75816   0.70144   0.77498   0.00000  Uiso   1.00
C18    C     0.00644   0.50069   0.88925   0.00000  Uiso   1.00
C19    C     0.11296   0.52394   0.92588   0.00000  Uiso   1.00
C20    C     0.21572   0.47906   0.92817   0.00000  Uiso   1.00
C21    C     0.80393   0.45645   0.87703   0.00000  Uiso   1.00
C22    C     0.74020   0.44250   0.90339   0.00000  Uiso   1.00
C23    C     0.67249   0.36036   0.89540   0.00000  Uiso   1.00
H24    H     0.87384   0.36897   0.79323   0.00000  Uiso   1.00
H25    H     0.78846   0.49169   0.72758   0.00000  Uiso   1.00
H26    H     0.10238   0.33912   0.83268   0.00000  Uiso   1.00
H27    H     0.72968   0.25769   0.81019   0.00000  Uiso   1.00
H28    H     0.69551   0.65676   0.66941   0.00000  Uiso   1.00
H29    H     0.35741   0.33502   0.89103   0.00000  Uiso   1.00
H30    H     0.57151   0.16331   0.84361   0.00000  Uiso   1.00
H31    H     0.88658   0.59242   0.90591   0.00000  Uiso   1.00
H32    H     0.80190   0.72741   0.84643   0.00000  Uiso   1.00
H33    H     0.11582   0.57483   0.95153   0.00000  Uiso   1.00
H34    H     0.74313   0.49340   0.92904   0.00000  Uiso   1.00
H35    H     0.70642   0.84808   0.76588   0.00000  Uiso   1.00
H36    H     0.36833   0.52633   0.98749   0.00000  Uiso   1.00
H37    H     0.58242   0.35462   0.94007   0.00000  Uiso   1.00
O38    O     0.64507   0.83720   0.67649   0.00000  Uiso   1.00
O39    O     0.51346   0.41507   0.96725   0.00000  Uiso   1.00
O40    O     0.48237   0.18979   0.90503   0.00000  Uiso   1.00
N41    N     0.70968   0.68326   0.70028   0.00000  Uiso   1.00
N42    N     0.32852   0.38246   0.90747   0.00000  Uiso   1.00
N43    N     0.59379   0.22191   0.86315   0.00000  Uiso   1.00
N44    N     0.71555   0.78620   0.75218   0.00000  Uiso   1.00
N45    N     0.33439   0.48540   0.95938   0.00000  Uiso   1.00
N46    N     0.59966   0.32485   0.91505   0.00000  Uiso   1.00
C47    C     0.59953   0.64824   0.38530   0.00000  Uiso   1.00
C48    C     0.55105   0.74187   0.36106   0.00000  Uiso   1.00
C49    C     0.51015   0.75807   0.31443   0.00000  Uiso   1.00
C50    C     0.46938   0.84862   0.29894   0.00000  Uiso   1.00
C51    C     0.39412   0.98311   0.25673   0.00000  Uiso   1.00
C52    C     0.72437   0.66958   0.42181   0.00000  Uiso   1.00
C53    C     0.82918   0.62498   0.42627   0.00000  Uiso   1.00
C54    C     0.93431   0.65467   0.46193   0.00000  Uiso   1.00
C55    C     0.12812   0.67686   0.51406   0.00000  Uiso   1.00
C56    C     0.52341   0.62374   0.41100   0.00000  Uiso   1.00
C57    C     0.45929   0.54060   0.40638   0.00000  Uiso   1.00
C58    C     0.39525   0.53169   0.43295   0.00000  Uiso   1.00
C59    C     0.27706   0.48272   0.46829   0.00000  Uiso   1.00
C60    C     0.59985   0.78024   0.44071   0.00000  Uiso   1.00
C61    C     0.55122   0.81357   0.39116   0.00000  Uiso   1.00
C62    C     0.51050   0.90412   0.37574   0.00000  Uiso   1.00
C63    C     0.46954   0.92045   0.32910   0.00000  Uiso   1.00
C64    C     0.72454   0.74127   0.45191   0.00000  Uiso   1.00
C65    C     0.82953   0.77102   0.48758   0.00000  Uiso   1.00
C66    C     0.93449   0.72649   0.49208   0.00000  Uiso   1.00
C67    C     0.52358   0.69544   0.44110   0.00000  Uiso   1.00
C68    C     0.45964   0.68665   0.46768   0.00000  Uiso   1.00
C69    C     0.39543   0.60351   0.46310   0.00000  Uiso   1.00
H70    H     0.59941   0.59243   0.36187   0.00000  Uiso   1.00
H71    H     0.51004   0.70257   0.29115   0.00000  Uiso   1.00
H72    H     0.82902   0.56950   0.40298   0.00000  Uiso   1.00
H73    H     0.45918   0.48513   0.38309   0.00000  Uiso   1.00
H74    H     0.41108   0.85632   0.22602   0.00000  Uiso   1.00
H75    H     0.08366   0.57570   0.46182   0.00000  Uiso   1.00
H76    H     0.30379   0.39780   0.41988   0.00000  Uiso   1.00
H77    H     0.59999   0.83606   0.46415   0.00000  Uiso   1.00
H78    H     0.51064   0.95958   0.39904   0.00000  Uiso   1.00
H79    H     0.82963   0.82650   0.51086   0.00000  Uiso   1.00
H80    H     0.45979   0.74214   0.49097   0.00000  Uiso   1.00
H81    H     0.41157   0.06492   0.31359   0.00000  Uiso   1.00
H82    H     0.08416   0.78429   0.54939   0.00000  Uiso   1.00
H83    H     0.30428   0.60640   0.50744   0.00000  Uiso   1.00
O84    O     0.35258   0.03749   0.22513   0.00000  Uiso   1.00
O85    O     0.23498   0.66930   0.53449   0.00000  Uiso   1.00
O86    O     0.21180   0.43591   0.47946   0.00000  Uiso   1.00
N87    N     0.42343   0.88846   0.25556   0.00000  Uiso   1.00
N88    N     0.05226   0.62610   0.47602   0.00000  Uiso   1.00
N89    N     0.32317   0.45977   0.43681   0.00000  Uiso   1.00
N90    N     0.42370   0.00070   0.30268   0.00000  Uiso   1.00
N91    N     0.05253   0.73835   0.52313   0.00000  Uiso   1.00
N92    N     0.32344   0.57202   0.48393   0.00000  Uiso   1.00
C93    C     0.12325   0.92017   0.68095   0.00000  Uiso   1.00
C94    C     0.16788   0.01783   0.70100   0.00000  Uiso   1.00
C95    C     0.20866   0.04260   0.74677   0.00000  Uiso   1.00
C96    C     0.24559   0.13557   0.75823   0.00000  Uiso   1.00
C97    C     0.31540   0.27722   0.79440   0.00000  Uiso   1.00
C98    C     0.99731   0.93494   0.64390   0.00000  Uiso   1.00
C99    C     0.89469   0.89000   0.64166   0.00000  Uiso   1.00
C100   C     0.78805   0.91319   0.60504   0.00000  Uiso   1.00
C101   C     0.59306   0.92610   0.55255   0.00000  Uiso   1.00
C102   C     0.19982   0.89070   0.65612   0.00000  Uiso   1.00
C103   C     0.26744   0.80856   0.66415   0.00000  Uiso   1.00
C104   C     0.33127   0.79449   0.63782   0.00000  Uiso   1.00
C105   C     0.45070   0.73871   0.60430   0.00000  Uiso   1.00
C106   C     0.11634   0.04122   0.61991   0.00000  Uiso   1.00
C107   C     0.16412   0.08358   0.66784   0.00000  Uiso   1.00
C108   C     0.20101   0.17654   0.67924   0.00000  Uiso   1.00
C109   C     0.24184   0.20144   0.72502   0.00000  Uiso   1.00
C110   C     0.99356   0.00069   0.61075   0.00000  Uiso   1.00
C111   C     0.88704   0.02394   0.57412   0.00000  Uiso   1.00
C112   C     0.78428   0.97906   0.57183   0.00000  Uiso   1.00
C113   C     0.19607   0.95645   0.62297   0.00000  Uiso   1.00
C114   C     0.25980   0.94250   0.59661   0.00000  Uiso   1.00
C115   C     0.32751   0.86036   0.60460   0.00000  Uiso   1.00
H116   H     0.12616   0.86897   0.70677   0.00000  Uiso   1.00
H117   H     0.21154   0.99169   0.77242   0.00000  Uiso   1.00
H118   H     0.89762   0.83912   0.66732   0.00000  Uiso   1.00
H119   H     0.27032   0.75769   0.68981   0.00000  Uiso   1.00
H120   H     0.30449   0.15676   0.83059   0.00000  Uiso   1.00
H121   H     0.64259   0.83502   0.60897   0.00000  Uiso   1.00
H122   H     0.42849   0.66331   0.65639   0.00000  Uiso   1.00
H123   H     0.11342   0.09242   0.59409   0.00000  Uiso   1.00
H124   H     0.19810   0.22741   0.65357   0.00000  Uiso   1.00
H125   H     0.88418   0.07483   0.54847   0.00000  Uiso   1.00
H126   H     0.25687   0.99340   0.57096   0.00000  Uiso   1.00
H127   H     0.29358   0.34808   0.73412   0.00000  Uiso   1.00
H128   H     0.63167   0.02633   0.51251   0.00000  Uiso   1.00
H129   H     0.41758   0.85462   0.55993   0.00000  Uiso   1.00
O130   O     0.35493   0.33720   0.82351   0.00000  Uiso   1.00
O131   O     0.48654   0.91507   0.53275   0.00000  Uiso   1.00
O132   O     0.51763   0.68979   0.59497   0.00000  Uiso   1.00
N133   N     0.29032   0.18326   0.79972   0.00000  Uiso   1.00
N134   N     0.67148   0.88246   0.59253   0.00000  Uiso   1.00
N135   N     0.40621   0.72191   0.63685   0.00000  Uiso   1.00
N136   N     0.28445   0.28620   0.74782   0.00000  Uiso   1.00
N137   N     0.66561   0.98540   0.54062   0.00000  Uiso   1.00
N138   N     0.40034   0.82485   0.58495   0.00000  Uiso   1.00
C139   C     0.40047   0.14824   0.11470   0.00000  Uiso   1.00
C140   C     0.44895   0.24187   0.13894   0.00000  Uiso   1.00
C141   C     0.48985   0.25807   0.18557   0.00000  Uiso   1.00
C142   C     0.53062   0.34862   0.20106   0.00000  Uiso   1.00
C143   C     0.60588   0.48311   0.24327   0.00000  Uiso   1.00
C144   C     0.27563   0.16958   0.07819   0.00000  Uiso   1.00
C145   C     0.17082   0.12498   0.07373   0.00000  Uiso   1.00
C146   C     0.06569   0.15467   0.03807   0.00000  Uiso   1.00
C147   C     0.87188   0.17686   0.98594   0.00000  Uiso   1.00
C148   C     0.47659   0.12374   0.08900   0.00000  Uiso   1.00
C149   C     0.54071   0.04060   0.09362   0.00000  Uiso   1.00
C150   C     0.60475   0.03169   0.06705   0.00000  Uiso   1.00
C151   C     0.72294   0.98272   0.03171   0.00000  Uiso   1.00
C152   C     0.40015   0.28024   0.05929   0.00000  Uiso   1.00
C153   C     0.44878   0.31357   0.10884   0.00000  Uiso   1.00
C154   C     0.48950   0.40412   0.12426   0.00000  Uiso   1.00
C155   C     0.53046   0.42045   0.17090   0.00000  Uiso   1.00
C156   C     0.27546   0.24127   0.04809   0.00000  Uiso   1.00
C157   C     0.17047   0.27102   0.01242   0.00000  Uiso   1.00
C158   C     0.06551   0.22649   0.00792   0.00000  Uiso   1.00
C159   C     0.47642   0.19544   0.05890   0.00000  Uiso   1.00
C160   C     0.54036   0.18665   0.03232   0.00000  Uiso   1.00
C161   C     0.60457   0.10351   0.03690   0.00000  Uiso   1.00
H162   H     0.40059   0.09243   0.13813   0.00000  Uiso   1.00
H163   H     0.48996   0.20257   0.20885   0.00000  Uiso   1.00
H164   H     0.17098   0.06950   0.09702   0.00000  Uiso   1.00
H165   H     0.54082   0.98513   0.11691   0.00000  Uiso   1.00
H166   H     0.58892   0.35632   0.27398   0.00000  Uiso   1.00
H167   H     0.91634   0.07570   0.03818   0.00000  Uiso   1.00
H168   H     0.69621   0.89780   0.08012   0.00000  Uiso   1.00
H169   H     0.40001   0.33606   0.03585   0.00000  Uiso   1.00
H170   H     0.48936   0.45958   0.10096   0.00000  Uiso   1.00
H171   H     0.17037   0.32650   0.98914   0.00000  Uiso   1.00
H172   H     0.54021   0.24214   0.00903   0.00000  Uiso   1.00
H173   H     0.58843   0.56492   0.18641   0.00000  Uiso   1.00
H174   H     0.91584   0.28429   0.95061   0.00000  Uiso   1.00
H175   H     0.69572   0.10640   0.99256   0.00000  Uiso   1.00
O176   O     0.64742   0.53749   0.27487   0.00000  Uiso   1.00
O177   O     0.76502   0.16930   0.96551   0.00000  Uiso   1.00
O178   O     0.78820   0.93591   0.02054   0.00000  Uiso   1.00
N179   N     0.57657   0.38846   0.24444   0.00000  Uiso   1.00
N180   N     0.94774   0.12610   0.02398   0.00000  Uiso   1.00
N181   N     0.67683   0.95977   0.06319   0.00000  Uiso   1.00
N182   N     0.57630   0.50070   0.19732   0.00000  Uiso   1.00
N183   N     0.94747   0.23835   0.97687   0.00000  Uiso   1.00
N184   N     0.67656   0.07202   0.01607   0.00000  Uiso   1.00
C185   C     0.12325   0.57983   0.18095   0.00000  Uiso   1.00
C186   C     0.16788   0.48217   0.20100   0.00000  Uiso   1.00
C187   C     0.20866   0.45740   0.24677   0.00000  Uiso   1.00
C188   C     0.24559   0.36443   0.25823   0.00000  Uiso   1.00
C189   C     0.31540   0.22278   0.29440   0.00000  Uiso   1.00
C190   C     0.99731   0.56506   0.14390   0.00000  Uiso   1.00
C191   C     0.89469   0.61000   0.14166   0.00000  Uiso   1.00
C192   C     0.78805   0.58681   0.10504   0.00000  Uiso   1.00
C193   C     0.59306   0.57390   0.05255   0.00000  Uiso   1.00
C194   C     0.19982   0.60930   0.15612   0.00000  Uiso   1.00
C195   C     0.26744   0.69144   0.16415   0.00000  Uiso   1.00
C196   C     0.33127   0.70551   0.13782   0.00000  Uiso   1.00
C197   C     0.45070   0.76129   0.10430   0.00000  Uiso   1.00
C198   C     0.11634   0.45878   0.11991   0.00000  Uiso   1.00
C199   C     0.16412   0.41642   0.16784   0.00000  Uiso   1.00
C200   C     0.20101   0.32346   0.17924   0.00000  Uiso   1.00
C201   C     0.24184   0.29856   0.22502   0.00000  Uiso   1.00
C202   C     0.99356   0.49931   0.11075   0.00000  Uiso   1.00
C203   C     0.88704   0.47606   0.07412   0.00000  Uiso   1.00
C204   C     0.78428   0.52094   0.07183   0.00000  Uiso   1.00
C205   C     0.19607   0.54355   0.12297   0.00000  Uiso   1.00
C206   C     0.25980   0.55750   0.09661   0.00000  Uiso   1.00
C207   C     0.32751   0.63964   0.10460   0.00000  Uiso   1.00
H208   H     0.12616   0.63103   0.20677   0.00000  Uiso   1.00
H209   H     0.21154   0.50831   0.27242   0.00000  Uiso   1.00
H210   H     0.89762   0.66088   0.16732   0.00000  Uiso   1.00
H211   H     0.27032   0.74231   0.18981   0.00000  Uiso   1.00
H212   H     0.30449   0.34324   0.33059   0.00000  Uiso   1.00
H213   H     0.64259   0.66498   0.10897   0.00000  Uiso   1.00
H214   H     0.42849   0.83669   0.15639   0.00000  Uiso   1.00
H215   H     0.11342   0.40758   0.09409   0.00000  Uiso   1.00
H216   H     0.19810   0.27259   0.15357   0.00000  Uiso   1.00
H217   H     0.88418   0.42517   0.04847   0.00000  Uiso   1.00
H218   H     0.25687   0.50660   0.07096   0.00000  Uiso   1.00
H219   H     0.29358   0.15192   0.23412   0.00000  Uiso   1.00
H220   H     0.63167   0.47367   0.01251   0.00000  Uiso   1.00
H221   H     0.41758   0.64538   0.05993   0.00000  Uiso   1.00
O222   O     0.35493   0.16280   0.32351   0.00000  Uiso   1.00
O223   O     0.48654   0.58493   0.03275   0.00000  Uiso   1.00
O224   O     0.51763   0.81021   0.09497   0.00000  Uiso   1.00
N225   N     0.29032   0.31674   0.29972   0.00000  Uiso   1.00
N226   N     0.67148   0.61754   0.09253   0.00000  Uiso   1.00
N227   N     0.40621   0.77809   0.13685   0.00000  Uiso   1.00
N228   N     0.28445   0.21380   0.24782   0.00000  Uiso   1.00
N229   N     0.66561   0.51460   0.04062   0.00000  Uiso   1.00
N230   N     0.40034   0.67515   0.08495   0.00000  Uiso   1.00
C231   C     0.40047   0.35176   0.61470   0.00000  Uiso   1.00
C232   C     0.44895   0.25813   0.63894   0.00000  Uiso   1.00
C233   C     0.48985   0.24193   0.68557   0.00000  Uiso   1.00
C234   C     0.53062   0.15138   0.70106   0.00000  Uiso   1.00
C235   C     0.60588   0.01689   0.74327   0.00000  Uiso   1.00
C236   C     0.27563   0.33042   0.57819   0.00000  Uiso   1.00
C237   C     0.17082   0.37502   0.57373   0.00000  Uiso   1.00
C238   C     0.06569   0.34533   0.53807   0.00000  Uiso   1.00
C239   C     0.87188   0.32314   0.48594   0.00000  Uiso   1.00
C240   C     0.47659   0.37626   0.58900   0.00000  Uiso   1.00
C241   C     0.54071   0.45940   0.59362   0.00000  Uiso   1.00
C242   C     0.60475   0.46831   0.56705   0.00000  Uiso   1.00
C243   C     0.72294   0.51728   0.53171   0.00000  Uiso   1.00
C244   C     0.40015   0.21976   0.55929   0.00000  Uiso   1.00
C245   C     0.44878   0.18643   0.60884   0.00000  Uiso   1.00
C246   C     0.48950   0.09588   0.62426   0.00000  Uiso   1.00
C247   C     0.53046   0.07955   0.67090   0.00000  Uiso   1.00
C248   C     0.27546   0.25873   0.54809   0.00000  Uiso   1.00
C249   C     0.17047   0.22898   0.51242   0.00000  Uiso   1.00
C250   C     0.06551   0.27351   0.50792   0.00000  Uiso   1.00
C251   C     0.47642   0.30456   0.55890   0.00000  Uiso   1.00
C252   C     0.54036   0.31335   0.53232   0.00000  Uiso   1.00
C253   C     0.60457   0.39649   0.53690   0.00000  Uiso   1.00
H254   H     0.40059   0.40757   0.63813   0.00000  Uiso   1.00
H255   H     0.48996   0.29743   0.70885   0.00000  Uiso   1.00
H256   H     0.17098   0.43050   0.59702   0.00000  Uiso   1.00
H257   H     0.54082   0.51487   0.61691   0.00000  Uiso   1.00
H258   H     0.58892   0.14368   0.77398   0.00000  Uiso   1.00
H259   H     0.91634   0.42430   0.53818   0.00000  Uiso   1.00
H260   H     0.69621   0.60220   0.58012   0.00000  Uiso   1.00
H261   H     0.40001   0.16394   0.53585   0.00000  Uiso   1.00
H262   H     0.48936   0.04042   0.60096   0.00000  Uiso   1.00
H263   H     0.17037   0.17350   0.48914   0.00000  Uiso   1.00
H264   H     0.54021   0.25786   0.50903   0.00000  Uiso   1.00
H265   H     0.58843   0.93508   0.68641   0.00000  Uiso   1.00
H266   H     0.91584   0.21571   0.45061   0.00000  Uiso   1.00
H267   H     0.69572   0.39360   0.49256   0.00000  Uiso   1.00
O268   O     0.64742   0.96251   0.77487   0.00000  Uiso   1.00
O269   O     0.76502   0.33070   0.46551   0.00000  Uiso   1.00
O270   O     0.78820   0.56409   0.52054   0.00000  Uiso   1.00
N271   N     0.57657   0.11154   0.74444   0.00000  Uiso   1.00
N272   N     0.94774   0.37390   0.52398   0.00000  Uiso   1.00
N273   N     0.67683   0.54023   0.56319   0.00000  Uiso   1.00
N274   N     0.57630   0.99930   0.69732   0.00000  Uiso   1.00
N275   N     0.94747   0.26165   0.47687   0.00000  Uiso   1.00
N276   N     0.67656   0.42798   0.51607   0.00000  Uiso   1.00
C277   C     0.87675   0.07983   0.31905   0.00000  Uiso   1.00
C278   C     0.83212   0.98217   0.29900   0.00000  Uiso   1.00
C279   C     0.79134   0.95740   0.25323   0.00000  Uiso   1.00
C280   C     0.75441   0.86443   0.24177   0.00000  Uiso   1.00
C281   C     0.68460   0.72278   0.20560   0.00000  Uiso   1.00
C282   C     0.00269   0.06506   0.35610   0.00000  Uiso   1.00
C283   C     0.10531   0.11000   0.35834   0.00000  Uiso   1.00
C284   C     0.21195   0.08681   0.39496   0.00000  Uiso   1.00
C285   C     0.40694   0.07390   0.44745   0.00000  Uiso   1.00
C286   C     0.80018   0.10930   0.34388   0.00000  Uiso   1.00
C287   C     0.73256   0.19144   0.33585   0.00000  Uiso   1.00
C288   C     0.66873   0.20551   0.36218   0.00000  Uiso   1.00
C289   C     0.54930   0.26129   0.39570   0.00000  Uiso   1.00
C290   C     0.88366   0.95878   0.38009   0.00000  Uiso   1.00
C291   C     0.83588   0.91642   0.33216   0.00000  Uiso   1.00
C292   C     0.79899   0.82346   0.32076   0.00000  Uiso   1.00
C293   C     0.75816   0.79856   0.27498   0.00000  Uiso   1.00
C294   C     0.00644   0.99931   0.38925   0.00000  Uiso   1.00
C295   C     0.11296   0.97606   0.42588   0.00000  Uiso   1.00
C296   C     0.21572   0.02094   0.42817   0.00000  Uiso   1.00
C297   C     0.80393   0.04355   0.37703   0.00000  Uiso   1.00
C298   C     0.74020   0.05750   0.40339   0.00000  Uiso   1.00
C299   C     0.67249   0.13964   0.39540   0.00000  Uiso   1.00
H300   H     0.87384   0.13103   0.29323   0.00000  Uiso   1.00
H301   H     0.78846   0.00831   0.22758   0.00000  Uiso   1.00
H302   H     0.10238   0.16088   0.33268   0.00000  Uiso   1.00
H303   H     0.72968   0.24231   0.31019   0.00000  Uiso   1.00
H304   H     0.69551   0.84324   0.16941   0.00000  Uiso   1.00
H305   H     0.35741   0.16498   0.39103   0.00000  Uiso   1.00
H306   H     0.57151   0.33669   0.34361   0.00000  Uiso   1.00
H307   H     0.88658   0.90758   0.40591   0.00000  Uiso   1.00
H308   H     0.80190   0.77259   0.34643   0.00000  Uiso   1.00
H309   H     0.11582   0.92517   0.45153   0.00000  Uiso   1.00
H310   H     0.74313   0.00660   0.42904   0.00000  Uiso   1.00
H311   H     0.70642   0.65192   0.26588   0.00000  Uiso   1.00
H312   H     0.36833   0.97367   0.48749   0.00000  Uiso   1.00
H313   H     0.58242   0.14538   0.44007   0.00000  Uiso   1.00
O314   O     0.64507   0.66280   0.17649   0.00000  Uiso   1.00
O315   O     0.51346   0.08493   0.46725   0.00000  Uiso   1.00
O316   O     0.48237   0.31021   0.40503   0.00000  Uiso   1.00
N317   N     0.70968   0.81674   0.20028   0.00000  Uiso   1.00
N318   N     0.32852   0.11754   0.40747   0.00000  Uiso   1.00
N319   N     0.59379   0.27809   0.36315   0.00000  Uiso   1.00
N320   N     0.71555   0.71380   0.25218   0.00000  Uiso   1.00
N321   N     0.33439   0.01460   0.45938   0.00000  Uiso   1.00
N322   N     0.59966   0.17515   0.41505   0.00000  Uiso   1.00
C323   C     0.59953   0.85176   0.88530   0.00000  Uiso   1.00
C324   C     0.55105   0.75813   0.86106   0.00000  Uiso   1.00
C325   C     0.51015   0.74193   0.81443   0.00000  Uiso   1.00
C326   C     0.46938   0.65138   0.79894   0.00000  Uiso   1.00
C327   C     0.39412   0.51689   0.75673   0.00000  Uiso   1.00
C328   C     0.72437   0.83042   0.92181   0.00000  Uiso   1.00
C329   C     0.82918   0.87502   0.92627   0.00000  Uiso   1.00
C330   C     0.93431   0.84533   0.96193   0.00000  Uiso   1.00
C331   C     0.12812   0.82314   0.01406   0.00000  Uiso   1.00
C332   C     0.52341   0.87626   0.91100   0.00000  Uiso   1.00
C333   C     0.45929   0.95940   0.90638   0.00000  Uiso   1.00
C334   C     0.39525   0.96831   0.93295   0.00000  Uiso   1.00
C335   C     0.27706   0.01728   0.96829   0.00000  Uiso   1.00
C336   C     0.59985   0.71976   0.94071   0.00000  Uiso   1.00
C337   C     0.55122   0.68643   0.89116   0.00000  Uiso   1.00
C338   C     0.51050   0.59588   0.87574   0.00000  Uiso   1.00
C339   C     0.46954   0.57955   0.82910   0.00000  Uiso   1.00
C340   C     0.72454   0.75873   0.95191   0.00000  Uiso   1.00
C341   C     0.82953   0.72898   0.98758   0.00000  Uiso   1.00
C342   C     0.93449   0.77351   0.99208   0.00000  Uiso   1.00
C343   C     0.52358   0.80456   0.94110   0.00000  Uiso   1.00
C344   C     0.45964   0.81335   0.96768   0.00000  Uiso   1.00
C345   C     0.39543   0.89649   0.96310   0.00000  Uiso   1.00
H346   H     0.59941   0.90757   0.86187   0.00000  Uiso   1.00
H347   H     0.51004   0.79743   0.79115   0.00000  Uiso   1.00
H348   H     0.82902   0.93050   0.90298   0.00000  Uiso   1.00
H349   H     0.45918   0.01487   0.88309   0.00000  Uiso   1.00
H350   H     0.41108   0.64368   0.72602   0.00000  Uiso   1.00
H351   H     0.08366   0.92430   0.96182   0.00000  Uiso   1.00
H352   H     0.30379   0.10220   0.91988   0.00000  Uiso   1.00
H353   H     0.59999   0.66394   0.96415   0.00000  Uiso   1.00
H354   H     0.51064   0.54042   0.89904   0.00000  Uiso   1.00
H355   H     0.82963   0.67350   0.01086   0.00000  Uiso   1.00
H356   H     0.45979   0.75786   0.99097   0.00000  Uiso   1.00
H357   H     0.41157   0.43508   0.81359   0.00000  Uiso   1.00
H358   H     0.08416   0.71571   0.04939   0.00000  Uiso   1.00
H359   H     0.30428   0.89360   0.00744   0.00000  Uiso   1.00
O360   O     0.35258   0.46251   0.72513   0.00000  Uiso   1.00
O361   O     0.23498   0.83070   0.03449   0.00000  Uiso   1.00
O362   O     0.21180   0.06409   0.97946   0.00000  Uiso   1.00
N363   N     0.42343   0.61154   0.75556   0.00000  Uiso   1.00
N364   N     0.05226   0.87390   0.97602   0.00000  Uiso   1.00
N365   N     0.32317   0.04023   0.93681   0.00000  Uiso   1.00
N366   N     0.42370   0.49930   0.80268   0.00000  Uiso   1.00
N367   N     0.05253   0.76165   0.02313   0.00000  Uiso   1.00
N368   N     0.32344   0.92798   0.98393   0.00000  Uiso   1.00
