data_job_05855
_audit_creation_date              2018-12-19
_audit_creation_method            'Materials Studio'
_symmetry_space_group_name_H-M    'P1'
_symmetry_Int_Tables_number       1
_symmetry_cell_setting            triclinic
loop_
_symmetry_equiv_pos_as_xyz
  x,y,z
_cell_length_a                    34.9485
_cell_length_b                    34.9485
_cell_length_c                    7.3579
_cell_angle_alpha                 90.0000
_cell_angle_beta                  90.0000
_cell_angle_gamma                 90.0000
loop_
_atom_site_label
_atom_site_type_symbol
_atom_site_fract_x
_atom_site_fract_y
_atom_site_fract_z
_atom_site_U_iso_or_equiv
_atom_site_adp_type
_atom_site_occupancy
C1     C     0.57137   0.18128   0.17476   0.00000  Uiso   1.00
C2     C     0.54004   0.20652   0.09455   0.00000  Uiso   1.00
C3     C     0.51367   0.22776   0.19309   0.00000  Uiso   1.00
C4     C     0.48730   0.24901   0.09445   0.00000  Uiso   1.00
C5     C     0.43863   0.28819   0.99885   0.00000  Uiso   1.00
C6     C     0.56518   0.14151   0.09478   0.00000  Uiso   1.00
C7     C     0.55995   0.10808   0.19351   0.00000  Uiso   1.00
C8     C     0.55475   0.07459   0.09505   0.00000  Uiso   1.00
C9     C     0.54514   0.01282   0.99982   0.00000  Uiso   1.00
C10    C     0.60892   0.19578   0.09482   0.00000  Uiso   1.00
C11    C     0.64048   0.20798   0.19358   0.00000  Uiso   1.00
C12    C     0.67210   0.22018   0.09515   0.00000  Uiso   1.00
C13    C     0.73041   0.24270   0.99998   0.00000  Uiso   1.00
C14    C     0.57142   0.18125   0.82435   0.00000  Uiso   1.00
C15    C     0.54007   0.20650   0.90422   0.00000  Uiso   1.00
C16    C     0.51373   0.22772   0.80540   0.00000  Uiso   1.00
C17    C     0.48733   0.24899   0.90378   0.00000  Uiso   1.00
C18    C     0.56521   0.14149   0.90445   0.00000  Uiso   1.00
C19    C     0.56001   0.10804   0.80583   0.00000  Uiso   1.00
C20    C     0.55478   0.07457   0.90438   0.00000  Uiso   1.00
C21    C     0.60895   0.19577   0.90449   0.00000  Uiso   1.00
C22    C     0.64053   0.20795   0.80589   0.00000  Uiso   1.00
C23    C     0.67213   0.22016   0.90448   0.00000  Uiso   1.00
H24    H     0.57134   0.18129   0.32294   0.00000  Uiso   1.00
H25    H     0.51365   0.22777   0.34038   0.00000  Uiso   1.00
H26    H     0.55993   0.10810   0.34080   0.00000  Uiso   1.00
H27    H     0.64044   0.20799   0.34087   0.00000  Uiso   1.00
H28    H     0.44970   0.27927   0.27579   0.00000  Uiso   1.00
H29    H     0.54729   0.02694   0.27667   0.00000  Uiso   1.00
H30    H     0.71706   0.23759   0.27682   0.00000  Uiso   1.00
H31    H     0.57145   0.18123   0.67616   0.00000  Uiso   1.00
H32    H     0.51376   0.22770   0.65811   0.00000  Uiso   1.00
H33    H     0.56004   0.10803   0.65854   0.00000  Uiso   1.00
H34    H     0.64055   0.20793   0.65860   0.00000  Uiso   1.00
H35    H     0.44978   0.27922   0.72203   0.00000  Uiso   1.00
H36    H     0.54738   0.02689   0.72292   0.00000  Uiso   1.00
H37    H     0.71715   0.23753   0.72306   0.00000  Uiso   1.00
O38    O     0.41178   0.30981   0.99871   0.00000  Uiso   1.00
O39    O     0.53983   0.97876   0.99988   0.00000  Uiso   1.00
O40    O     0.76256   0.25512   0.00006   0.00000  Uiso   1.00
N41    N     0.45764   0.27289   0.14794   0.00000  Uiso   1.00
N42    N     0.54888   0.03698   0.14877   0.00000  Uiso   1.00
N43    N     0.70760   0.23390   0.14890   0.00000  Uiso   1.00
N44    N     0.45768   0.27286   0.84997   0.00000  Uiso   1.00
N45    N     0.54893   0.03695   0.85080   0.00000  Uiso   1.00
N46    N     0.70765   0.23387   0.85093   0.00000  Uiso   1.00
C47    C     0.42863   0.81872   0.17476   0.00000  Uiso   1.00
C48    C     0.45996   0.79348   0.09455   0.00000  Uiso   1.00
C49    C     0.48633   0.77224   0.19309   0.00000  Uiso   1.00
C50    C     0.51270   0.75099   0.09445   0.00000  Uiso   1.00
C51    C     0.56137   0.71181   0.99885   0.00000  Uiso   1.00
C52    C     0.43482   0.85849   0.09478   0.00000  Uiso   1.00
C53    C     0.44005   0.89192   0.19351   0.00000  Uiso   1.00
C54    C     0.44525   0.92541   0.09505   0.00000  Uiso   1.00
C55    C     0.45486   0.98718   0.99982   0.00000  Uiso   1.00
C56    C     0.39108   0.80422   0.09482   0.00000  Uiso   1.00
C57    C     0.35952   0.79202   0.19358   0.00000  Uiso   1.00
C58    C     0.32790   0.77982   0.09515   0.00000  Uiso   1.00
C59    C     0.26959   0.75730   0.99998   0.00000  Uiso   1.00
C60    C     0.42858   0.81875   0.82435   0.00000  Uiso   1.00
C61    C     0.45993   0.79350   0.90422   0.00000  Uiso   1.00
C62    C     0.48627   0.77228   0.80540   0.00000  Uiso   1.00
C63    C     0.51267   0.75101   0.90378   0.00000  Uiso   1.00
C64    C     0.43479   0.85851   0.90445   0.00000  Uiso   1.00
C65    C     0.43999   0.89196   0.80583   0.00000  Uiso   1.00
C66    C     0.44522   0.92543   0.90438   0.00000  Uiso   1.00
C67    C     0.39105   0.80423   0.90449   0.00000  Uiso   1.00
C68    C     0.35947   0.79205   0.80589   0.00000  Uiso   1.00
C69    C     0.32787   0.77984   0.90448   0.00000  Uiso   1.00
H70    H     0.42866   0.81871   0.32294   0.00000  Uiso   1.00
H71    H     0.48635   0.77223   0.34038   0.00000  Uiso   1.00
H72    H     0.44007   0.89190   0.34080   0.00000  Uiso   1.00
H73    H     0.35956   0.79201   0.34087   0.00000  Uiso   1.00
H74    H     0.55030   0.72073   0.27579   0.00000  Uiso   1.00
H75    H     0.45271   0.97306   0.27667   0.00000  Uiso   1.00
H76    H     0.28294   0.76241   0.27682   0.00000  Uiso   1.00
H77    H     0.42855   0.81877   0.67616   0.00000  Uiso   1.00
H78    H     0.48624   0.77230   0.65811   0.00000  Uiso   1.00
H79    H     0.43996   0.89197   0.65854   0.00000  Uiso   1.00
H80    H     0.35945   0.79207   0.65860   0.00000  Uiso   1.00
H81    H     0.55022   0.72078   0.72203   0.00000  Uiso   1.00
H82    H     0.45262   0.97311   0.72292   0.00000  Uiso   1.00
H83    H     0.28285   0.76247   0.72306   0.00000  Uiso   1.00
O84    O     0.58822   0.69019   0.99871   0.00000  Uiso   1.00
O85    O     0.46017   0.02124   0.99988   0.00000  Uiso   1.00
O86    O     0.23744   0.74488   0.00006   0.00000  Uiso   1.00
N87    N     0.54236   0.72711   0.14794   0.00000  Uiso   1.00
N88    N     0.45112   0.96302   0.14877   0.00000  Uiso   1.00
N89    N     0.29240   0.76610   0.14890   0.00000  Uiso   1.00
N90    N     0.54232   0.72714   0.84997   0.00000  Uiso   1.00
N91    N     0.45107   0.96305   0.85080   0.00000  Uiso   1.00
N92    N     0.29235   0.76613   0.85093   0.00000  Uiso   1.00
C93    C     0.31872   0.07137   0.67476   0.00000  Uiso   1.00
C94    C     0.29348   0.04004   0.59455   0.00000  Uiso   1.00
C95    C     0.27224   0.01367   0.69309   0.00000  Uiso   1.00
C96    C     0.25099   0.98730   0.59445   0.00000  Uiso   1.00
C97    C     0.21181   0.93863   0.49885   0.00000  Uiso   1.00
C98    C     0.35849   0.06518   0.59478   0.00000  Uiso   1.00
C99    C     0.39192   0.05995   0.69351   0.00000  Uiso   1.00
C100   C     0.42541   0.05475   0.59505   0.00000  Uiso   1.00
C101   C     0.48718   0.04514   0.49982   0.00000  Uiso   1.00
C102   C     0.30422   0.10892   0.59482   0.00000  Uiso   1.00
C103   C     0.29202   0.14048   0.69358   0.00000  Uiso   1.00
C104   C     0.27982   0.17210   0.59515   0.00000  Uiso   1.00
C105   C     0.25730   0.23041   0.49998   0.00000  Uiso   1.00
C106   C     0.31875   0.07142   0.32435   0.00000  Uiso   1.00
C107   C     0.29350   0.04007   0.40422   0.00000  Uiso   1.00
C108   C     0.27228   0.01373   0.30540   0.00000  Uiso   1.00
C109   C     0.25101   0.98733   0.40378   0.00000  Uiso   1.00
C110   C     0.35851   0.06521   0.40445   0.00000  Uiso   1.00
C111   C     0.39196   0.06001   0.30583   0.00000  Uiso   1.00
C112   C     0.42543   0.05478   0.40438   0.00000  Uiso   1.00
C113   C     0.30423   0.10895   0.40449   0.00000  Uiso   1.00
C114   C     0.29205   0.14053   0.30589   0.00000  Uiso   1.00
C115   C     0.27984   0.17213   0.40448   0.00000  Uiso   1.00
H116   H     0.31871   0.07134   0.82294   0.00000  Uiso   1.00
H117   H     0.27223   0.01365   0.84038   0.00000  Uiso   1.00
H118   H     0.39190   0.05993   0.84080   0.00000  Uiso   1.00
H119   H     0.29201   0.14044   0.84087   0.00000  Uiso   1.00
H120   H     0.22073   0.94970   0.77579   0.00000  Uiso   1.00
H121   H     0.47306   0.04729   0.77667   0.00000  Uiso   1.00
H122   H     0.26241   0.21706   0.77682   0.00000  Uiso   1.00
H123   H     0.31877   0.07145   0.17616   0.00000  Uiso   1.00
H124   H     0.27230   0.01376   0.15811   0.00000  Uiso   1.00
H125   H     0.39197   0.06004   0.15854   0.00000  Uiso   1.00
H126   H     0.29207   0.14055   0.15860   0.00000  Uiso   1.00
H127   H     0.22078   0.94978   0.22203   0.00000  Uiso   1.00
H128   H     0.47311   0.04738   0.22292   0.00000  Uiso   1.00
H129   H     0.26247   0.21715   0.22306   0.00000  Uiso   1.00
O130   O     0.19019   0.91178   0.49871   0.00000  Uiso   1.00
O131   O     0.52124   0.03983   0.49988   0.00000  Uiso   1.00
O132   O     0.24488   0.26256   0.50006   0.00000  Uiso   1.00
N133   N     0.22711   0.95764   0.64794   0.00000  Uiso   1.00
N134   N     0.46302   0.04888   0.64877   0.00000  Uiso   1.00
N135   N     0.26610   0.20760   0.64890   0.00000  Uiso   1.00
N136   N     0.22714   0.95768   0.34997   0.00000  Uiso   1.00
N137   N     0.46305   0.04893   0.35080   0.00000  Uiso   1.00
N138   N     0.26613   0.20765   0.35093   0.00000  Uiso   1.00
C139   C     0.68128   0.92863   0.67476   0.00000  Uiso   1.00
C140   C     0.70652   0.95996   0.59455   0.00000  Uiso   1.00
C141   C     0.72776   0.98633   0.69309   0.00000  Uiso   1.00
C142   C     0.74901   0.01270   0.59445   0.00000  Uiso   1.00
C143   C     0.78819   0.06137   0.49885   0.00000  Uiso   1.00
C144   C     0.64151   0.93482   0.59478   0.00000  Uiso   1.00
C145   C     0.60808   0.94005   0.69351   0.00000  Uiso   1.00
C146   C     0.57459   0.94525   0.59505   0.00000  Uiso   1.00
C147   C     0.51282   0.95486   0.49982   0.00000  Uiso   1.00
C148   C     0.69578   0.89108   0.59482   0.00000  Uiso   1.00
C149   C     0.70798   0.85952   0.69358   0.00000  Uiso   1.00
C150   C     0.72018   0.82790   0.59515   0.00000  Uiso   1.00
C151   C     0.74270   0.76959   0.49998   0.00000  Uiso   1.00
C152   C     0.68125   0.92858   0.32435   0.00000  Uiso   1.00
C153   C     0.70650   0.95993   0.40422   0.00000  Uiso   1.00
C154   C     0.72772   0.98627   0.30540   0.00000  Uiso   1.00
C155   C     0.74899   0.01267   0.40378   0.00000  Uiso   1.00
C156   C     0.64149   0.93479   0.40445   0.00000  Uiso   1.00
C157   C     0.60804   0.93999   0.30583   0.00000  Uiso   1.00
C158   C     0.57457   0.94522   0.40438   0.00000  Uiso   1.00
C159   C     0.69577   0.89105   0.40449   0.00000  Uiso   1.00
C160   C     0.70795   0.85947   0.30589   0.00000  Uiso   1.00
C161   C     0.72016   0.82787   0.40448   0.00000  Uiso   1.00
H162   H     0.68129   0.92866   0.82294   0.00000  Uiso   1.00
H163   H     0.72777   0.98635   0.84038   0.00000  Uiso   1.00
H164   H     0.60810   0.94007   0.84080   0.00000  Uiso   1.00
H165   H     0.70799   0.85956   0.84087   0.00000  Uiso   1.00
H166   H     0.77927   0.05030   0.77579   0.00000  Uiso   1.00
H167   H     0.52694   0.95271   0.77667   0.00000  Uiso   1.00
H168   H     0.73759   0.78294   0.77682   0.00000  Uiso   1.00
H169   H     0.68123   0.92855   0.17616   0.00000  Uiso   1.00
H170   H     0.72770   0.98624   0.15811   0.00000  Uiso   1.00
H171   H     0.60803   0.93996   0.15854   0.00000  Uiso   1.00
H172   H     0.70793   0.85945   0.15860   0.00000  Uiso   1.00
H173   H     0.77922   0.05022   0.22203   0.00000  Uiso   1.00
H174   H     0.52689   0.95262   0.22292   0.00000  Uiso   1.00
H175   H     0.73753   0.78285   0.22306   0.00000  Uiso   1.00
O176   O     0.80981   0.08822   0.49871   0.00000  Uiso   1.00
O177   O     0.47876   0.96017   0.49988   0.00000  Uiso   1.00
O178   O     0.75512   0.73744   0.50006   0.00000  Uiso   1.00
N179   N     0.77289   0.04236   0.64794   0.00000  Uiso   1.00
N180   N     0.53698   0.95112   0.64877   0.00000  Uiso   1.00
N181   N     0.73390   0.79240   0.64890   0.00000  Uiso   1.00
N182   N     0.77286   0.04232   0.34997   0.00000  Uiso   1.00
N183   N     0.53695   0.95107   0.35080   0.00000  Uiso   1.00
N184   N     0.73387   0.79235   0.35093   0.00000  Uiso   1.00
C185   C     0.92863   0.31872   0.32524   0.00000  Uiso   1.00
C186   C     0.95996   0.29348   0.40545   0.00000  Uiso   1.00
C187   C     0.98633   0.27224   0.30691   0.00000  Uiso   1.00
C188   C     0.01270   0.25099   0.40555   0.00000  Uiso   1.00
C189   C     0.06137   0.21181   0.50115   0.00000  Uiso   1.00
C190   C     0.93482   0.35849   0.40522   0.00000  Uiso   1.00
C191   C     0.94005   0.39192   0.30649   0.00000  Uiso   1.00
C192   C     0.94525   0.42541   0.40495   0.00000  Uiso   1.00
C193   C     0.95486   0.48718   0.50018   0.00000  Uiso   1.00
C194   C     0.89108   0.30422   0.40518   0.00000  Uiso   1.00
C195   C     0.85952   0.29202   0.30642   0.00000  Uiso   1.00
C196   C     0.82790   0.27982   0.40485   0.00000  Uiso   1.00
C197   C     0.76959   0.25730   0.50002   0.00000  Uiso   1.00
C198   C     0.92858   0.31875   0.67565   0.00000  Uiso   1.00
C199   C     0.95993   0.29350   0.59578   0.00000  Uiso   1.00
C200   C     0.98627   0.27228   0.69460   0.00000  Uiso   1.00
C201   C     0.01267   0.25101   0.59622   0.00000  Uiso   1.00
C202   C     0.93479   0.35851   0.59555   0.00000  Uiso   1.00
C203   C     0.93999   0.39196   0.69417   0.00000  Uiso   1.00
C204   C     0.94522   0.42543   0.59562   0.00000  Uiso   1.00
C205   C     0.89105   0.30423   0.59551   0.00000  Uiso   1.00
C206   C     0.85947   0.29205   0.69411   0.00000  Uiso   1.00
C207   C     0.82787   0.27984   0.59552   0.00000  Uiso   1.00
H208   H     0.92866   0.31871   0.17706   0.00000  Uiso   1.00
H209   H     0.98635   0.27223   0.15962   0.00000  Uiso   1.00
H210   H     0.94007   0.39190   0.15920   0.00000  Uiso   1.00
H211   H     0.85956   0.29201   0.15913   0.00000  Uiso   1.00
H212   H     0.05030   0.22073   0.22421   0.00000  Uiso   1.00
H213   H     0.95271   0.47306   0.22333   0.00000  Uiso   1.00
H214   H     0.78294   0.26241   0.22318   0.00000  Uiso   1.00
H215   H     0.92855   0.31877   0.82384   0.00000  Uiso   1.00
H216   H     0.98624   0.27230   0.84189   0.00000  Uiso   1.00
H217   H     0.93996   0.39197   0.84146   0.00000  Uiso   1.00
H218   H     0.85945   0.29207   0.84140   0.00000  Uiso   1.00
H219   H     0.05022   0.22078   0.77797   0.00000  Uiso   1.00
H220   H     0.95262   0.47311   0.77708   0.00000  Uiso   1.00
H221   H     0.78285   0.26247   0.77694   0.00000  Uiso   1.00
O222   O     0.08822   0.19019   0.50129   0.00000  Uiso   1.00
O223   O     0.96017   0.52124   0.50012   0.00000  Uiso   1.00
O224   O     0.73744   0.24488   0.49994   0.00000  Uiso   1.00
N225   N     0.04236   0.22711   0.35206   0.00000  Uiso   1.00
N226   N     0.95112   0.46302   0.35123   0.00000  Uiso   1.00
N227   N     0.79240   0.26610   0.35110   0.00000  Uiso   1.00
N228   N     0.04232   0.22714   0.65003   0.00000  Uiso   1.00
N229   N     0.95107   0.46305   0.64920   0.00000  Uiso   1.00
N230   N     0.79235   0.26613   0.64907   0.00000  Uiso   1.00
C231   C     0.07137   0.68128   0.32524   0.00000  Uiso   1.00
C232   C     0.04004   0.70652   0.40545   0.00000  Uiso   1.00
C233   C     0.01367   0.72776   0.30691   0.00000  Uiso   1.00
C234   C     0.98730   0.74901   0.40555   0.00000  Uiso   1.00
C235   C     0.93863   0.78819   0.50115   0.00000  Uiso   1.00
C236   C     0.06518   0.64151   0.40522   0.00000  Uiso   1.00
C237   C     0.05995   0.60808   0.30649   0.00000  Uiso   1.00
C238   C     0.05475   0.57459   0.40495   0.00000  Uiso   1.00
C239   C     0.04514   0.51282   0.50018   0.00000  Uiso   1.00
C240   C     0.10892   0.69578   0.40518   0.00000  Uiso   1.00
C241   C     0.14048   0.70798   0.30642   0.00000  Uiso   1.00
C242   C     0.17210   0.72018   0.40485   0.00000  Uiso   1.00
C243   C     0.23041   0.74270   0.50002   0.00000  Uiso   1.00
C244   C     0.07142   0.68125   0.67565   0.00000  Uiso   1.00
C245   C     0.04007   0.70650   0.59578   0.00000  Uiso   1.00
C246   C     0.01373   0.72772   0.69460   0.00000  Uiso   1.00
C247   C     0.98733   0.74899   0.59622   0.00000  Uiso   1.00
C248   C     0.06521   0.64149   0.59555   0.00000  Uiso   1.00
C249   C     0.06001   0.60804   0.69417   0.00000  Uiso   1.00
C250   C     0.05478   0.57457   0.59562   0.00000  Uiso   1.00
C251   C     0.10895   0.69577   0.59551   0.00000  Uiso   1.00
C252   C     0.14053   0.70795   0.69411   0.00000  Uiso   1.00
C253   C     0.17213   0.72016   0.59552   0.00000  Uiso   1.00
H254   H     0.07134   0.68129   0.17706   0.00000  Uiso   1.00
H255   H     0.01365   0.72777   0.15962   0.00000  Uiso   1.00
H256   H     0.05993   0.60810   0.15920   0.00000  Uiso   1.00
H257   H     0.14044   0.70799   0.15913   0.00000  Uiso   1.00
H258   H     0.94970   0.77927   0.22421   0.00000  Uiso   1.00
H259   H     0.04729   0.52694   0.22333   0.00000  Uiso   1.00
H260   H     0.21706   0.73759   0.22318   0.00000  Uiso   1.00
H261   H     0.07145   0.68123   0.82384   0.00000  Uiso   1.00
H262   H     0.01376   0.72770   0.84189   0.00000  Uiso   1.00
H263   H     0.06004   0.60803   0.84146   0.00000  Uiso   1.00
H264   H     0.14055   0.70793   0.84140   0.00000  Uiso   1.00
H265   H     0.94978   0.77922   0.77797   0.00000  Uiso   1.00
H266   H     0.04738   0.52689   0.77708   0.00000  Uiso   1.00
H267   H     0.21715   0.73753   0.77694   0.00000  Uiso   1.00
O268   O     0.91178   0.80981   0.50129   0.00000  Uiso   1.00
O269   O     0.03983   0.47876   0.50012   0.00000  Uiso   1.00
O270   O     0.26256   0.75512   0.49994   0.00000  Uiso   1.00
N271   N     0.95764   0.77289   0.35206   0.00000  Uiso   1.00
N272   N     0.04888   0.53698   0.35123   0.00000  Uiso   1.00
N273   N     0.20760   0.73390   0.35110   0.00000  Uiso   1.00
N274   N     0.95768   0.77286   0.65003   0.00000  Uiso   1.00
N275   N     0.04893   0.53695   0.64920   0.00000  Uiso   1.00
N276   N     0.20765   0.73387   0.64907   0.00000  Uiso   1.00
C277   C     0.18128   0.42863   0.82524   0.00000  Uiso   1.00
C278   C     0.20652   0.45996   0.90545   0.00000  Uiso   1.00
C279   C     0.22776   0.48633   0.80691   0.00000  Uiso   1.00
C280   C     0.24901   0.51270   0.90555   0.00000  Uiso   1.00
C281   C     0.28819   0.56137   0.00115   0.00000  Uiso   1.00
C282   C     0.14151   0.43482   0.90522   0.00000  Uiso   1.00
C283   C     0.10808   0.44005   0.80649   0.00000  Uiso   1.00
C284   C     0.07459   0.44525   0.90495   0.00000  Uiso   1.00
C285   C     0.01282   0.45486   0.00018   0.00000  Uiso   1.00
C286   C     0.19578   0.39108   0.90518   0.00000  Uiso   1.00
C287   C     0.20798   0.35952   0.80642   0.00000  Uiso   1.00
C288   C     0.22018   0.32790   0.90485   0.00000  Uiso   1.00
C289   C     0.24270   0.26959   0.00002   0.00000  Uiso   1.00
C290   C     0.18125   0.42858   0.17565   0.00000  Uiso   1.00
C291   C     0.20650   0.45993   0.09578   0.00000  Uiso   1.00
C292   C     0.22772   0.48627   0.19460   0.00000  Uiso   1.00
C293   C     0.24899   0.51267   0.09622   0.00000  Uiso   1.00
C294   C     0.14149   0.43479   0.09555   0.00000  Uiso   1.00
C295   C     0.10804   0.43999   0.19417   0.00000  Uiso   1.00
C296   C     0.07457   0.44522   0.09562   0.00000  Uiso   1.00
C297   C     0.19577   0.39105   0.09551   0.00000  Uiso   1.00
C298   C     0.20795   0.35947   0.19411   0.00000  Uiso   1.00
C299   C     0.22016   0.32787   0.09552   0.00000  Uiso   1.00
H300   H     0.18129   0.42866   0.67706   0.00000  Uiso   1.00
H301   H     0.22777   0.48635   0.65962   0.00000  Uiso   1.00
H302   H     0.10810   0.44007   0.65920   0.00000  Uiso   1.00
H303   H     0.20799   0.35956   0.65913   0.00000  Uiso   1.00
H304   H     0.27927   0.55030   0.72421   0.00000  Uiso   1.00
H305   H     0.02694   0.45271   0.72333   0.00000  Uiso   1.00
H306   H     0.23759   0.28294   0.72318   0.00000  Uiso   1.00
H307   H     0.18123   0.42855   0.32384   0.00000  Uiso   1.00
H308   H     0.22770   0.48624   0.34189   0.00000  Uiso   1.00
H309   H     0.10803   0.43996   0.34146   0.00000  Uiso   1.00
H310   H     0.20793   0.35945   0.34140   0.00000  Uiso   1.00
H311   H     0.27922   0.55022   0.27797   0.00000  Uiso   1.00
H312   H     0.02689   0.45262   0.27708   0.00000  Uiso   1.00
H313   H     0.23753   0.28285   0.27694   0.00000  Uiso   1.00
O314   O     0.30981   0.58822   0.00129   0.00000  Uiso   1.00
O315   O     0.97876   0.46017   0.00012   0.00000  Uiso   1.00
O316   O     0.25512   0.23744   0.99994   0.00000  Uiso   1.00
N317   N     0.27289   0.54236   0.85206   0.00000  Uiso   1.00
N318   N     0.03698   0.45112   0.85123   0.00000  Uiso   1.00
N319   N     0.23390   0.29240   0.85110   0.00000  Uiso   1.00
N320   N     0.27286   0.54232   0.15003   0.00000  Uiso   1.00
N321   N     0.03695   0.45107   0.14920   0.00000  Uiso   1.00
N322   N     0.23387   0.29235   0.14907   0.00000  Uiso   1.00
C323   C     0.81872   0.57137   0.82524   0.00000  Uiso   1.00
C324   C     0.79348   0.54004   0.90545   0.00000  Uiso   1.00
C325   C     0.77224   0.51367   0.80691   0.00000  Uiso   1.00
C326   C     0.75099   0.48730   0.90555   0.00000  Uiso   1.00
C327   C     0.71181   0.43863   0.00115   0.00000  Uiso   1.00
C328   C     0.85849   0.56518   0.90522   0.00000  Uiso   1.00
C329   C     0.89192   0.55995   0.80649   0.00000  Uiso   1.00
C330   C     0.92541   0.55475   0.90495   0.00000  Uiso   1.00
C331   C     0.98718   0.54514   0.00018   0.00000  Uiso   1.00
C332   C     0.80422   0.60892   0.90518   0.00000  Uiso   1.00
C333   C     0.79202   0.64048   0.80642   0.00000  Uiso   1.00
C334   C     0.77982   0.67210   0.90485   0.00000  Uiso   1.00
C335   C     0.75730   0.73041   0.00002   0.00000  Uiso   1.00
C336   C     0.81875   0.57142   0.17565   0.00000  Uiso   1.00
C337   C     0.79350   0.54007   0.09578   0.00000  Uiso   1.00
C338   C     0.77228   0.51373   0.19460   0.00000  Uiso   1.00
C339   C     0.75101   0.48733   0.09622   0.00000  Uiso   1.00
C340   C     0.85851   0.56521   0.09555   0.00000  Uiso   1.00
C341   C     0.89196   0.56001   0.19417   0.00000  Uiso   1.00
C342   C     0.92543   0.55478   0.09562   0.00000  Uiso   1.00
C343   C     0.80423   0.60895   0.09551   0.00000  Uiso   1.00
C344   C     0.79205   0.64053   0.19411   0.00000  Uiso   1.00
C345   C     0.77984   0.67213   0.09552   0.00000  Uiso   1.00
H346   H     0.81871   0.57134   0.67706   0.00000  Uiso   1.00
H347   H     0.77223   0.51365   0.65962   0.00000  Uiso   1.00
H348   H     0.89190   0.55993   0.65920   0.00000  Uiso   1.00
H349   H     0.79201   0.64044   0.65913   0.00000  Uiso   1.00
H350   H     0.72073   0.44970   0.72421   0.00000  Uiso   1.00
H351   H     0.97306   0.54729   0.72333   0.00000  Uiso   1.00
H352   H     0.76241   0.71706   0.72318   0.00000  Uiso   1.00
H353   H     0.81877   0.57145   0.32384   0.00000  Uiso   1.00
H354   H     0.77230   0.51376   0.34189   0.00000  Uiso   1.00
H355   H     0.89197   0.56004   0.34146   0.00000  Uiso   1.00
H356   H     0.79207   0.64055   0.34140   0.00000  Uiso   1.00
H357   H     0.72078   0.44978   0.27797   0.00000  Uiso   1.00
H358   H     0.97311   0.54738   0.27708   0.00000  Uiso   1.00
H359   H     0.76247   0.71715   0.27694   0.00000  Uiso   1.00
O360   O     0.69019   0.41178   0.00129   0.00000  Uiso   1.00
O361   O     0.02124   0.53983   0.00012   0.00000  Uiso   1.00
O362   O     0.74488   0.76256   0.99994   0.00000  Uiso   1.00
N363   N     0.72711   0.45764   0.85206   0.00000  Uiso   1.00
N364   N     0.96302   0.54888   0.85123   0.00000  Uiso   1.00
N365   N     0.76610   0.70760   0.85110   0.00000  Uiso   1.00
N366   N     0.72714   0.45768   0.15003   0.00000  Uiso   1.00
N367   N     0.96305   0.54893   0.14920   0.00000  Uiso   1.00
N368   N     0.76613   0.70765   0.14907   0.00000  Uiso   1.00
