data_job_02622
_audit_creation_date              2018-12-19
_audit_creation_method            'Materials Studio'
_symmetry_space_group_name_H-M    'P1'
_symmetry_Int_Tables_number       1
_symmetry_cell_setting            triclinic
loop_
_symmetry_equiv_pos_as_xyz
  x,y,z
_cell_length_a                    9.2961
_cell_length_b                    11.5072
_cell_length_c                    14.7767
_cell_angle_alpha                 79.3639
_cell_angle_beta                  88.6086
_cell_angle_gamma                 68.5287
loop_
_atom_site_label
_atom_site_type_symbol
_atom_site_fract_x
_atom_site_fract_y
_atom_site_fract_z
_atom_site_U_iso_or_equiv
_atom_site_adp_type
_atom_site_occupancy
C1     C     0.74234   0.26709   0.30421   0.00000  Uiso   1.00
C2     C     0.64617   0.40547   0.30790   0.00000  Uiso   1.00
C3     C     0.53367   0.44705   0.37042   0.00000  Uiso   1.00
C4     C     0.45862   0.57757   0.36237   0.00000  Uiso   1.00
C5     C     0.30373   0.77940   0.37844   0.00000  Uiso   1.00
C6     C     0.71548   0.25006   0.20690   0.00000  Uiso   1.00
C7     C     0.66128   0.16097   0.18450   0.00000  Uiso   1.00
C8     C     0.64460   0.16066   0.09144   0.00000  Uiso   1.00
C9     C     0.59743   0.12116   0.95071   0.00000  Uiso   1.00
C10    C     0.91111   0.25390   0.31186   0.00000  Uiso   1.00
C11    C     0.02140   0.16800   0.37769   0.00000  Uiso   1.00
C12    C     0.16944   0.17090   0.37297   0.00000  Uiso   1.00
C13    C     0.42600   0.13735   0.39520   0.00000  Uiso   1.00
C14    C     0.80912   0.42494   0.17877   0.00000  Uiso   1.00
C15    C     0.68245   0.49120   0.23976   0.00000  Uiso   1.00
C16    C     0.60756   0.62169   0.23163   0.00000  Uiso   1.00
C17    C     0.49497   0.66346   0.29412   0.00000  Uiso   1.00
C18    C     0.75176   0.33580   0.13877   0.00000  Uiso   1.00
C19    C     0.73517   0.33561   0.04572   0.00000  Uiso   1.00
C20    C     0.68094   0.24655   0.02318   0.00000  Uiso   1.00
C21    C     0.94738   0.33964   0.24372   0.00000  Uiso   1.00
C22    C     0.09528   0.34266   0.23890   0.00000  Uiso   1.00
C23    C     0.20578   0.25679   0.30471   0.00000  Uiso   1.00
H24    H     0.71409   0.20033   0.35725   0.00000  Uiso   1.00
H25    H     0.50562   0.38067   0.42313   0.00000  Uiso   1.00
H26    H     0.63323   0.09462   0.23725   0.00000  Uiso   1.00
H27    H     0.99329   0.10167   0.43040   0.00000  Uiso   1.00
H28    H     0.29045   0.61841   0.46610   0.00000  Uiso   1.00
H29    H     0.55957   0.01525   0.07415   0.00000  Uiso   1.00
H30    H     0.31882   0.03009   0.48146   0.00000  Uiso   1.00
H31    H     0.83737   0.49169   0.12572   0.00000  Uiso   1.00
H32    H     0.63566   0.68802   0.17889   0.00000  Uiso   1.00
H33    H     0.76326   0.40197   0.99301   0.00000  Uiso   1.00
H34    H     0.12332   0.40902   0.18616   0.00000  Uiso   1.00
H35    H     0.39598   0.86787   0.26786   0.00000  Uiso   1.00
H36    H     0.66511   0.26470   0.87592   0.00000  Uiso   1.00
H37    H     0.42436   0.27955   0.28323   0.00000  Uiso   1.00
O38    O     0.20826   0.86704   0.40612   0.00000  Uiso   1.00
O39    O     0.56137   0.07569   0.89190   0.00000  Uiso   1.00
O40    O     0.55748   0.09517   0.42628   0.00000  Uiso   1.00
N41    N     0.34299   0.65018   0.41216   0.00000  Uiso   1.00
N42    N     0.59458   0.08627   0.04571   0.00000  Uiso   1.00
N43    N     0.30443   0.10013   0.42650   0.00000  Uiso   1.00
N44    N     0.39978   0.78441   0.30549   0.00000  Uiso   1.00
N45    N     0.65137   0.22050   0.93904   0.00000  Uiso   1.00
N46    N     0.36121   0.23436   0.31983   0.00000  Uiso   1.00
C47    C     0.25766   0.73291   0.69579   0.00000  Uiso   1.00
C48    C     0.35383   0.59453   0.69210   0.00000  Uiso   1.00
C49    C     0.46633   0.55295   0.62958   0.00000  Uiso   1.00
C50    C     0.54138   0.42243   0.63763   0.00000  Uiso   1.00
C51    C     0.69627   0.22060   0.62156   0.00000  Uiso   1.00
C52    C     0.28452   0.74994   0.79310   0.00000  Uiso   1.00
C53    C     0.33872   0.83903   0.81550   0.00000  Uiso   1.00
C54    C     0.35540   0.83934   0.90856   0.00000  Uiso   1.00
C55    C     0.40257   0.87884   0.04929   0.00000  Uiso   1.00
C56    C     0.08889   0.74610   0.68814   0.00000  Uiso   1.00
C57    C     0.97860   0.83200   0.62231   0.00000  Uiso   1.00
C58    C     0.83056   0.82910   0.62703   0.00000  Uiso   1.00
C59    C     0.57400   0.86265   0.60480   0.00000  Uiso   1.00
C60    C     0.19088   0.57506   0.82123   0.00000  Uiso   1.00
C61    C     0.31755   0.50880   0.76024   0.00000  Uiso   1.00
C62    C     0.39244   0.37831   0.76837   0.00000  Uiso   1.00
C63    C     0.50503   0.33654   0.70588   0.00000  Uiso   1.00
C64    C     0.24824   0.66420   0.86123   0.00000  Uiso   1.00
C65    C     0.26483   0.66439   0.95428   0.00000  Uiso   1.00
C66    C     0.31906   0.75345   0.97682   0.00000  Uiso   1.00
C67    C     0.05262   0.66036   0.75628   0.00000  Uiso   1.00
C68    C     0.90472   0.65734   0.76110   0.00000  Uiso   1.00
C69    C     0.79422   0.74321   0.69529   0.00000  Uiso   1.00
H70    H     0.28591   0.79967   0.64275   0.00000  Uiso   1.00
H71    H     0.49438   0.61933   0.57687   0.00000  Uiso   1.00
H72    H     0.36677   0.90538   0.76275   0.00000  Uiso   1.00
H73    H     0.00671   0.89833   0.56960   0.00000  Uiso   1.00
H74    H     0.70955   0.38159   0.53390   0.00000  Uiso   1.00
H75    H     0.44043   0.98475   0.92585   0.00000  Uiso   1.00
H76    H     0.68118   0.96991   0.51854   0.00000  Uiso   1.00
H77    H     0.16263   0.50831   0.87428   0.00000  Uiso   1.00
H78    H     0.36434   0.31198   0.82111   0.00000  Uiso   1.00
H79    H     0.23674   0.59803   0.00699   0.00000  Uiso   1.00
H80    H     0.87668   0.59098   0.81384   0.00000  Uiso   1.00
H81    H     0.60402   0.13213   0.73214   0.00000  Uiso   1.00
H82    H     0.33489   0.73530   0.12408   0.00000  Uiso   1.00
H83    H     0.57564   0.72045   0.71677   0.00000  Uiso   1.00
O84    O     0.79174   0.13296   0.59388   0.00000  Uiso   1.00
O85    O     0.43863   0.92431   0.10810   0.00000  Uiso   1.00
O86    O     0.44252   0.90483   0.57372   0.00000  Uiso   1.00
N87    N     0.65701   0.34982   0.58784   0.00000  Uiso   1.00
N88    N     0.40542   0.91373   0.95429   0.00000  Uiso   1.00
N89    N     0.69557   0.89987   0.57350   0.00000  Uiso   1.00
N90    N     0.60022   0.21559   0.69451   0.00000  Uiso   1.00
N91    N     0.34863   0.77950   0.06096   0.00000  Uiso   1.00
N92    N     0.63879   0.76564   0.68017   0.00000  Uiso   1.00
